MODEL 1
REMARK VINA RESULT:      -8.0      0.000      0.000
REMARK  Name = 
REMARK  16 active torsions:
REMARK  status: ('A' for Active; 'I' for Inactive)
REMARK    1  A    between atoms: C_1  and  C_2
REMARK    2  A    between atoms: C_2  and  C_3
REMARK    3  A    between atoms: C_3  and  C_4
REMARK    4  A    between atoms: C_4  and  C_5
REMARK    5  A    between atoms: C_5  and  C_6
REMARK    6  A    between atoms: C_5  and  C_31
REMARK    7  A    between atoms: C_6  and  C_7
REMARK    8  A    between atoms: C_11  and  O_12
REMARK    9  A    between atoms: O_12  and  C_13
REMARK   10  A    between atoms: C_13  and  C_14
REMARK   11  A    between atoms: C_14  and  C_15
REMARK   12  A    between atoms: C_21  and  O_22
REMARK   13  A    between atoms: O_22  and  C_23
REMARK   14  A    between atoms: C_23  and  C_24
REMARK   15  A    between atoms: C_24  and  C_25
REMARK   16  A    between atoms: C_31  and  O_33
REMARK                            x       y       z     vdW  Elec       q    Type
REMARK                         _______ _______ _______ _____ _____    ______ ____
ROOT
ATOM      1  C   UNL     1       3.145   6.570  18.350  0.00  0.00    +0.000 A 
ATOM      2  C   UNL     1       2.975   7.643  17.450  0.00  0.00    +0.000 A 
ATOM      3  C   UNL     1       2.278   8.785  17.798  0.00  0.00    +0.000 A 
ATOM      4  C   UNL     1       1.726   8.880  19.060  0.00  0.00    +0.000 A 
ATOM      5  C   UNL     1       1.784   7.805  19.956  0.00  0.00    +0.000 A 
ATOM      6  C   UNL     1       2.513   6.629  19.620  0.00  0.00    +0.000 A 
ENDROOT
BRANCH   1   7
ATOM      7  C   UNL     1       4.119   5.486  17.923  0.00  0.00    +0.000 C 
BRANCH   7   8
ATOM      8  C   UNL     1       5.584   5.861  17.634  0.00  0.00    +0.000 C 
BRANCH   8   9
ATOM      9  C   UNL     1       6.541   5.187  18.610  0.00  0.00    +0.000 C 
ATOM     10  O   UNL     1       6.556   5.397  19.816  0.00  0.00    +0.000 OA
BRANCH   9  11
ATOM     11  O   UNL     1       7.325   4.228  18.065  0.00  0.00    +0.000 OA
ATOM     12  H   UNL     1       7.212   3.338  18.441  0.00  0.00    +0.000 HD
ENDBRANCH   9  11
ENDBRANCH   8   9
BRANCH   8  13
ATOM     13  C   UNL     1       6.069   5.646  16.174  0.00  0.00    +0.000 C 
BRANCH  13  14
ATOM     14  C   UNL     1       5.230   4.674  15.326  0.00  0.00    +0.000 C 
BRANCH  14  16
ATOM     15  C   UNL     1       7.281   4.901  13.854  0.00  0.00    +0.000 C 
ATOM     16  C   UNL     1       6.069   4.049  14.203  0.00  0.00    +0.000 C 
ENDBRANCH  14  16
ENDBRANCH  13  14
ENDBRANCH   8  13
ENDBRANCH   7   8
ENDBRANCH   1   7
BRANCH   5  17
ATOM     17  O   UNL     1       1.218   7.941  21.195  0.00  0.00    +0.000 OA
BRANCH  17  18
ATOM     18  C   UNL     1       1.368   9.203  21.849  0.00  0.00    +0.000 C 
BRANCH  18  19
ATOM     19  C   UNL     1       0.172   9.427  22.776  0.00  0.00    +0.000 C 
BRANCH  19  20
ATOM     20  C   UNL     1      -0.665  10.585  22.308  0.00  0.00    +0.000 A 
ATOM     21  C   UNL     1      -1.538  11.231  23.194  0.00  0.00    +0.000 A 
ATOM     22  C   UNL     1      -2.361  12.263  22.743  0.00  0.00    +0.000 A 
ATOM     23  C   UNL     1      -2.321  12.654  21.407  0.00  0.00    +0.000 A 
ATOM     24  C   UNL     1      -1.454  12.020  20.519  0.00  0.00    +0.000 A 
ATOM     25  C   UNL     1      -0.630  10.989  20.968  0.00  0.00    +0.000 A 
ENDBRANCH  19  20
ENDBRANCH  18  19
ENDBRANCH  17  18
ENDBRANCH   5  17
BRANCH   6  26
ATOM     26  O   UNL     1       2.684   5.518  20.433  0.00  0.00    +0.000 OA
BRANCH  26  27
ATOM     27  C   UNL     1       1.511   4.996  21.080  0.00  0.00    +0.000 C 
BRANCH  27  28
ATOM     28  C   UNL     1       0.887   3.789  20.366  0.00  0.00    +0.000 C 
BRANCH  28  29
ATOM     29  C   UNL     1       1.882   3.024  19.532  0.00  0.00    +0.000 A 
ATOM     30  C   UNL     1       3.054   2.503  20.099  0.00  0.00    +0.000 A 
ATOM     31  C   UNL     1       4.011   1.898  19.295  0.00  0.00    +0.000 A 
ATOM     32  C   UNL     1       3.797   1.770  17.923  0.00  0.00    +0.000 A 
ATOM     33  C   UNL     1       2.606   2.226  17.360  0.00  0.00    +0.000 A 
ATOM     34  C   UNL     1       1.649   2.843  18.163  0.00  0.00    +0.000 A 
ENDBRANCH  28  29
ENDBRANCH  27  28
ENDBRANCH  26  27
ENDBRANCH   6  26
TORSDOF 15
ENDMDL
MODEL 2
REMARK VINA RESULT:      -7.9      0.961      1.490
REMARK  Name = 
REMARK  16 active torsions:
REMARK  status: ('A' for Active; 'I' for Inactive)
REMARK    1  A    between atoms: C_1  and  C_2
REMARK    2  A    between atoms: C_2  and  C_3
REMARK    3  A    between atoms: C_3  and  C_4
REMARK    4  A    between atoms: C_4  and  C_5
REMARK    5  A    between atoms: C_5  and  C_6
REMARK    6  A    between atoms: C_5  and  C_31
REMARK    7  A    between atoms: C_6  and  C_7
REMARK    8  A    between atoms: C_11  and  O_12
REMARK    9  A    between atoms: O_12  and  C_13
REMARK   10  A    between atoms: C_13  and  C_14
REMARK   11  A    between atoms: C_14  and  C_15
REMARK   12  A    between atoms: C_21  and  O_22
REMARK   13  A    between atoms: O_22  and  C_23
REMARK   14  A    between atoms: C_23  and  C_24
REMARK   15  A    between atoms: C_24  and  C_25
REMARK   16  A    between atoms: C_31  and  O_33
REMARK                            x       y       z     vdW  Elec       q    Type
REMARK                         _______ _______ _______ _____ _____    ______ ____
ROOT
ATOM      1  C   UNL     1       2.961   6.730  18.461  0.00  0.00    +0.000 A 
ATOM      2  C   UNL     1       2.879   7.760  17.501  0.00  0.00    +0.000 A 
ATOM      3  C   UNL     1       2.265   8.969  17.777  0.00  0.00    +0.000 A 
ATOM      4  C   UNL     1       1.711   9.173  19.024  0.00  0.00    +0.000 A 
ATOM      5  C   UNL     1       1.681   8.149  19.978  0.00  0.00    +0.000 A 
ATOM      6  C   UNL     1       2.324   6.905  19.717  0.00  0.00    +0.000 A 
ENDROOT
BRANCH   1   7
ATOM      7  C   UNL     1       3.855   5.555  18.107  0.00  0.00    +0.000 C 
BRANCH   7   8
ATOM      8  C   UNL     1       5.310   5.819  17.675  0.00  0.00    +0.000 C 
BRANCH   8   9
ATOM      9  C   UNL     1       6.301   5.033  18.524  0.00  0.00    +0.000 C 
ATOM     10  O   UNL     1       7.316   4.505  18.088  0.00  0.00    +0.000 OA
BRANCH   9  11
ATOM     11  O   UNL     1       6.046   5.047  19.853  0.00  0.00    +0.000 OA
ATOM     12  H   UNL     1       5.148   4.769  20.105  0.00  0.00    +0.000 HD
ENDBRANCH   9  11
ENDBRANCH   8   9
BRANCH   8  13
ATOM     13  C   UNL     1       5.622   5.621  16.166  0.00  0.00    +0.000 C 
BRANCH  13  14
ATOM     14  C   UNL     1       5.156   4.288  15.556  0.00  0.00    +0.000 C 
BRANCH  14  16
ATOM     15  C   UNL     1       7.094   4.844  14.021  0.00  0.00    +0.000 C 
ATOM     16  C   UNL     1       5.812   4.040  14.192  0.00  0.00    +0.000 C 
ENDBRANCH  14  16
ENDBRANCH  13  14
ENDBRANCH   8  13
ENDBRANCH   7   8
ENDBRANCH   1   7
BRANCH   5  17
ATOM     17  O   UNL     1       1.116   8.395  21.201  0.00  0.00    +0.000 OA
BRANCH  17  18
ATOM     18  C   UNL     1      -0.223   8.895  21.216  0.00  0.00    +0.000 C 
BRANCH  18  19
ATOM     19  C   UNL     1      -0.225  10.292  21.838  0.00  0.00    +0.000 C 
BRANCH  19  20
ATOM     20  C   UNL     1      -0.275  11.356  20.776  0.00  0.00    +0.000 A 
ATOM     21  C   UNL     1      -1.246  11.304  19.767  0.00  0.00    +0.000 A 
ATOM     22  C   UNL     1      -1.250  12.256  18.746  0.00  0.00    +0.000 A 
ATOM     23  C   UNL     1      -0.285  13.260  18.724  0.00  0.00    +0.000 A 
ATOM     24  C   UNL     1       0.683  13.321  19.725  0.00  0.00    +0.000 A 
ATOM     25  C   UNL     1       0.689  12.372  20.747  0.00  0.00    +0.000 A 
ENDBRANCH  19  20
ENDBRANCH  18  19
ENDBRANCH  17  18
ENDBRANCH   5  17
BRANCH   6  26
ATOM     26  O   UNL     1       2.405   5.832  20.592  0.00  0.00    +0.000 OA
BRANCH  26  27
ATOM     27  C   UNL     1       1.207   5.063  20.795  0.00  0.00    +0.000 C 
BRANCH  27  28
ATOM     28  C   UNL     1       1.461   3.581  21.100  0.00  0.00    +0.000 C 
BRANCH  28  29
ATOM     29  C   UNL     1       2.240   2.884  20.014  0.00  0.00    +0.000 A 
ATOM     30  C   UNL     1       3.563   2.467  20.227  0.00  0.00    +0.000 A 
ATOM     31  C   UNL     1       4.303   1.928  19.183  0.00  0.00    +0.000 A 
ATOM     32  C   UNL     1       3.724   1.760  17.925  0.00  0.00    +0.000 A 
ATOM     33  C   UNL     1       2.390   2.110  17.721  0.00  0.00    +0.000 A 
ATOM     34  C   UNL     1       1.649   2.662  18.764  0.00  0.00    +0.000 A 
ENDBRANCH  28  29
ENDBRANCH  27  28
ENDBRANCH  26  27
ENDBRANCH   6  26
TORSDOF 15
ENDMDL
MODEL 3
REMARK VINA RESULT:      -7.5      1.026      1.381
REMARK  Name = 
REMARK  16 active torsions:
REMARK  status: ('A' for Active; 'I' for Inactive)
REMARK    1  A    between atoms: C_1  and  C_2
REMARK    2  A    between atoms: C_2  and  C_3
REMARK    3  A    between atoms: C_3  and  C_4
REMARK    4  A    between atoms: C_4  and  C_5
REMARK    5  A    between atoms: C_5  and  C_6
REMARK    6  A    between atoms: C_5  and  C_31
REMARK    7  A    between atoms: C_6  and  C_7
REMARK    8  A    between atoms: C_11  and  O_12
REMARK    9  A    between atoms: O_12  and  C_13
REMARK   10  A    between atoms: C_13  and  C_14
REMARK   11  A    between atoms: C_14  and  C_15
REMARK   12  A    between atoms: C_21  and  O_22
REMARK   13  A    between atoms: O_22  and  C_23
REMARK   14  A    between atoms: C_23  and  C_24
REMARK   15  A    between atoms: C_24  and  C_25
REMARK   16  A    between atoms: C_31  and  O_33
REMARK                            x       y       z     vdW  Elec       q    Type
REMARK                         _______ _______ _______ _____ _____    ______ ____
ROOT
ATOM      1  C   UNL     1       2.951   7.305  18.385  0.00  0.00    +0.000 A 
ATOM      2  C   UNL     1       2.699   8.393  17.524  0.00  0.00    +0.000 A 
ATOM      3  C   UNL     1       1.914   9.464  17.911  0.00  0.00    +0.000 A 
ATOM      4  C   UNL     1       1.356   9.468  19.173  0.00  0.00    +0.000 A 
ATOM      5  C   UNL     1       1.497   8.369  20.029  0.00  0.00    +0.000 A 
ATOM      6  C   UNL     1       2.315   7.266  19.653  0.00  0.00    +0.000 A 
ENDROOT
BRANCH   1   7
ATOM      7  C   UNL     1       4.007   6.316  17.922  0.00  0.00    +0.000 C 
BRANCH   7   8
ATOM      8  C   UNL     1       5.025   6.748  16.850  0.00  0.00    +0.000 C 
BRANCH   8   9
ATOM      9  C   UNL     1       6.414   6.951  17.442  0.00  0.00    +0.000 C 
ATOM     10  O   UNL     1       7.155   7.884  17.159  0.00  0.00    +0.000 OA
BRANCH   9  11
ATOM     11  O   UNL     1       6.750   6.072  18.414  0.00  0.00    +0.000 OA
ATOM     12  H   UNL     1       6.026   5.500  18.724  0.00  0.00    +0.000 HD
ENDBRANCH   9  11
ENDBRANCH   8   9
BRANCH   8  13
ATOM     13  C   UNL     1       5.107   5.852  15.584  0.00  0.00    +0.000 C 
BRANCH  13  14
ATOM     14  C   UNL     1       5.150   4.335  15.840  0.00  0.00    +0.000 C 
BRANCH  14  16
ATOM     15  C   UNL     1       6.469   4.327  13.676  0.00  0.00    +0.000 C 
ATOM     16  C   UNL     1       6.270   3.666  15.033  0.00  0.00    +0.000 C 
ENDBRANCH  14  16
ENDBRANCH  13  14
ENDBRANCH   8  13
ENDBRANCH   7   8
ENDBRANCH   1   7
BRANCH   5  17
ATOM     17  O   UNL     1       0.921   8.414  21.271  0.00  0.00    +0.000 OA
BRANCH  17  18
ATOM     18  C   UNL     1       0.873   9.684  21.925  0.00  0.00    +0.000 C 
BRANCH  18  19
ATOM     19  C   UNL     1      -0.441   9.795  22.700  0.00  0.00    +0.000 C 
BRANCH  19  20
ATOM     20  C   UNL     1      -1.188  11.044  22.320  0.00  0.00    +0.000 A 
ATOM     21  C   UNL     1      -1.013  11.616  21.053  0.00  0.00    +0.000 A 
ATOM     22  C   UNL     1      -1.657  12.810  20.726  0.00  0.00    +0.000 A 
ATOM     23  C   UNL     1      -2.475  13.441  21.661  0.00  0.00    +0.000 A 
ATOM     24  C   UNL     1      -2.657  12.878  22.922  0.00  0.00    +0.000 A 
ATOM     25  C   UNL     1      -2.015  11.684  23.252  0.00  0.00    +0.000 A 
ENDBRANCH  19  20
ENDBRANCH  18  19
ENDBRANCH  17  18
ENDBRANCH   5  17
BRANCH   6  26
ATOM     26  O   UNL     1       2.572   6.143  20.425  0.00  0.00    +0.000 OA
BRANCH  26  27
ATOM     27  C   UNL     1       1.443   5.333  20.795  0.00  0.00    +0.000 C 
BRANCH  27  28
ATOM     28  C   UNL     1       1.805   3.892  21.178  0.00  0.00    +0.000 C 
BRANCH  28  29
ATOM     29  C   UNL     1       2.390   3.111  20.030  0.00  0.00    +0.000 A 
ATOM     30  C   UNL     1       3.592   2.400  20.175  0.00  0.00    +0.000 A 
ATOM     31  C   UNL     1       4.173   1.778  19.079  0.00  0.00    +0.000 A 
ATOM     32  C   UNL     1       3.548   1.822  17.833  0.00  0.00    +0.000 A 
ATOM     33  C   UNL     1       2.322   2.469  17.693  0.00  0.00    +0.000 A 
ATOM     34  C   UNL     1       1.741   3.104  18.789  0.00  0.00    +0.000 A 
ENDBRANCH  28  29
ENDBRANCH  27  28
ENDBRANCH  26  27
ENDBRANCH   6  26
TORSDOF 15
ENDMDL
MODEL 4
REMARK VINA RESULT:      -7.5      0.963      1.094
REMARK  Name = 
REMARK  16 active torsions:
REMARK  status: ('A' for Active; 'I' for Inactive)
REMARK    1  A    between atoms: C_1  and  C_2
REMARK    2  A    between atoms: C_2  and  C_3
REMARK    3  A    between atoms: C_3  and  C_4
REMARK    4  A    between atoms: C_4  and  C_5
REMARK    5  A    between atoms: C_5  and  C_6
REMARK    6  A    between atoms: C_5  and  C_31
REMARK    7  A    between atoms: C_6  and  C_7
REMARK    8  A    between atoms: C_11  and  O_12
REMARK    9  A    between atoms: O_12  and  C_13
REMARK   10  A    between atoms: C_13  and  C_14
REMARK   11  A    between atoms: C_14  and  C_15
REMARK   12  A    between atoms: C_21  and  O_22
REMARK   13  A    between atoms: O_22  and  C_23
REMARK   14  A    between atoms: C_23  and  C_24
REMARK   15  A    between atoms: C_24  and  C_25
REMARK   16  A    between atoms: C_31  and  O_33
REMARK                            x       y       z     vdW  Elec       q    Type
REMARK                         _______ _______ _______ _____ _____    ______ ____
ROOT
ATOM      1  C   UNL     1       3.127   6.621  18.461  0.00  0.00    +0.000 A 
ATOM      2  C   UNL     1       3.114   7.613  17.458  0.00  0.00    +0.000 A 
ATOM      3  C   UNL     1       2.454   8.816  17.630  0.00  0.00    +0.000 A 
ATOM      4  C   UNL     1       1.783   9.053  18.812  0.00  0.00    +0.000 A 
ATOM      5  C   UNL     1       1.684   8.064  19.798  0.00  0.00    +0.000 A 
ATOM      6  C   UNL     1       2.372   6.827  19.645  0.00  0.00    +0.000 A 
ENDROOT
BRANCH   1   7
ATOM      7  C   UNL     1       4.073   5.454  18.236  0.00  0.00    +0.000 C 
BRANCH   7   8
ATOM      8  C   UNL     1       5.052   5.497  17.049  0.00  0.00    +0.000 C 
BRANCH   8   9
ATOM      9  C   UNL     1       6.313   6.284  17.386  0.00  0.00    +0.000 C 
ATOM     10  O   UNL     1       6.649   7.320  16.827  0.00  0.00    +0.000 OA
BRANCH   9  11
ATOM     11  O   UNL     1       7.005   5.817  18.451  0.00  0.00    +0.000 OA
ATOM     12  H   UNL     1       6.985   4.851  18.567  0.00  0.00    +0.000 HD
ENDBRANCH   9  11
ENDBRANCH   8   9
BRANCH   8  13
ATOM     13  C   UNL     1       5.429   4.126  16.423  0.00  0.00    +0.000 C 
BRANCH  13  14
ATOM     14  C   UNL     1       6.352   4.183  15.193  0.00  0.00    +0.000 C 
BRANCH  14  16
ATOM     15  C   UNL     1       6.290   3.645  12.717  0.00  0.00    +0.000 C 
ATOM     16  C   UNL     1       5.542   4.260  13.892  0.00  0.00    +0.000 C 
ENDBRANCH  14  16
ENDBRANCH  13  14
ENDBRANCH   8  13
ENDBRANCH   7   8
ENDBRANCH   1   7
BRANCH   5  17
ATOM     17  O   UNL     1       1.003   8.341  20.954  0.00  0.00    +0.000 OA
BRANCH  17  18
ATOM     18  C   UNL     1      -0.032   9.324  20.884  0.00  0.00    +0.000 C 
BRANCH  18  19
ATOM     19  C   UNL     1      -0.176   9.991  22.253  0.00  0.00    +0.000 C 
BRANCH  19  20
ATOM     20  C   UNL     1      -1.098  11.178  22.181  0.00  0.00    +0.000 A 
ATOM     21  C   UNL     1      -1.885  11.530  23.285  0.00  0.00    +0.000 A 
ATOM     22  C   UNL     1      -2.787  12.591  23.196  0.00  0.00    +0.000 A 
ATOM     23  C   UNL     1      -2.911  13.303  22.005  0.00  0.00    +0.000 A 
ATOM     24  C   UNL     1      -2.130  12.962  20.903  0.00  0.00    +0.000 A 
ATOM     25  C   UNL     1      -1.227  11.903  20.990  0.00  0.00    +0.000 A 
ENDBRANCH  19  20
ENDBRANCH  18  19
ENDBRANCH  17  18
ENDBRANCH   5  17
BRANCH   6  26
ATOM     26  O   UNL     1       2.393   5.788  20.565  0.00  0.00    +0.000 OA
BRANCH  26  27
ATOM     27  C   UNL     1       1.161   5.075  20.771  0.00  0.00    +0.000 C 
BRANCH  27  28
ATOM     28  C   UNL     1       1.348   3.587  21.098  0.00  0.00    +0.000 C 
BRANCH  28  29
ATOM     29  C   UNL     1       2.161   2.857  20.061  0.00  0.00    +0.000 A 
ATOM     30  C   UNL     1       3.457   2.400  20.347  0.00  0.00    +0.000 A 
ATOM     31  C   UNL     1       4.233   1.828  19.348  0.00  0.00    +0.000 A 
ATOM     32  C   UNL     1       3.717   1.668  18.062  0.00  0.00    +0.000 A 
ATOM     33  C   UNL     1       2.408   2.059  17.785  0.00  0.00    +0.000 A 
ATOM     34  C   UNL     1       1.631   2.644  18.783  0.00  0.00    +0.000 A 
ENDBRANCH  28  29
ENDBRANCH  27  28
ENDBRANCH  26  27
ENDBRANCH   6  26
TORSDOF 15
ENDMDL
MODEL 5
REMARK VINA RESULT:      -7.4      1.472      2.383
REMARK  Name = 
REMARK  16 active torsions:
REMARK  status: ('A' for Active; 'I' for Inactive)
REMARK    1  A    between atoms: C_1  and  C_2
REMARK    2  A    between atoms: C_2  and  C_3
REMARK    3  A    between atoms: C_3  and  C_4
REMARK    4  A    between atoms: C_4  and  C_5
REMARK    5  A    between atoms: C_5  and  C_6
REMARK    6  A    between atoms: C_5  and  C_31
REMARK    7  A    between atoms: C_6  and  C_7
REMARK    8  A    between atoms: C_11  and  O_12
REMARK    9  A    between atoms: O_12  and  C_13
REMARK   10  A    between atoms: C_13  and  C_14
REMARK   11  A    between atoms: C_14  and  C_15
REMARK   12  A    between atoms: C_21  and  O_22
REMARK   13  A    between atoms: O_22  and  C_23
REMARK   14  A    between atoms: C_23  and  C_24
REMARK   15  A    between atoms: C_24  and  C_25
REMARK   16  A    between atoms: C_31  and  O_33
REMARK                            x       y       z     vdW  Elec       q    Type
REMARK                         _______ _______ _______ _____ _____    ______ ____
ROOT
ATOM      1  C   UNL     1       2.688   6.777  18.261  0.00  0.00    +0.000 A 
ATOM      2  C   UNL     1       2.556   7.889  17.404  0.00  0.00    +0.000 A 
ATOM      3  C   UNL     1       2.103   9.113  17.859  0.00  0.00    +0.000 A 
ATOM      4  C   UNL     1       1.761   9.252  19.189  0.00  0.00    +0.000 A 
ATOM      5  C   UNL     1       1.781   8.155  20.059  0.00  0.00    +0.000 A 
ATOM      6  C   UNL     1       2.263   6.892  19.611  0.00  0.00    +0.000 A 
ENDROOT
BRANCH   1   7
ATOM      7  C   UNL     1       3.409   5.570  17.687  0.00  0.00    +0.000 C 
BRANCH   7   8
ATOM      8  C   UNL     1       4.909   5.676  17.358  0.00  0.00    +0.000 C 
BRANCH   8   9
ATOM      9  C   UNL     1       5.149   5.800  15.858  0.00  0.00    +0.000 C 
ATOM     10  O   UNL     1       5.213   6.864  15.256  0.00  0.00    +0.000 OA
BRANCH   9  11
ATOM     11  O   UNL     1       5.409   4.632  15.227  0.00  0.00    +0.000 OA
ATOM     12  H   UNL     1       4.957   4.513  14.374  0.00  0.00    +0.000 HD
ENDBRANCH   9  11
ENDBRANCH   8   9
BRANCH   8  13
ATOM     13  C   UNL     1       5.701   6.775  18.119  0.00  0.00    +0.000 C 
BRANCH  13  14
ATOM     14  C   UNL     1       7.234   6.693  18.009  0.00  0.00    +0.000 C 
BRANCH  14  16
ATOM     15  C   UNL     1       8.443   8.885  18.401  0.00  0.00    +0.000 C 
ATOM     16  C   UNL     1       7.814   7.960  17.368  0.00  0.00    +0.000 C 
ENDBRANCH  14  16
ENDBRANCH  13  14
ENDBRANCH   8  13
ENDBRANCH   7   8
ENDBRANCH   1   7
BRANCH   5  17
ATOM     17  O   UNL     1       1.429   8.338  21.370  0.00  0.00    +0.000 OA
BRANCH  17  18
ATOM     18  C   UNL     1       0.093   8.770  21.635  0.00  0.00    +0.000 C 
BRANCH  18  19
ATOM     19  C   UNL     1       0.137   9.963  22.591  0.00  0.00    +0.000 C 
BRANCH  19  20
ATOM     20  C   UNL     1      -0.919  10.976  22.241  0.00  0.00    +0.000 A 
ATOM     21  C   UNL     1      -0.971  11.526  20.954  0.00  0.00    +0.000 A 
ATOM     22  C   UNL     1      -1.909  12.513  20.649  0.00  0.00    +0.000 A 
ATOM     23  C   UNL     1      -2.797  12.958  21.626  0.00  0.00    +0.000 A 
ATOM     24  C   UNL     1      -2.754  12.414  22.908  0.00  0.00    +0.000 A 
ATOM     25  C   UNL     1      -1.818  11.427  23.215  0.00  0.00    +0.000 A 
ENDBRANCH  19  20
ENDBRANCH  18  19
ENDBRANCH  17  18
ENDBRANCH   5  17
BRANCH   6  26
ATOM     26  O   UNL     1       2.376   5.745  20.382  0.00  0.00    +0.000 OA
BRANCH  26  27
ATOM     27  C   UNL     1       1.156   5.061  20.719  0.00  0.00    +0.000 C 
BRANCH  27  28
ATOM     28  C   UNL     1       1.325   3.552  20.937  0.00  0.00    +0.000 C 
BRANCH  28  29
ATOM     29  C   UNL     1       2.198   2.903  19.894  0.00  0.00    +0.000 A 
ATOM     30  C   UNL     1       1.706   2.627  18.609  0.00  0.00    +0.000 A 
ATOM     31  C   UNL     1       2.486   1.929  17.696  0.00  0.00    +0.000 A 
ATOM     32  C   UNL     1       3.778   1.532  18.036  0.00  0.00    +0.000 A 
ATOM     33  C   UNL     1       4.300   1.859  19.287  0.00  0.00    +0.000 A 
ATOM     34  C   UNL     1       3.515   2.549  20.209  0.00  0.00    +0.000 A 
ENDBRANCH  28  29
ENDBRANCH  27  28
ENDBRANCH  26  27
ENDBRANCH   6  26
TORSDOF 15
ENDMDL
MODEL 6
REMARK VINA RESULT:      -7.4      3.733      7.659
REMARK  Name = 
REMARK  16 active torsions:
REMARK  status: ('A' for Active; 'I' for Inactive)
REMARK    1  A    between atoms: C_1  and  C_2
REMARK    2  A    between atoms: C_2  and  C_3
REMARK    3  A    between atoms: C_3  and  C_4
REMARK    4  A    between atoms: C_4  and  C_5
REMARK    5  A    between atoms: C_5  and  C_6
REMARK    6  A    between atoms: C_5  and  C_31
REMARK    7  A    between atoms: C_6  and  C_7
REMARK    8  A    between atoms: C_11  and  O_12
REMARK    9  A    between atoms: O_12  and  C_13
REMARK   10  A    between atoms: C_13  and  C_14
REMARK   11  A    between atoms: C_14  and  C_15
REMARK   12  A    between atoms: C_21  and  O_22
REMARK   13  A    between atoms: O_22  and  C_23
REMARK   14  A    between atoms: C_23  and  C_24
REMARK   15  A    between atoms: C_24  and  C_25
REMARK   16  A    between atoms: C_31  and  O_33
REMARK                            x       y       z     vdW  Elec       q    Type
REMARK                         _______ _______ _______ _____ _____    ______ ____
ROOT
ATOM      1  C   UNL     1       5.492   4.872  17.105  0.00  0.00    +0.000 A 
ATOM      2  C   UNL     1       6.604   4.116  17.532  0.00  0.00    +0.000 A 
ATOM      3  C   UNL     1       7.789   4.715  17.919  0.00  0.00    +0.000 A 
ATOM      4  C   UNL     1       7.893   6.090  17.880  0.00  0.00    +0.000 A 
ATOM      5  C   UNL     1       6.853   6.879  17.373  0.00  0.00    +0.000 A 
ATOM      6  C   UNL     1       5.620   6.281  16.988  0.00  0.00    +0.000 A 
ENDROOT
BRANCH   1   7
ATOM      7  C   UNL     1       4.191   4.109  16.932  0.00  0.00    +0.000 C 
BRANCH   7   8
ATOM      8  C   UNL     1       3.884   2.922  17.864  0.00  0.00    +0.000 C 
BRANCH   8   9
ATOM      9  C   UNL     1       4.299   3.212  19.301  0.00  0.00    +0.000 C 
ATOM     10  O   UNL     1       4.941   2.441  20.002  0.00  0.00    +0.000 OA
BRANCH   9  11
ATOM     11  O   UNL     1       4.003   4.458  19.736  0.00  0.00    +0.000 OA
ATOM     12  H   UNL     1       4.771   5.037  19.888  0.00  0.00    +0.000 HD
ENDBRANCH   9  11
ENDBRANCH   8   9
BRANCH   8  13
ATOM     13  C   UNL     1       2.428   2.381  17.825  0.00  0.00    +0.000 C 
BRANCH  13  14
ATOM     14  C   UNL     1       1.331   3.384  18.219  0.00  0.00    +0.000 C 
BRANCH  14  16
ATOM     15  C   UNL     1       1.149   2.880  20.696  0.00  0.00    +0.000 C 
ATOM     16  C   UNL     1       0.448   2.831  19.345  0.00  0.00    +0.000 C 
ENDBRANCH  14  16
ENDBRANCH  13  14
ENDBRANCH   8  13
ENDBRANCH   7   8
ENDBRANCH   1   7
BRANCH   5  17
ATOM     17  O   UNL     1       7.001   8.241  17.349  0.00  0.00    +0.000 OA
BRANCH  17  18
ATOM     18  C   UNL     1       8.262   8.770  17.763  0.00  0.00    +0.000 C 
BRANCH  18  19
ATOM     19  C   UNL     1       8.111  10.269  18.024  0.00  0.00    +0.000 C 
BRANCH  19  20
ATOM     20  C   UNL     1       9.358  10.839  18.641  0.00  0.00    +0.000 A 
ATOM     21  C   UNL     1       9.442  11.022  20.027  0.00  0.00    +0.000 A 
ATOM     22  C   UNL     1      10.574  11.611  20.591  0.00  0.00    +0.000 A 
ATOM     23  C   UNL     1      11.626  12.024  19.777  0.00  0.00    +0.000 A 
ATOM     24  C   UNL     1      11.553  11.843  18.397  0.00  0.00    +0.000 A 
ATOM     25  C   UNL     1      10.423  11.254  17.831  0.00  0.00    +0.000 A 
ENDBRANCH  19  20
ENDBRANCH  18  19
ENDBRANCH  17  18
ENDBRANCH   5  17
BRANCH   6  26
ATOM     26  O   UNL     1       4.502   6.953  16.516  0.00  0.00    +0.000 OA
BRANCH  26  27
ATOM     27  C   UNL     1       3.805   7.797  17.449  0.00  0.00    +0.000 C 
BRANCH  27  28
ATOM     28  C   UNL     1       2.637   7.106  18.164  0.00  0.00    +0.000 C 
BRANCH  28  29
ATOM     29  C   UNL     1       1.914   8.019  19.122  0.00  0.00    +0.000 A 
ATOM     30  C   UNL     1       1.443   9.274  18.709  0.00  0.00    +0.000 A 
ATOM     31  C   UNL     1       0.879  10.147  19.630  0.00  0.00    +0.000 A 
ATOM     32  C   UNL     1       0.742   9.767  20.965  0.00  0.00    +0.000 A 
ATOM     33  C   UNL     1       1.147   8.496  21.372  0.00  0.00    +0.000 A 
ATOM     34  C   UNL     1       1.724   7.623  20.452  0.00  0.00    +0.000 A 
ENDBRANCH  28  29
ENDBRANCH  27  28
ENDBRANCH  26  27
ENDBRANCH   6  26
TORSDOF 15
ENDMDL
MODEL 7
REMARK VINA RESULT:      -7.4      0.978      1.667
REMARK  Name = 
REMARK  16 active torsions:
REMARK  status: ('A' for Active; 'I' for Inactive)
REMARK    1  A    between atoms: C_1  and  C_2
REMARK    2  A    between atoms: C_2  and  C_3
REMARK    3  A    between atoms: C_3  and  C_4
REMARK    4  A    between atoms: C_4  and  C_5
REMARK    5  A    between atoms: C_5  and  C_6
REMARK    6  A    between atoms: C_5  and  C_31
REMARK    7  A    between atoms: C_6  and  C_7
REMARK    8  A    between atoms: C_11  and  O_12
REMARK    9  A    between atoms: O_12  and  C_13
REMARK   10  A    between atoms: C_13  and  C_14
REMARK   11  A    between atoms: C_14  and  C_15
REMARK   12  A    between atoms: C_21  and  O_22
REMARK   13  A    between atoms: O_22  and  C_23
REMARK   14  A    between atoms: C_23  and  C_24
REMARK   15  A    between atoms: C_24  and  C_25
REMARK   16  A    between atoms: C_31  and  O_33
REMARK                            x       y       z     vdW  Elec       q    Type
REMARK                         _______ _______ _______ _____ _____    ______ ____
ROOT
ATOM      1  C   UNL     1       2.973   6.766  18.583  0.00  0.00    +0.000 A 
ATOM      2  C   UNL     1       2.987   7.787  17.610  0.00  0.00    +0.000 A 
ATOM      3  C   UNL     1       2.319   8.983  17.796  0.00  0.00    +0.000 A 
ATOM      4  C   UNL     1       1.612   9.185  18.964  0.00  0.00    +0.000 A 
ATOM      5  C   UNL     1       1.487   8.168  19.918  0.00  0.00    +0.000 A 
ATOM      6  C   UNL     1       2.183   6.937  19.750  0.00  0.00    +0.000 A 
ENDROOT
BRANCH   1   7
ATOM      7  C   UNL     1       3.928   5.609  18.353  0.00  0.00    +0.000 C 
BRANCH   7   8
ATOM      8  C   UNL     1       5.263   5.866  17.630  0.00  0.00    +0.000 C 
BRANCH   8   9
ATOM      9  C   UNL     1       6.455   5.460  18.487  0.00  0.00    +0.000 C 
ATOM     10  O   UNL     1       6.621   4.338  18.951  0.00  0.00    +0.000 OA
BRANCH   9  11
ATOM     11  O   UNL     1       7.410   6.410  18.618  0.00  0.00    +0.000 OA
ATOM     12  H   UNL     1       8.278   6.086  18.918  0.00  0.00    +0.000 HD
ENDBRANCH   9  11
ENDBRANCH   8   9
BRANCH   8  13
ATOM     13  C   UNL     1       5.397   5.263  16.205  0.00  0.00    +0.000 C 
BRANCH  13  14
ATOM     14  C   UNL     1       6.784   5.390  15.553  0.00  0.00    +0.000 C 
BRANCH  14  16
ATOM     15  C   UNL     1       5.523   3.951  13.890  0.00  0.00    +0.000 C 
ATOM     16  C   UNL     1       6.850   4.616  14.229  0.00  0.00    +0.000 C 
ENDBRANCH  14  16
ENDBRANCH  13  14
ENDBRANCH   8  13
ENDBRANCH   7   8
ENDBRANCH   1   7
BRANCH   5  17
ATOM     17  O   UNL     1       0.772   8.411  21.061  0.00  0.00    +0.000 OA
BRANCH  17  18
ATOM     18  C   UNL     1       1.079   9.603  21.786  0.00  0.00    +0.000 C 
BRANCH  18  19
ATOM     19  C   UNL     1      -0.191  10.443  21.923  0.00  0.00    +0.000 C 
BRANCH  19  20
ATOM     20  C   UNL     1      -0.292  11.456  20.815  0.00  0.00    +0.000 A 
ATOM     21  C   UNL     1       0.508  12.606  20.834  0.00  0.00    +0.000 A 
ATOM     22  C   UNL     1       0.367  13.576  19.840  0.00  0.00    +0.000 A 
ATOM     23  C   UNL     1      -0.573  13.405  18.826  0.00  0.00    +0.000 A 
ATOM     24  C   UNL     1      -1.371  12.263  18.799  0.00  0.00    +0.000 A 
ATOM     25  C   UNL     1      -1.232  11.292  19.790  0.00  0.00    +0.000 A 
ENDBRANCH  19  20
ENDBRANCH  18  19
ENDBRANCH  17  18
ENDBRANCH   5  17
BRANCH   6  26
ATOM     26  O   UNL     1       2.179   5.873  20.640  0.00  0.00    +0.000 OA
BRANCH  26  27
ATOM     27  C   UNL     1       0.991   5.064  20.686  0.00  0.00    +0.000 C 
BRANCH  27  28
ATOM     28  C   UNL     1       1.259   3.571  20.914  0.00  0.00    +0.000 C 
BRANCH  28  29
ATOM     29  C   UNL     1       2.145   2.966  19.856  0.00  0.00    +0.000 A 
ATOM     30  C   UNL     1       1.708   2.843  18.529  0.00  0.00    +0.000 A 
ATOM     31  C   UNL     1       2.492   2.184  17.592  0.00  0.00    +0.000 A 
ATOM     32  C   UNL     1       3.739   1.673  17.954  0.00  0.00    +0.000 A 
ATOM     33  C   UNL     1       4.211   1.849  19.253  0.00  0.00    +0.000 A 
ATOM     34  C   UNL     1       3.421   2.500  20.199  0.00  0.00    +0.000 A 
ENDBRANCH  28  29
ENDBRANCH  27  28
ENDBRANCH  26  27
ENDBRANCH   6  26
TORSDOF 15
ENDMDL
MODEL 8
REMARK VINA RESULT:      -7.3      4.491      7.691
REMARK  Name = 
REMARK  16 active torsions:
REMARK  status: ('A' for Active; 'I' for Inactive)
REMARK    1  A    between atoms: C_1  and  C_2
REMARK    2  A    between atoms: C_2  and  C_3
REMARK    3  A    between atoms: C_3  and  C_4
REMARK    4  A    between atoms: C_4  and  C_5
REMARK    5  A    between atoms: C_5  and  C_6
REMARK    6  A    between atoms: C_5  and  C_31
REMARK    7  A    between atoms: C_6  and  C_7
REMARK    8  A    between atoms: C_11  and  O_12
REMARK    9  A    between atoms: O_12  and  C_13
REMARK   10  A    between atoms: C_13  and  C_14
REMARK   11  A    between atoms: C_14  and  C_15
REMARK   12  A    between atoms: C_21  and  O_22
REMARK   13  A    between atoms: O_22  and  C_23
REMARK   14  A    between atoms: C_23  and  C_24
REMARK   15  A    between atoms: C_24  and  C_25
REMARK   16  A    between atoms: C_31  and  O_33
REMARK                            x       y       z     vdW  Elec       q    Type
REMARK                         _______ _______ _______ _____ _____    ______ ____
ROOT
ATOM      1  C   UNL     1       5.441   5.500  18.773  0.00  0.00    +0.000 A 
ATOM      2  C   UNL     1       6.405   4.983  19.664  0.00  0.00    +0.000 A 
ATOM      3  C   UNL     1       7.699   5.469  19.703  0.00  0.00    +0.000 A 
ATOM      4  C   UNL     1       8.063   6.484  18.841  0.00  0.00    +0.000 A 
ATOM      5  C   UNL     1       7.173   6.964  17.872  0.00  0.00    +0.000 A 
ATOM      6  C   UNL     1       5.832   6.487  17.831  0.00  0.00    +0.000 A 
ENDROOT
BRANCH   1   7
ATOM      7  C   UNL     1       4.011   5.039  18.993  0.00  0.00    +0.000 C 
BRANCH   7   8
ATOM      8  C   UNL     1       3.444   3.903  18.122  0.00  0.00    +0.000 C 
BRANCH   8   9
ATOM      9  C   UNL     1       3.882   2.534  18.626  0.00  0.00    +0.000 C 
ATOM     10  O   UNL     1       3.965   1.535  17.924  0.00  0.00    +0.000 OA
BRANCH   9  11
ATOM     11  O   UNL     1       4.295   2.510  19.915  0.00  0.00    +0.000 OA
ATOM     12  H   UNL     1       3.595   2.346  20.571  0.00  0.00    +0.000 HD
ENDBRANCH   9  11
ENDBRANCH   8   9
BRANCH   8  13
ATOM     13  C   UNL     1       1.908   3.922  17.889  0.00  0.00    +0.000 C 
BRANCH  13  14
ATOM     14  C   UNL     1       1.078   3.025  18.825  0.00  0.00    +0.000 C 
BRANCH  14  16
ATOM     15  C   UNL     1       1.227   2.879  21.351  0.00  0.00    +0.000 C 
ATOM     16  C   UNL     1       0.796   3.725  20.161  0.00  0.00    +0.000 C 
ENDBRANCH  14  16
ENDBRANCH  13  14
ENDBRANCH   8  13
ENDBRANCH   7   8
ENDBRANCH   1   7
BRANCH   5  17
ATOM     17  O   UNL     1       7.579   7.968  17.034  0.00  0.00    +0.000 OA
BRANCH  17  18
ATOM     18  C   UNL     1       8.603   8.845  17.510  0.00  0.00    +0.000 C 
BRANCH  18  19
ATOM     19  C   UNL     1       7.986  10.210  17.814  0.00  0.00    +0.000 C 
BRANCH  19  20
ATOM     20  C   UNL     1       9.030  11.181  18.295  0.00  0.00    +0.000 A 
ATOM     21  C   UNL     1       9.949  10.800  19.281  0.00  0.00    +0.000 A 
ATOM     22  C   UNL     1      10.875  11.721  19.772  0.00  0.00    +0.000 A 
ATOM     23  C   UNL     1      10.887  13.026  19.284  0.00  0.00    +0.000 A 
ATOM     24  C   UNL     1       9.979  13.413  18.301  0.00  0.00    +0.000 A 
ATOM     25  C   UNL     1       9.053  12.494  17.808  0.00  0.00    +0.000 A 
ENDBRANCH  19  20
ENDBRANCH  18  19
ENDBRANCH  17  18
ENDBRANCH   5  17
BRANCH   6  26
ATOM     26  O   UNL     1       4.844   6.913  16.955  0.00  0.00    +0.000 OA
BRANCH  26  27
ATOM     27  C   UNL     1       4.908   6.414  15.607  0.00  0.00    +0.000 C 
BRANCH  27  28
ATOM     28  C   UNL     1       5.300   4.935  15.505  0.00  0.00    +0.000 C 
BRANCH  28  29
ATOM     29  C   UNL     1       6.054   4.613  14.241  0.00  0.00    +0.000 A 
ATOM     30  C   UNL     1       7.237   5.293  13.911  0.00  0.00    +0.000 A 
ATOM     31  C   UNL     1       7.858   5.063  12.690  0.00  0.00    +0.000 A 
ATOM     32  C   UNL     1       7.332   4.127  11.800  0.00  0.00    +0.000 A 
ATOM     33  C   UNL     1       6.195   3.400  12.147  0.00  0.00    +0.000 A 
ATOM     34  C   UNL     1       5.563   3.637  13.366  0.00  0.00    +0.000 A 
ENDBRANCH  28  29
ENDBRANCH  27  28
ENDBRANCH  26  27
ENDBRANCH   6  26
TORSDOF 15
ENDMDL
MODEL 9
REMARK VINA RESULT:      -7.3      1.677      7.318
REMARK  Name = 
REMARK  16 active torsions:
REMARK  status: ('A' for Active; 'I' for Inactive)
REMARK    1  A    between atoms: C_1  and  C_2
REMARK    2  A    between atoms: C_2  and  C_3
REMARK    3  A    between atoms: C_3  and  C_4
REMARK    4  A    between atoms: C_4  and  C_5
REMARK    5  A    between atoms: C_5  and  C_6
REMARK    6  A    between atoms: C_5  and  C_31
REMARK    7  A    between atoms: C_6  and  C_7
REMARK    8  A    between atoms: C_11  and  O_12
REMARK    9  A    between atoms: O_12  and  C_13
REMARK   10  A    between atoms: C_13  and  C_14
REMARK   11  A    between atoms: C_14  and  C_15
REMARK   12  A    between atoms: C_21  and  O_22
REMARK   13  A    between atoms: O_22  and  C_23
REMARK   14  A    between atoms: C_23  and  C_24
REMARK   15  A    between atoms: C_24  and  C_25
REMARK   16  A    between atoms: C_31  and  O_33
REMARK                            x       y       z     vdW  Elec       q    Type
REMARK                         _______ _______ _______ _____ _____    ______ ____
ROOT
ATOM      1  C   UNL     1       1.449   8.178  20.135  0.00  0.00    +0.000 A 
ATOM      2  C   UNL     1       1.517   9.195  19.160  0.00  0.00    +0.000 A 
ATOM      3  C   UNL     1       2.159   9.004  17.950  0.00  0.00    +0.000 A 
ATOM      4  C   UNL     1       2.758   7.788  17.689  0.00  0.00    +0.000 A 
ATOM      5  C   UNL     1       2.801   6.781  18.662  0.00  0.00    +0.000 A 
ATOM      6  C   UNL     1       2.130   6.954  19.905  0.00  0.00    +0.000 A 
ENDROOT
BRANCH   1   7
ATOM      7  C   UNL     1       0.524   8.440  21.311  0.00  0.00    +0.000 C 
BRANCH   7   8
ATOM      8  C   UNL     1      -0.098   9.837  21.483  0.00  0.00    +0.000 C 
BRANCH   8   9
ATOM      9  C   UNL     1      -0.421  10.135  22.942  0.00  0.00    +0.000 C 
ATOM     10  O   UNL     1       0.192   9.667  23.893  0.00  0.00    +0.000 OA
BRANCH   9  11
ATOM     11  O   UNL     1      -1.386  11.065  23.131  0.00  0.00    +0.000 OA
ATOM     12  H   UNL     1      -2.178  10.750  23.600  0.00  0.00    +0.000 HD
ENDBRANCH   9  11
ENDBRANCH   8   9
BRANCH   8  13
ATOM     13  C   UNL     1       0.692  11.020  20.858  0.00  0.00    +0.000 C 
BRANCH  13  14
ATOM     14  C   UNL     1      -0.149  12.056  20.092  0.00  0.00    +0.000 C 
BRANCH  14  16
ATOM     15  C   UNL     1      -1.384  10.968  18.165  0.00  0.00    +0.000 C 
ATOM     16  C   UNL     1      -1.472  11.450  19.606  0.00  0.00    +0.000 C 
ENDBRANCH  14  16
ENDBRANCH  13  14
ENDBRANCH   8  13
ENDBRANCH   7   8
ENDBRANCH   1   7
BRANCH   5  17
ATOM     17  O   UNL     1       3.410   5.592  18.361  0.00  0.00    +0.000 OA
BRANCH  17  18
ATOM     18  C   UNL     1       3.888   5.420  17.025  0.00  0.00    +0.000 C 
BRANCH  18  19
ATOM     19  C   UNL     1       5.235   4.696  17.068  0.00  0.00    +0.000 C 
BRANCH  19  20
ATOM     20  C   UNL     1       6.323   5.610  17.563  0.00  0.00    +0.000 A 
ATOM     21  C   UNL     1       7.122   5.233  18.651  0.00  0.00    +0.000 A 
ATOM     22  C   UNL     1       8.088   6.109  19.149  0.00  0.00    +0.000 A 
ATOM     23  C   UNL     1       8.259   7.363  18.569  0.00  0.00    +0.000 A 
ATOM     24  C   UNL     1       7.471   7.745  17.485  0.00  0.00    +0.000 A 
ATOM     25  C   UNL     1       6.506   6.872  16.984  0.00  0.00    +0.000 A 
ENDBRANCH  19  20
ENDBRANCH  18  19
ENDBRANCH  17  18
ENDBRANCH   5  17
BRANCH   6  26
ATOM     26  O   UNL     1       2.059   6.020  20.928  0.00  0.00    +0.000 OA
BRANCH  26  27
ATOM     27  C   UNL     1       1.109   4.952  20.772  0.00  0.00    +0.000 C 
BRANCH  27  28
ATOM     28  C   UNL     1       1.623   3.585  21.243  0.00  0.00    +0.000 C 
BRANCH  28  29
ATOM     29  C   UNL     1       2.344   2.824  20.160  0.00  0.00    +0.000 A 
ATOM     30  C   UNL     1       3.680   2.427  20.321  0.00  0.00    +0.000 A 
ATOM     31  C   UNL     1       4.362   1.825  19.272  0.00  0.00    +0.000 A 
ATOM     32  C   UNL     1       3.712   1.577  18.063  0.00  0.00    +0.000 A 
ATOM     33  C   UNL     1       2.366   1.909  17.915  0.00  0.00    +0.000 A 
ATOM     34  C   UNL     1       1.683   2.523  18.963  0.00  0.00    +0.000 A 
ENDBRANCH  28  29
ENDBRANCH  27  28
ENDBRANCH  26  27
ENDBRANCH   6  26
TORSDOF 15
ENDMDL
