MODEL 1
REMARK VINA RESULT:      -8.4      0.000      0.000
REMARK  Name = 
REMARK  14 active torsions:
REMARK  status: ('A' for Active; 'I' for Inactive)
REMARK    1  A    between atoms: C_2  and  O_3
REMARK    2  A    between atoms: C_2  and  C_27
REMARK    3  A    between atoms: O_3  and  C_4
REMARK    4  A    between atoms: C_4  and  C_5
REMARK    5  A    between atoms: C_7  and  O_8
REMARK    6  A    between atoms: O_8  and  C_9
REMARK    7  A    between atoms: C_12  and  O_13
REMARK    8  A    between atoms: C_18  and  O_19
REMARK    9  A    between atoms: C_21  and  O_22
REMARK   10  A    between atoms: C_23  and  O_24
REMARK   11  A    between atoms: C_25  and  O_26
REMARK   12  A    between atoms: C_29  and  O_30
REMARK   13  A    between atoms: C_31  and  O_32
REMARK   14  A    between atoms: C_33  and  O_34
REMARK                            x       y       z     vdW  Elec       q    Type
REMARK                         _______ _______ _______ _____ _____    ______ ____
ROOT
ATOM      1  C   UNL     1       1.019   9.875  20.105  0.00  0.00    +0.000 C 
ATOM      2  O   UNL     1      -0.004  10.825  19.777  0.00  0.00    +0.000 OA
ATOM      3  C   UNL     1      -0.286  11.767  20.820  0.00  0.00    +0.000 C 
ATOM      4  C   UNL     1      -0.760  11.037  22.102  0.00  0.00    +0.000 C 
ATOM      5  C   UNL     1       0.237   9.931  22.482  0.00  0.00    +0.000 C 
ATOM      6  C   UNL     1       0.556   9.014  21.289  0.00  0.00    +0.000 C 
ENDROOT
BRANCH   4   7
ATOM      7  O   UNL     1      -0.918  11.936  23.215  0.00  0.00    +0.000 OA
ATOM      8  H   UNL     1      -0.051  12.307  23.449  0.00  0.00    +0.000 HD
ENDBRANCH   4   7
BRANCH   5   9
ATOM      9  O   UNL     1      -0.237   9.148  23.586  0.00  0.00    +0.000 OA
ATOM     10  H   UNL     1       0.024   8.221  23.439  0.00  0.00    +0.000 HD
ENDBRANCH   5   9
BRANCH   6  11
ATOM     11  O   UNL     1       1.547   8.050  21.650  0.00  0.00    +0.000 OA
ATOM     12  H   UNL     1       1.552   7.945  22.617  0.00  0.00    +0.000 HD
ENDBRANCH   6  11
BRANCH   1  13
ATOM     13  C   UNL     1       1.319   9.047  18.838  0.00  0.00    +0.000 C 
BRANCH  13  14
ATOM     14  O   UNL     1       2.150   7.894  19.054  0.00  0.00    +0.000 OA
BRANCH  14  16
ATOM     15  O   UNL     1       3.243   8.143  17.056  0.00  0.00    +0.000 OA
ATOM     16  C   UNL     1       2.869   7.455  17.995  0.00  0.00    +0.000 C 
BRANCH  16  17
ATOM     17  C   UNL     1       3.154   5.995  18.100  0.00  0.00    +0.000 A 
ATOM     18  C   UNL     1       4.470   5.599  18.417  0.00  0.00    +0.000 A 
ATOM     19  C   UNL     1       4.778   4.246  18.526  0.00  0.00    +0.000 A 
ATOM     20  C   UNL     1       3.789   3.287  18.341  0.00  0.00    +0.000 A 
ATOM     21  C   UNL     1       2.490   3.675  18.041  0.00  0.00    +0.000 A 
ATOM     22  C   UNL     1       2.159   5.019  17.915  0.00  0.00    +0.000 A 
BRANCH  19  23
ATOM     23  O   UNL     1       6.038   3.806  18.815  0.00  0.00    +0.000 OA
ATOM     24  H   UNL     1       5.978   2.910  19.189  0.00  0.00    +0.000 HD
ENDBRANCH  19  23
BRANCH  20  25
ATOM     25  O   UNL     1       4.079   1.956  18.450  0.00  0.00    +0.000 OA
ATOM     26  H   UNL     1       3.211   1.509  18.369  0.00  0.00    +0.000 HD
ENDBRANCH  20  25
BRANCH  21  27
ATOM     27  O   UNL     1       1.522   2.728  17.871  0.00  0.00    +0.000 OA
ATOM     28  H   UNL     1       0.758   3.215  17.493  0.00  0.00    +0.000 HD
ENDBRANCH  21  27
ENDBRANCH  16  17
ENDBRANCH  14  16
ENDBRANCH  13  14
ENDBRANCH   1  13
BRANCH   3  29
ATOM     29  O   UNL     1      -1.329  12.668  20.433  0.00  0.00    +0.000 OA
BRANCH  29  30
ATOM     30  C   UNL     1      -2.247  12.296  19.482  0.00  0.00    +0.000 A 
ATOM     31  C   UNL     1      -1.872  11.863  18.204  0.00  0.00    +0.000 A 
ATOM     32  C   UNL     1      -2.830  11.462  17.278  0.00  0.00    +0.000 A 
ATOM     33  C   UNL     1      -4.173  11.491  17.629  0.00  0.00    +0.000 A 
ATOM     34  C   UNL     1      -4.599  11.923  18.899  0.00  0.00    +0.000 A 
ATOM     35  C   UNL     1      -5.968  11.932  19.231  0.00  0.00    +0.000 A 
ATOM     36  C   UNL     1      -6.422  12.353  20.479  0.00  0.00    +0.000 A 
ATOM     37  C   UNL     1      -5.506  12.794  21.419  0.00  0.00    +0.000 A 
ATOM     38  C   UNL     1      -4.141  12.803  21.110  0.00  0.00    +0.000 A 
ATOM     39  C   UNL     1      -3.633  12.353  19.855  0.00  0.00    +0.000 A 
BRANCH  33  40
ATOM     40  O   UNL     1      -5.106  11.086  16.707  0.00  0.00    +0.000 OA
ATOM     41  H   UNL     1      -5.461  11.868  16.253  0.00  0.00    +0.000 HD
ENDBRANCH  33  40
BRANCH  38  42
ATOM     42  O   UNL     1      -3.281  13.281  22.069  0.00  0.00    +0.000 OA
ATOM     43  H   UNL     1      -2.940  12.540  22.593  0.00  0.00    +0.000 HD
ENDBRANCH  38  42
ENDBRANCH  29  30
ENDBRANCH   3  29
TORSDOF 14
ENDMDL
MODEL 2
REMARK VINA RESULT:      -8.4      4.177      7.706
REMARK  Name = 
REMARK  14 active torsions:
REMARK  status: ('A' for Active; 'I' for Inactive)
REMARK    1  A    between atoms: C_2  and  O_3
REMARK    2  A    between atoms: C_2  and  C_27
REMARK    3  A    between atoms: O_3  and  C_4
REMARK    4  A    between atoms: C_4  and  C_5
REMARK    5  A    between atoms: C_7  and  O_8
REMARK    6  A    between atoms: O_8  and  C_9
REMARK    7  A    between atoms: C_12  and  O_13
REMARK    8  A    between atoms: C_18  and  O_19
REMARK    9  A    between atoms: C_21  and  O_22
REMARK   10  A    between atoms: C_23  and  O_24
REMARK   11  A    between atoms: C_25  and  O_26
REMARK   12  A    between atoms: C_29  and  O_30
REMARK   13  A    between atoms: C_31  and  O_32
REMARK   14  A    between atoms: C_33  and  O_34
REMARK                            x       y       z     vdW  Elec       q    Type
REMARK                         _______ _______ _______ _____ _____    ______ ____
ROOT
ATOM      1  C   UNL     1       5.883   6.254  18.036  0.00  0.00    +0.000 C 
ATOM      2  O   UNL     1       4.511   6.656  17.929  0.00  0.00    +0.000 OA
ATOM      3  C   UNL     1       3.704   6.291  19.055  0.00  0.00    +0.000 C 
ATOM      4  C   UNL     1       3.696   4.753  19.246  0.00  0.00    +0.000 C 
ATOM      5  C   UNL     1       5.135   4.216  19.283  0.00  0.00    +0.000 C 
ATOM      6  C   UNL     1       5.964   4.721  18.089  0.00  0.00    +0.000 C 
ENDROOT
BRANCH   4   7
ATOM      7  O   UNL     1       3.012   4.357  20.449  0.00  0.00    +0.000 OA
ATOM      8  H   UNL     1       3.178   3.413  20.613  0.00  0.00    +0.000 HD
ENDBRANCH   4   7
BRANCH   5   9
ATOM      9  O   UNL     1       5.164   2.783  19.325  0.00  0.00    +0.000 OA
ATOM     10  H   UNL     1       5.982   2.480  18.892  0.00  0.00    +0.000 HD
ENDBRANCH   5   9
BRANCH   6  11
ATOM     11  O   UNL     1       7.318   4.275  18.195  0.00  0.00    +0.000 OA
ATOM     12  H   UNL     1       7.324   3.315  18.348  0.00  0.00    +0.000 HD
ENDBRANCH   6  11
BRANCH   1  13
ATOM     13  C   UNL     1       6.648   6.857  16.839  0.00  0.00    +0.000 C 
BRANCH  13  14
ATOM     14  O   UNL     1       7.243   8.141  17.088  0.00  0.00    +0.000 OA
BRANCH  14  16
ATOM     15  O   UNL     1       8.532   7.267  18.769  0.00  0.00    +0.000 OA
ATOM     16  C   UNL     1       8.117   8.216  18.119  0.00  0.00    +0.000 C 
BRANCH  16  17
ATOM     17  C   UNL     1       8.521   9.626  18.387  0.00  0.00    +0.000 A 
ATOM     18  C   UNL     1       9.290   9.887  19.540  0.00  0.00    +0.000 A 
ATOM     19  C   UNL     1       9.689  11.190  19.824  0.00  0.00    +0.000 A 
ATOM     20  C   UNL     1       9.348  12.229  18.968  0.00  0.00    +0.000 A 
ATOM     21  C   UNL     1       8.602  11.972  17.824  0.00  0.00    +0.000 A 
ATOM     22  C   UNL     1       8.180  10.682  17.524  0.00  0.00    +0.000 A 
BRANCH  19  23
ATOM     23  O   UNL     1      10.420  11.501  20.936  0.00  0.00    +0.000 OA
ATOM     24  H   UNL     1      11.353  11.280  20.768  0.00  0.00    +0.000 HD
ENDBRANCH  19  23
BRANCH  20  25
ATOM     25  O   UNL     1       9.739  13.511  19.235  0.00  0.00    +0.000 OA
ATOM     26  H   UNL     1       9.887  13.524  20.204  0.00  0.00    +0.000 HD
ENDBRANCH  20  25
BRANCH  21  27
ATOM     27  O   UNL     1       8.280  12.996  16.981  0.00  0.00    +0.000 OA
ATOM     28  H   UNL     1       7.414  12.741  16.596  0.00  0.00    +0.000 HD
ENDBRANCH  21  27
ENDBRANCH  16  17
ENDBRANCH  14  16
ENDBRANCH  13  14
ENDBRANCH   1  13
BRANCH   3  29
ATOM     29  O   UNL     1       2.344   6.703  18.870  0.00  0.00    +0.000 OA
BRANCH  29  30
ATOM     30  C   UNL     1       2.033   8.037  18.779  0.00  0.00    +0.000 A 
ATOM     31  C   UNL     1       2.299   8.795  17.632  0.00  0.00    +0.000 A 
ATOM     32  C   UNL     1       1.939  10.137  17.564  0.00  0.00    +0.000 A 
ATOM     33  C   UNL     1       1.306  10.729  18.649  0.00  0.00    +0.000 A 
ATOM     34  C   UNL     1       1.022  10.011  19.826  0.00  0.00    +0.000 A 
ATOM     35  C   UNL     1       0.370  10.635  20.908  0.00  0.00    +0.000 A 
ATOM     36  C   UNL     1       0.074   9.951  22.084  0.00  0.00    +0.000 A 
ATOM     37  C   UNL     1       0.447   8.624  22.208  0.00  0.00    +0.000 A 
ATOM     38  C   UNL     1       1.104   7.983  21.152  0.00  0.00    +0.000 A 
ATOM     39  C   UNL     1       1.399   8.639  19.919  0.00  0.00    +0.000 A 
BRANCH  33  40
ATOM     40  O   UNL     1       0.950  12.052  18.565  0.00  0.00    +0.000 OA
ATOM     41  H   UNL     1       1.746  12.582  18.393  0.00  0.00    +0.000 HD
ENDBRANCH  33  40
BRANCH  38  42
ATOM     42  O   UNL     1       1.479   6.675  21.342  0.00  0.00    +0.000 OA
ATOM     43  H   UNL     1       0.725   6.172  21.685  0.00  0.00    +0.000 HD
ENDBRANCH  38  42
ENDBRANCH  29  30
ENDBRANCH   3  29
TORSDOF 14
ENDMDL
MODEL 3
REMARK VINA RESULT:      -8.4      0.056      1.398
REMARK  Name = 
REMARK  14 active torsions:
REMARK  status: ('A' for Active; 'I' for Inactive)
REMARK    1  A    between atoms: C_2  and  O_3
REMARK    2  A    between atoms: C_2  and  C_27
REMARK    3  A    between atoms: O_3  and  C_4
REMARK    4  A    between atoms: C_4  and  C_5
REMARK    5  A    between atoms: C_7  and  O_8
REMARK    6  A    between atoms: O_8  and  C_9
REMARK    7  A    between atoms: C_12  and  O_13
REMARK    8  A    between atoms: C_18  and  O_19
REMARK    9  A    between atoms: C_21  and  O_22
REMARK   10  A    between atoms: C_23  and  O_24
REMARK   11  A    between atoms: C_25  and  O_26
REMARK   12  A    between atoms: C_29  and  O_30
REMARK   13  A    between atoms: C_31  and  O_32
REMARK   14  A    between atoms: C_33  and  O_34
REMARK                            x       y       z     vdW  Elec       q    Type
REMARK                         _______ _______ _______ _____ _____    ______ ____
ROOT
ATOM      1  C   UNL     1       1.054   9.891  20.085  0.00  0.00    +0.000 C 
ATOM      2  O   UNL     1       0.040  10.849  19.753  0.00  0.00    +0.000 OA
ATOM      3  C   UNL     1      -0.263  11.771  20.808  0.00  0.00    +0.000 C 
ATOM      4  C   UNL     1      -0.766  11.017  22.066  0.00  0.00    +0.000 C 
ATOM      5  C   UNL     1       0.222   9.902  22.445  0.00  0.00    +0.000 C 
ATOM      6  C   UNL     1       0.565   9.008  21.242  0.00  0.00    +0.000 C 
ENDROOT
BRANCH   4   7
ATOM      7  O   UNL     1      -0.946  11.895  23.191  0.00  0.00    +0.000 OA
ATOM      8  H   UNL     1      -0.334  11.633  23.900  0.00  0.00    +0.000 HD
ENDBRANCH   4   7
BRANCH   5   9
ATOM      9  O   UNL     1      -0.277   9.100  23.523  0.00  0.00    +0.000 OA
ATOM     10  H   UNL     1      -0.453   9.683  24.284  0.00  0.00    +0.000 HD
ENDBRANCH   5   9
BRANCH   6  11
ATOM     11  O   UNL     1       1.547   8.035  21.605  0.00  0.00    +0.000 OA
ATOM     12  H   UNL     1       2.303   8.486  22.019  0.00  0.00    +0.000 HD
ENDBRANCH   6  11
BRANCH   1  13
ATOM     13  C   UNL     1       1.380   9.086  18.809  0.00  0.00    +0.000 C 
BRANCH  13  14
ATOM     14  O   UNL     1       2.145   7.890  19.030  0.00  0.00    +0.000 OA
BRANCH  14  16
ATOM     15  O   UNL     1       3.256   8.122  17.039  0.00  0.00    +0.000 OA
ATOM     16  C   UNL     1       2.895   7.447  17.994  0.00  0.00    +0.000 C 
BRANCH  16  17
ATOM     17  C   UNL     1       3.237   6.004  18.148  0.00  0.00    +0.000 A 
ATOM     18  C   UNL     1       2.211   5.056  17.950  0.00  0.00    +0.000 A 
ATOM     19  C   UNL     1       2.489   3.699  18.082  0.00  0.00    +0.000 A 
ATOM     20  C   UNL     1       3.776   3.276  18.391  0.00  0.00    +0.000 A 
ATOM     21  C   UNL     1       4.791   4.206  18.573  0.00  0.00    +0.000 A 
ATOM     22  C   UNL     1       4.537   5.568  18.459  0.00  0.00    +0.000 A 
BRANCH  19  23
ATOM     23  O   UNL     1       1.531   2.739  17.918  0.00  0.00    +0.000 OA
ATOM     24  H   UNL     1       0.716   3.164  17.599  0.00  0.00    +0.000 HD
ENDBRANCH  19  23
BRANCH  20  25
ATOM     25  O   UNL     1       4.061   1.945  18.519  0.00  0.00    +0.000 OA
ATOM     26  H   UNL     1       5.031   1.889  18.388  0.00  0.00    +0.000 HD
ENDBRANCH  20  25
BRANCH  21  27
ATOM     27  O   UNL     1       6.055   3.783  18.865  0.00  0.00    +0.000 OA
ATOM     28  H   UNL     1       6.499   4.567  19.252  0.00  0.00    +0.000 HD
ENDBRANCH  21  27
ENDBRANCH  16  17
ENDBRANCH  14  16
ENDBRANCH  13  14
ENDBRANCH   1  13
BRANCH   3  29
ATOM     29  O   UNL     1      -1.297  12.681  20.416  0.00  0.00    +0.000 OA
BRANCH  29  30
ATOM     30  C   UNL     1      -2.226  12.309  19.476  0.00  0.00    +0.000 A 
ATOM     31  C   UNL     1      -1.866  11.860  18.200  0.00  0.00    +0.000 A 
ATOM     32  C   UNL     1      -2.835  11.460  17.286  0.00  0.00    +0.000 A 
ATOM     33  C   UNL     1      -4.175  11.507  17.647  0.00  0.00    +0.000 A 
ATOM     34  C   UNL     1      -4.587  11.956  18.916  0.00  0.00    +0.000 A 
ATOM     35  C   UNL     1      -5.953  11.983  19.259  0.00  0.00    +0.000 A 
ATOM     36  C   UNL     1      -6.392  12.421  20.506  0.00  0.00    +0.000 A 
ATOM     37  C   UNL     1      -5.463  12.862  21.434  0.00  0.00    +0.000 A 
ATOM     38  C   UNL     1      -4.101  12.853  21.115  0.00  0.00    +0.000 A 
ATOM     39  C   UNL     1      -3.608  12.385  19.860  0.00  0.00    +0.000 A 
BRANCH  33  40
ATOM     40  O   UNL     1      -5.120  11.102  16.736  0.00  0.00    +0.000 OA
ATOM     41  H   UNL     1      -5.907  11.664  16.828  0.00  0.00    +0.000 HD
ENDBRANCH  33  40
BRANCH  38  42
ATOM     42  O   UNL     1      -3.228  13.332  22.061  0.00  0.00    +0.000 OA
ATOM     43  H   UNL     1      -3.704  13.915  22.672  0.00  0.00    +0.000 HD
ENDBRANCH  38  42
ENDBRANCH  29  30
ENDBRANCH   3  29
TORSDOF 14
ENDMDL
MODEL 4
REMARK VINA RESULT:      -8.2      1.537      2.111
REMARK  Name = 
REMARK  14 active torsions:
REMARK  status: ('A' for Active; 'I' for Inactive)
REMARK    1  A    between atoms: C_2  and  O_3
REMARK    2  A    between atoms: C_2  and  C_27
REMARK    3  A    between atoms: O_3  and  C_4
REMARK    4  A    between atoms: C_4  and  C_5
REMARK    5  A    between atoms: C_7  and  O_8
REMARK    6  A    between atoms: O_8  and  C_9
REMARK    7  A    between atoms: C_12  and  O_13
REMARK    8  A    between atoms: C_18  and  O_19
REMARK    9  A    between atoms: C_21  and  O_22
REMARK   10  A    between atoms: C_23  and  O_24
REMARK   11  A    between atoms: C_25  and  O_26
REMARK   12  A    between atoms: C_29  and  O_30
REMARK   13  A    between atoms: C_31  and  O_32
REMARK   14  A    between atoms: C_33  and  O_34
REMARK                            x       y       z     vdW  Elec       q    Type
REMARK                         _______ _______ _______ _____ _____    ______ ____
ROOT
ATOM      1  C   UNL     1       1.630   9.227  19.114  0.00  0.00    +0.000 C 
ATOM      2  O   UNL     1       0.712  10.263  18.737  0.00  0.00    +0.000 OA
ATOM      3  C   UNL     1       0.600  11.324  19.694  0.00  0.00    +0.000 C 
ATOM      4  C   UNL     1       0.110  10.780  21.059  0.00  0.00    +0.000 C 
ATOM      5  C   UNL     1       0.986   9.599  21.505  0.00  0.00    +0.000 C 
ATOM      6  C   UNL     1       1.130   8.543  20.395  0.00  0.00    +0.000 C 
ENDROOT
BRANCH   4   7
ATOM      7  O   UNL     1       0.119  11.790  22.084  0.00  0.00    +0.000 OA
ATOM      8  H   UNL     1       0.931  11.701  22.611  0.00  0.00    +0.000 HD
ENDBRANCH   4   7
BRANCH   5   9
ATOM      9  O   UNL     1       0.480   8.986  22.698  0.00  0.00    +0.000 OA
ATOM     10  H   UNL     1      -0.492   9.057  22.691  0.00  0.00    +0.000 HD
ENDBRANCH   5   9
BRANCH   6  11
ATOM     11  O   UNL     1       2.016   7.500  20.808  0.00  0.00    +0.000 OA
ATOM     12  H   UNL     1       2.933   7.808  20.716  0.00  0.00    +0.000 HD
ENDBRANCH   6  11
BRANCH   1  13
ATOM     13  C   UNL     1       1.762   8.254  17.924  0.00  0.00    +0.000 C 
BRANCH  13  14
ATOM     14  O   UNL     1       3.031   7.586  17.829  0.00  0.00    +0.000 OA
BRANCH  14  16
ATOM     15  O   UNL     1       2.051   5.574  18.319  0.00  0.00    +0.000 OA
ATOM     16  C   UNL     1       3.032   6.250  18.042  0.00  0.00    +0.000 C 
BRANCH  16  17
ATOM     17  C   UNL     1       4.403   5.679  17.905  0.00  0.00    +0.000 A 
ATOM     18  C   UNL     1       5.255   5.727  19.029  0.00  0.00    +0.000 A 
ATOM     19  C   UNL     1       6.541   5.203  18.943  0.00  0.00    +0.000 A 
ATOM     20  C   UNL     1       6.981   4.619  17.761  0.00  0.00    +0.000 A 
ATOM     21  C   UNL     1       6.139   4.558  16.658  0.00  0.00    +0.000 A 
ATOM     22  C   UNL     1       4.854   5.085  16.714  0.00  0.00    +0.000 A 
BRANCH  19  23
ATOM     23  O   UNL     1       7.414   5.238  19.993  0.00  0.00    +0.000 OA
ATOM     24  H   UNL     1       7.749   6.147  20.091  0.00  0.00    +0.000 HD
ENDBRANCH  19  23
BRANCH  20  25
ATOM     25  O   UNL     1       8.241   4.098  17.668  0.00  0.00    +0.000 OA
ATOM     26  H   UNL     1       8.100   3.134  17.562  0.00  0.00    +0.000 HD
ENDBRANCH  20  25
BRANCH  21  27
ATOM     27  O   UNL     1       6.574   3.973  15.505  0.00  0.00    +0.000 OA
ATOM     28  H   UNL     1       7.318   3.394  15.782  0.00  0.00    +0.000 HD
ENDBRANCH  21  27
ENDBRANCH  16  17
ENDBRANCH  14  16
ENDBRANCH  13  14
ENDBRANCH   1  13
BRANCH   3  29
ATOM     29  O   UNL     1      -0.347  12.308  19.263  0.00  0.00    +0.000 OA
BRANCH  29  30
ATOM     30  C   UNL     1      -1.561  11.922  18.752  0.00  0.00    +0.000 A 
ATOM     31  C   UNL     1      -1.676  11.089  17.633  0.00  0.00    +0.000 A 
ATOM     32  C   UNL     1      -2.924  10.693  17.164  0.00  0.00    +0.000 A 
ATOM     33  C   UNL     1      -4.069  11.129  17.818  0.00  0.00    +0.000 A 
ATOM     34  C   UNL     1      -4.005  11.972  18.943  0.00  0.00    +0.000 A 
ATOM     35  C   UNL     1      -5.183  12.391  19.593  0.00  0.00    +0.000 A 
ATOM     36  C   UNL     1      -5.153  13.223  20.710  0.00  0.00    +0.000 A 
ATOM     37  C   UNL     1      -3.933  13.671  21.188  0.00  0.00    +0.000 A 
ATOM     38  C   UNL     1      -2.750  13.277  20.555  0.00  0.00    +0.000 A 
ATOM     39  C   UNL     1      -2.735  12.401  19.428  0.00  0.00    +0.000 A 
BRANCH  33  40
ATOM     40  O   UNL     1      -5.294  10.724  17.348  0.00  0.00    +0.000 OA
ATOM     41  H   UNL     1      -5.160  10.133  16.589  0.00  0.00    +0.000 HD
ENDBRANCH  33  40
BRANCH  38  42
ATOM     42  O   UNL     1      -1.571  13.777  21.053  0.00  0.00    +0.000 OA
ATOM     43  H   UNL     1      -1.021  13.045  21.372  0.00  0.00    +0.000 HD
ENDBRANCH  38  42
ENDBRANCH  29  30
ENDBRANCH   3  29
TORSDOF 14
ENDMDL
MODEL 5
REMARK VINA RESULT:      -8.2      1.581      2.306
REMARK  Name = 
REMARK  14 active torsions:
REMARK  status: ('A' for Active; 'I' for Inactive)
REMARK    1  A    between atoms: C_2  and  O_3
REMARK    2  A    between atoms: C_2  and  C_27
REMARK    3  A    between atoms: O_3  and  C_4
REMARK    4  A    between atoms: C_4  and  C_5
REMARK    5  A    between atoms: C_7  and  O_8
REMARK    6  A    between atoms: O_8  and  C_9
REMARK    7  A    between atoms: C_12  and  O_13
REMARK    8  A    between atoms: C_18  and  O_19
REMARK    9  A    between atoms: C_21  and  O_22
REMARK   10  A    between atoms: C_23  and  O_24
REMARK   11  A    between atoms: C_25  and  O_26
REMARK   12  A    between atoms: C_29  and  O_30
REMARK   13  A    between atoms: C_31  and  O_32
REMARK   14  A    between atoms: C_33  and  O_34
REMARK                            x       y       z     vdW  Elec       q    Type
REMARK                         _______ _______ _______ _____ _____    ______ ____
ROOT
ATOM      1  C   UNL     1       1.508   9.542  19.366  0.00  0.00    +0.000 C 
ATOM      2  O   UNL     1       0.547  10.561  19.057  0.00  0.00    +0.000 OA
ATOM      3  C   UNL     1       0.378  11.541  20.090  0.00  0.00    +0.000 C 
ATOM      4  C   UNL     1      -0.099  10.873  21.404  0.00  0.00    +0.000 C 
ATOM      5  C   UNL     1       0.827   9.702  21.770  0.00  0.00    +0.000 C 
ATOM      6  C   UNL     1       1.029   8.741  20.585  0.00  0.00    +0.000 C 
ENDROOT
BRANCH   4   7
ATOM      7  O   UNL     1      -0.144  11.802  22.502  0.00  0.00    +0.000 OA
ATOM      8  H   UNL     1       0.026  12.699  22.167  0.00  0.00    +0.000 HD
ENDBRANCH   4   7
BRANCH   5   9
ATOM      9  O   UNL     1       0.340   8.979  22.908  0.00  0.00    +0.000 OA
ATOM     10  H   UNL     1       1.046   8.949  23.578  0.00  0.00    +0.000 HD
ENDBRANCH   5   9
BRANCH   6  11
ATOM     11  O   UNL     1       1.959   7.712  20.929  0.00  0.00    +0.000 OA
ATOM     12  H   UNL     1       1.593   6.851  20.660  0.00  0.00    +0.000 HD
ENDBRANCH   6  11
BRANCH   1  13
ATOM     13  C   UNL     1       1.695   8.670  18.107  0.00  0.00    +0.000 C 
BRANCH  13  14
ATOM     14  O   UNL     1       2.984   8.046  17.992  0.00  0.00    +0.000 OA
BRANCH  14  16
ATOM     15  O   UNL     1       2.104   5.970  18.399  0.00  0.00    +0.000 OA
ATOM     16  C   UNL     1       3.009   6.693  18.006  0.00  0.00    +0.000 C 
BRANCH  16  17
ATOM     17  C   UNL     1       4.301   6.167  17.479  0.00  0.00    +0.000 A 
ATOM     18  C   UNL     1       4.349   4.819  17.069  0.00  0.00    +0.000 A 
ATOM     19  C   UNL     1       5.536   4.290  16.570  0.00  0.00    +0.000 A 
ATOM     20  C   UNL     1       6.666   5.091  16.459  0.00  0.00    +0.000 A 
ATOM     21  C   UNL     1       6.617   6.423  16.850  0.00  0.00    +0.000 A 
ATOM     22  C   UNL     1       5.448   6.972  17.364  0.00  0.00    +0.000 A 
BRANCH  19  23
ATOM     23  O   UNL     1       5.644   2.987  16.174  0.00  0.00    +0.000 OA
ATOM     24  H   UNL     1       5.851   2.966  15.223  0.00  0.00    +0.000 HD
ENDBRANCH  19  23
BRANCH  20  25
ATOM     25  O   UNL     1       7.836   4.583  15.967  0.00  0.00    +0.000 OA
ATOM     26  H   UNL     1       8.096   5.210  15.260  0.00  0.00    +0.000 HD
ENDBRANCH  20  25
BRANCH  21  27
ATOM     27  O   UNL     1       7.728   7.206  16.729  0.00  0.00    +0.000 OA
ATOM     28  H   UNL     1       7.483   8.057  17.152  0.00  0.00    +0.000 HD
ENDBRANCH  21  27
ENDBRANCH  16  17
ENDBRANCH  14  16
ENDBRANCH  13  14
ENDBRANCH   1  13
BRANCH   3  29
ATOM     29  O   UNL     1      -0.610  12.511  19.723  0.00  0.00    +0.000 OA
BRANCH  29  30
ATOM     30  C   UNL     1      -1.701  12.139  18.977  0.00  0.00    +0.000 A 
ATOM     31  C   UNL     1      -1.585  11.598  17.691  0.00  0.00    +0.000 A 
ATOM     32  C   UNL     1      -2.713  11.202  16.980  0.00  0.00    +0.000 A 
ATOM     33  C   UNL     1      -3.968  11.344  17.556  0.00  0.00    +0.000 A 
ATOM     34  C   UNL     1      -4.137  11.887  18.844  0.00  0.00    +0.000 A 
ATOM     35  C   UNL     1      -5.422  12.011  19.407  0.00  0.00    +0.000 A 
ATOM     36  C   UNL     1      -5.622  12.543  20.679  0.00  0.00    +0.000 A 
ATOM     37  C   UNL     1      -4.530  12.983  21.408  0.00  0.00    +0.000 A 
ATOM     38  C   UNL     1      -3.244  12.880  20.867  0.00  0.00    +0.000 A 
ATOM     39  C   UNL     1      -2.994  12.314  19.581  0.00  0.00    +0.000 A 
BRANCH  33  40
ATOM     40  O   UNL     1      -5.071  10.942  16.844  0.00  0.00    +0.000 OA
ATOM     41  H   UNL     1      -4.967  11.219  15.919  0.00  0.00    +0.000 HD
ENDBRANCH  33  40
BRANCH  38  42
ATOM     42  O   UNL     1      -2.201  13.362  21.621  0.00  0.00    +0.000 OA
ATOM     43  H   UNL     1      -1.419  12.806  21.480  0.00  0.00    +0.000 HD
ENDBRANCH  38  42
ENDBRANCH  29  30
ENDBRANCH   3  29
TORSDOF 14
ENDMDL
MODEL 6
REMARK VINA RESULT:      -8.2      3.264      4.665
REMARK  Name = 
REMARK  14 active torsions:
REMARK  status: ('A' for Active; 'I' for Inactive)
REMARK    1  A    between atoms: C_2  and  O_3
REMARK    2  A    between atoms: C_2  and  C_27
REMARK    3  A    between atoms: O_3  and  C_4
REMARK    4  A    between atoms: C_4  and  C_5
REMARK    5  A    between atoms: C_7  and  O_8
REMARK    6  A    between atoms: O_8  and  C_9
REMARK    7  A    between atoms: C_12  and  O_13
REMARK    8  A    between atoms: C_18  and  O_19
REMARK    9  A    between atoms: C_21  and  O_22
REMARK   10  A    between atoms: C_23  and  O_24
REMARK   11  A    between atoms: C_25  and  O_26
REMARK   12  A    between atoms: C_29  and  O_30
REMARK   13  A    between atoms: C_31  and  O_32
REMARK   14  A    between atoms: C_33  and  O_34
REMARK                            x       y       z     vdW  Elec       q    Type
REMARK                         _______ _______ _______ _____ _____    ______ ____
ROOT
ATOM      1  C   UNL     1       1.946   8.990  19.448  0.00  0.00    +0.000 C 
ATOM      2  O   UNL     1       1.459  10.127  18.722  0.00  0.00    +0.000 OA
ATOM      3  C   UNL     1       1.433  11.342  19.482  0.00  0.00    +0.000 C 
ATOM      4  C   UNL     1       0.518  11.190  20.724  0.00  0.00    +0.000 C 
ATOM      5  C   UNL     1       0.910   9.937  21.522  0.00  0.00    +0.000 C 
ATOM      6  C   UNL     1       1.002   8.692  20.622  0.00  0.00    +0.000 C 
ENDROOT
BRANCH   4   7
ATOM      7  O   UNL     1       0.576  12.340  21.587  0.00  0.00    +0.000 OA
ATOM      8  H   UNL     1       1.302  12.918  21.298  0.00  0.00    +0.000 HD
ENDBRANCH   4   7
BRANCH   5   9
ATOM      9  O   UNL     1       0.000   9.692  22.602  0.00  0.00    +0.000 OA
ATOM     10  H   UNL     1       0.380  10.073  23.415  0.00  0.00    +0.000 HD
ENDBRANCH   5   9
BRANCH   6  11
ATOM     11  O   UNL     1       1.449   7.562  21.375  0.00  0.00    +0.000 OA
ATOM     12  H   UNL     1       0.688   7.163  21.831  0.00  0.00    +0.000 HD
ENDBRANCH   6  11
BRANCH   1  13
ATOM     13  C   UNL     1       2.067   7.813  18.458  0.00  0.00    +0.000 C 
BRANCH  13  14
ATOM     14  O   UNL     1       2.413   6.554  19.059  0.00  0.00    +0.000 OA
BRANCH  14  16
ATOM     15  O   UNL     1       1.717   4.909  17.623  0.00  0.00    +0.000 OA
ATOM     16  C   UNL     1       2.601   5.510  18.218  0.00  0.00    +0.000 C 
BRANCH  16  17
ATOM     17  C   UNL     1       4.046   5.159  18.102  0.00  0.00    +0.000 A 
ATOM     18  C   UNL     1       4.479   4.522  16.920  0.00  0.00    +0.000 A 
ATOM     19  C   UNL     1       5.820   4.180  16.772  0.00  0.00    +0.000 A 
ATOM     20  C   UNL     1       6.733   4.479  17.776  0.00  0.00    +0.000 A 
ATOM     21  C   UNL     1       6.311   5.118  18.934  0.00  0.00    +0.000 A 
ATOM     22  C   UNL     1       4.976   5.459  19.113  0.00  0.00    +0.000 A 
BRANCH  19  23
ATOM     23  O   UNL     1       6.292   3.548  15.657  0.00  0.00    +0.000 OA
ATOM     24  H   UNL     1       7.114   3.985  15.374  0.00  0.00    +0.000 HD
ENDBRANCH  19  23
BRANCH  20  25
ATOM     25  O   UNL     1       8.054   4.152  17.638  0.00  0.00    +0.000 OA
ATOM     26  H   UNL     1       8.047   3.328  17.106  0.00  0.00    +0.000 HD
ENDBRANCH  20  25
BRANCH  21  27
ATOM     27  O   UNL     1       7.216   5.419  19.911  0.00  0.00    +0.000 OA
ATOM     28  H   UNL     1       7.929   5.911  19.449  0.00  0.00    +0.000 HD
ENDBRANCH  21  27
ENDBRANCH  16  17
ENDBRANCH  14  16
ENDBRANCH  13  14
ENDBRANCH   1  13
BRANCH   3  29
ATOM     29  O   UNL     1       0.917  12.427  18.703  0.00  0.00    +0.000 OA
BRANCH  29  30
ATOM     30  C   UNL     1       1.655  13.573  18.540  0.00  0.00    +0.000 A 
ATOM     31  C   UNL     1       3.003  13.553  18.165  0.00  0.00    +0.000 A 
ATOM     32  C   UNL     1       3.709  14.737  17.978  0.00  0.00    +0.000 A 
ATOM     33  C   UNL     1       3.064  15.953  18.164  0.00  0.00    +0.000 A 
ATOM     34  C   UNL     1       1.711  16.025  18.547  0.00  0.00    +0.000 A 
ATOM     35  C   UNL     1       1.080  17.272  18.719  0.00  0.00    +0.000 A 
ATOM     36  C   UNL     1      -0.257  17.377  19.095  0.00  0.00    +0.000 A 
ATOM     37  C   UNL     1      -0.987  16.223  19.327  0.00  0.00    +0.000 A 
ATOM     38  C   UNL     1      -0.381  14.972  19.172  0.00  0.00    +0.000 A 
ATOM     39  C   UNL     1       0.977  14.822  18.759  0.00  0.00    +0.000 A 
BRANCH  33  40
ATOM     40  O   UNL     1       3.772  17.113  17.969  0.00  0.00    +0.000 OA
ATOM     41  H   UNL     1       3.190  17.871  18.147  0.00  0.00    +0.000 HD
ENDBRANCH  33  40
BRANCH  38  42
ATOM     42  O   UNL     1      -1.143  13.863  19.447  0.00  0.00    +0.000 OA
ATOM     43  H   UNL     1      -0.667  13.068  19.163  0.00  0.00    +0.000 HD
ENDBRANCH  38  42
ENDBRANCH  29  30
ENDBRANCH   3  29
TORSDOF 14
ENDMDL
MODEL 7
REMARK VINA RESULT:      -8.2      3.245      4.527
REMARK  Name = 
REMARK  14 active torsions:
REMARK  status: ('A' for Active; 'I' for Inactive)
REMARK    1  A    between atoms: C_2  and  O_3
REMARK    2  A    between atoms: C_2  and  C_27
REMARK    3  A    between atoms: O_3  and  C_4
REMARK    4  A    between atoms: C_4  and  C_5
REMARK    5  A    between atoms: C_7  and  O_8
REMARK    6  A    between atoms: O_8  and  C_9
REMARK    7  A    between atoms: C_12  and  O_13
REMARK    8  A    between atoms: C_18  and  O_19
REMARK    9  A    between atoms: C_21  and  O_22
REMARK   10  A    between atoms: C_23  and  O_24
REMARK   11  A    between atoms: C_25  and  O_26
REMARK   12  A    between atoms: C_29  and  O_30
REMARK   13  A    between atoms: C_31  and  O_32
REMARK   14  A    between atoms: C_33  and  O_34
REMARK                            x       y       z     vdW  Elec       q    Type
REMARK                         _______ _______ _______ _____ _____    ______ ____
ROOT
ATOM      1  C   UNL     1       1.915   9.106  19.521  0.00  0.00    +0.000 C 
ATOM      2  O   UNL     1       1.409  10.241  18.805  0.00  0.00    +0.000 OA
ATOM      3  C   UNL     1       1.316  11.436  19.592  0.00  0.00    +0.000 C 
ATOM      4  C   UNL     1       0.370  11.222  20.801  0.00  0.00    +0.000 C 
ATOM      5  C   UNL     1       0.785   9.966  21.582  0.00  0.00    +0.000 C 
ATOM      6  C   UNL     1       0.949   8.746  20.659  0.00  0.00    +0.000 C 
ENDROOT
BRANCH   4   7
ATOM      7  O   UNL     1       0.361  12.353  21.691  0.00  0.00    +0.000 OA
ATOM      8  H   UNL     1       0.353  12.034  22.610  0.00  0.00    +0.000 HD
ENDBRANCH   4   7
BRANCH   5   9
ATOM      9  O   UNL     1      -0.147   9.663  22.629  0.00  0.00    +0.000 OA
ATOM     10  H   UNL     1      -0.820   9.055  22.274  0.00  0.00    +0.000 HD
ENDBRANCH   5   9
BRANCH   6  11
ATOM     11  O   UNL     1       1.415   7.616  21.399  0.00  0.00    +0.000 OA
ATOM     12  H   UNL     1       2.156   7.207  20.921  0.00  0.00    +0.000 HD
ENDBRANCH   6  11
BRANCH   1  13
ATOM     13  C   UNL     1       2.109   7.957  18.509  0.00  0.00    +0.000 C 
BRANCH  13  14
ATOM     14  O   UNL     1       2.584   6.726  19.079  0.00  0.00    +0.000 OA
BRANCH  14  16
ATOM     15  O   UNL     1       1.735   5.086  17.722  0.00  0.00    +0.000 OA
ATOM     16  C   UNL     1       2.678   5.665  18.244  0.00  0.00    +0.000 C 
BRANCH  16  17
ATOM     17  C   UNL     1       4.099   5.265  18.031  0.00  0.00    +0.000 A 
ATOM     18  C   UNL     1       5.004   5.446  19.098  0.00  0.00    +0.000 A 
ATOM     19  C   UNL     1       6.339   5.083  18.940  0.00  0.00    +0.000 A 
ATOM     20  C   UNL     1       6.776   4.528  17.744  0.00  0.00    +0.000 A 
ATOM     21  C   UNL     1       5.883   4.337  16.697  0.00  0.00    +0.000 A 
ATOM     22  C   UNL     1       4.548   4.702  16.824  0.00  0.00    +0.000 A 
BRANCH  19  23
ATOM     23  O   UNL     1       7.261   5.252  19.933  0.00  0.00    +0.000 OA
ATOM     24  H   UNL     1       7.466   6.199  20.012  0.00  0.00    +0.000 HD
ENDBRANCH  19  23
BRANCH  20  25
ATOM     25  O   UNL     1       8.083   4.164  17.580  0.00  0.00    +0.000 OA
ATOM     26  H   UNL     1       8.494   4.927  17.121  0.00  0.00    +0.000 HD
ENDBRANCH  20  25
BRANCH  21  27
ATOM     27  O   UNL     1       6.318   3.781  15.529  0.00  0.00    +0.000 OA
ATOM     28  H   UNL     1       6.778   4.510  15.060  0.00  0.00    +0.000 HD
ENDBRANCH  21  27
ENDBRANCH  16  17
ENDBRANCH  14  16
ENDBRANCH  13  14
ENDBRANCH   1  13
BRANCH   3  29
ATOM     29  O   UNL     1       0.783  12.520  18.821  0.00  0.00    +0.000 OA
BRANCH  29  30
ATOM     30  C   UNL     1       1.529  13.655  18.617  0.00  0.00    +0.000 A 
ATOM     31  C   UNL     1       2.871  13.612  18.222  0.00  0.00    +0.000 A 
ATOM     32  C   UNL     1       3.584  14.784  17.993  0.00  0.00    +0.000 A 
ATOM     33  C   UNL     1       2.953  16.010  18.158  0.00  0.00    +0.000 A 
ATOM     34  C   UNL     1       1.607  16.105  18.559  0.00  0.00    +0.000 A 
ATOM     35  C   UNL     1       0.990  17.362  18.709  0.00  0.00    +0.000 A 
ATOM     36  C   UNL     1      -0.340  17.489  19.103  0.00  0.00    +0.000 A 
ATOM     37  C   UNL     1      -1.076  16.348  19.376  0.00  0.00    +0.000 A 
ATOM     38  C   UNL     1      -0.484  15.088  19.244  0.00  0.00    +0.000 A 
ATOM     39  C   UNL     1       0.866  14.914  18.814  0.00  0.00    +0.000 A 
BRANCH  33  40
ATOM     40  O   UNL     1       3.668  17.159  17.922  0.00  0.00    +0.000 OA
ATOM     41  H   UNL     1       4.248  17.331  18.681  0.00  0.00    +0.000 HD
ENDBRANCH  33  40
BRANCH  38  42
ATOM     42  O   UNL     1      -1.252  13.993  19.559  0.00  0.00    +0.000 OA
ATOM     43  H   UNL     1      -0.770  13.185  19.326  0.00  0.00    +0.000 HD
ENDBRANCH  38  42
ENDBRANCH  29  30
ENDBRANCH   3  29
TORSDOF 14
ENDMDL
MODEL 8
REMARK VINA RESULT:      -8.1      1.028      1.822
REMARK  Name = 
REMARK  14 active torsions:
REMARK  status: ('A' for Active; 'I' for Inactive)
REMARK    1  A    between atoms: C_2  and  O_3
REMARK    2  A    between atoms: C_2  and  C_27
REMARK    3  A    between atoms: O_3  and  C_4
REMARK    4  A    between atoms: C_4  and  C_5
REMARK    5  A    between atoms: C_7  and  O_8
REMARK    6  A    between atoms: O_8  and  C_9
REMARK    7  A    between atoms: C_12  and  O_13
REMARK    8  A    between atoms: C_18  and  O_19
REMARK    9  A    between atoms: C_21  and  O_22
REMARK   10  A    between atoms: C_23  and  O_24
REMARK   11  A    between atoms: C_25  and  O_26
REMARK   12  A    between atoms: C_29  and  O_30
REMARK   13  A    between atoms: C_31  and  O_32
REMARK   14  A    between atoms: C_33  and  O_34
REMARK                            x       y       z     vdW  Elec       q    Type
REMARK                         _______ _______ _______ _____ _____    ______ ____
ROOT
ATOM      1  C   UNL     1       1.115   9.739  20.027  0.00  0.00    +0.000 C 
ATOM      2  O   UNL     1       0.129  10.715  19.663  0.00  0.00    +0.000 OA
ATOM      3  C   UNL     1      -0.160  11.667  20.695  0.00  0.00    +0.000 C 
ATOM      4  C   UNL     1      -0.695  10.955  21.963  0.00  0.00    +0.000 C 
ATOM      5  C   UNL     1       0.260   9.824  22.378  0.00  0.00    +0.000 C 
ATOM      6  C   UNL     1       0.592   8.895  21.197  0.00  0.00    +0.000 C 
ENDROOT
BRANCH   4   7
ATOM      7  O   UNL     1      -0.864  11.862  23.067  0.00  0.00    +0.000 OA
ATOM      8  H   UNL     1      -1.803  12.098  23.144  0.00  0.00    +0.000 HD
ENDBRANCH   4   7
BRANCH   5   9
ATOM      9  O   UNL     1      -0.270   9.059  23.468  0.00  0.00    +0.000 OA
ATOM     10  H   UNL     1      -1.047   9.528  23.823  0.00  0.00    +0.000 HD
ENDBRANCH   5   9
BRANCH   6  11
ATOM     11  O   UNL     1       1.545   7.905  21.592  0.00  0.00    +0.000 OA
ATOM     12  H   UNL     1       1.152   7.023  21.480  0.00  0.00    +0.000 HD
ENDBRANCH   6  11
BRANCH   1  13
ATOM     13  C   UNL     1       1.434   8.898  18.772  0.00  0.00    +0.000 C 
BRANCH  13  14
ATOM     14  O   UNL     1       2.558   8.014  18.909  0.00  0.00    +0.000 OA
BRANCH  14  16
ATOM     15  O   UNL     1       1.490   6.360  17.736  0.00  0.00    +0.000 OA
ATOM     16  C   UNL     1       2.500   6.845  18.228  0.00  0.00    +0.000 C 
BRANCH  16  17
ATOM     17  C   UNL     1       3.839   6.194  18.150  0.00  0.00    +0.000 A 
ATOM     18  C   UNL     1       4.014   4.960  18.809  0.00  0.00    +0.000 A 
ATOM     19  C   UNL     1       5.248   4.319  18.759  0.00  0.00    +0.000 A 
ATOM     20  C   UNL     1       6.300   4.882  18.047  0.00  0.00    +0.000 A 
ATOM     21  C   UNL     1       6.126   6.091  17.386  0.00  0.00    +0.000 A 
ATOM     22  C   UNL     1       4.907   6.758  17.431  0.00  0.00    +0.000 A 
BRANCH  19  23
ATOM     23  O   UNL     1       5.479   3.131  19.393  0.00  0.00    +0.000 OA
ATOM     24  H   UNL     1       5.066   3.162  20.273  0.00  0.00    +0.000 HD
ENDBRANCH  19  23
BRANCH  20  25
ATOM     25  O   UNL     1       7.515   4.258  17.988  0.00  0.00    +0.000 OA
ATOM     26  H   UNL     1       8.122   4.857  18.472  0.00  0.00    +0.000 HD
ENDBRANCH  20  25
BRANCH  21  27
ATOM     27  O   UNL     1       7.161   6.632  16.680  0.00  0.00    +0.000 OA
ATOM     28  H   UNL     1       6.988   6.378  15.747  0.00  0.00    +0.000 HD
ENDBRANCH  21  27
ENDBRANCH  16  17
ENDBRANCH  14  16
ENDBRANCH  13  14
ENDBRANCH   1  13
BRANCH   3  29
ATOM     29  O   UNL     1      -1.166  12.595  20.272  0.00  0.00    +0.000 OA
BRANCH  29  30
ATOM     30  C   UNL     1      -2.089  12.229  19.323  0.00  0.00    +0.000 A 
ATOM     31  C   UNL     1      -1.721  11.797  18.043  0.00  0.00    +0.000 A 
ATOM     32  C   UNL     1      -2.684  11.403  17.119  0.00  0.00    +0.000 A 
ATOM     33  C   UNL     1      -4.025  11.438  17.475  0.00  0.00    +0.000 A 
ATOM     34  C   UNL     1      -4.445  11.869  18.747  0.00  0.00    +0.000 A 
ATOM     35  C   UNL     1      -5.813  11.884  19.084  0.00  0.00    +0.000 A 
ATOM     36  C   UNL     1      -6.260  12.303  20.335  0.00  0.00    +0.000 A 
ATOM     37  C   UNL     1      -5.338  12.738  21.272  0.00  0.00    +0.000 A 
ATOM     38  C   UNL     1      -3.975  12.742  20.959  0.00  0.00    +0.000 A 
ATOM     39  C   UNL     1      -3.474  12.291  19.701  0.00  0.00    +0.000 A 
BRANCH  33  40
ATOM     40  O   UNL     1      -4.963  11.039  16.555  0.00  0.00    +0.000 OA
ATOM     41  H   UNL     1      -4.783  11.481  15.709  0.00  0.00    +0.000 HD
ENDBRANCH  33  40
BRANCH  38  42
ATOM     42  O   UNL     1      -3.109  13.213  21.916  0.00  0.00    +0.000 OA
ATOM     43  H   UNL     1      -2.198  13.013  21.651  0.00  0.00    +0.000 HD
ENDBRANCH  38  42
ENDBRANCH  29  30
ENDBRANCH   3  29
TORSDOF 14
ENDMDL
MODEL 9
REMARK VINA RESULT:      -8.1      1.586      2.022
REMARK  Name = 
REMARK  14 active torsions:
REMARK  status: ('A' for Active; 'I' for Inactive)
REMARK    1  A    between atoms: C_2  and  O_3
REMARK    2  A    between atoms: C_2  and  C_27
REMARK    3  A    between atoms: O_3  and  C_4
REMARK    4  A    between atoms: C_4  and  C_5
REMARK    5  A    between atoms: C_7  and  O_8
REMARK    6  A    between atoms: O_8  and  C_9
REMARK    7  A    between atoms: C_12  and  O_13
REMARK    8  A    between atoms: C_18  and  O_19
REMARK    9  A    between atoms: C_21  and  O_22
REMARK   10  A    between atoms: C_23  and  O_24
REMARK   11  A    between atoms: C_25  and  O_26
REMARK   12  A    between atoms: C_29  and  O_30
REMARK   13  A    between atoms: C_31  and  O_32
REMARK   14  A    between atoms: C_33  and  O_34
REMARK                            x       y       z     vdW  Elec       q    Type
REMARK                         _______ _______ _______ _____ _____    ______ ____
ROOT
ATOM      1  C   UNL     1       1.521   9.466  19.431  0.00  0.00    +0.000 C 
ATOM      2  O   UNL     1       0.586  10.502  19.101  0.00  0.00    +0.000 OA
ATOM      3  C   UNL     1       0.411  11.483  20.131  0.00  0.00    +0.000 C 
ATOM      4  C   UNL     1      -0.109  10.822  21.433  0.00  0.00    +0.000 C 
ATOM      5  C   UNL     1       0.786   9.634  21.818  0.00  0.00    +0.000 C 
ATOM      6  C   UNL     1       0.999   8.671  20.637  0.00  0.00    +0.000 C 
ENDROOT
BRANCH   4   7
ATOM      7  O   UNL     1      -0.164  11.750  22.531  0.00  0.00    +0.000 OA
ATOM      8  H   UNL     1      -1.058  12.128  22.583  0.00  0.00    +0.000 HD
ENDBRANCH   4   7
BRANCH   5   9
ATOM      9  O   UNL     1       0.259   8.918  22.943  0.00  0.00    +0.000 OA
ATOM     10  H   UNL     1      -0.571   8.487  22.670  0.00  0.00    +0.000 HD
ENDBRANCH   5   9
BRANCH   6  11
ATOM     11  O   UNL     1       1.902   7.625  21.001  0.00  0.00    +0.000 OA
ATOM     12  H   UNL     1       2.771   8.011  21.204  0.00  0.00    +0.000 HD
ENDBRANCH   6  11
BRANCH   1  13
ATOM     13  C   UNL     1       1.723   8.592  18.175  0.00  0.00    +0.000 C 
BRANCH  13  14
ATOM     14  O   UNL     1       3.005   7.950  18.087  0.00  0.00    +0.000 OA
BRANCH  14  16
ATOM     15  O   UNL     1       2.124   5.892  18.573  0.00  0.00    +0.000 OA
ATOM     16  C   UNL     1       3.013   6.597  18.115  0.00  0.00    +0.000 C 
BRANCH  16  17
ATOM     17  C   UNL     1       4.262   6.047  17.515  0.00  0.00    +0.000 A 
ATOM     18  C   UNL     1       5.382   6.900  17.423  0.00  0.00    +0.000 A 
ATOM     19  C   UNL     1       6.568   6.424  16.871  0.00  0.00    +0.000 A 
ATOM     20  C   UNL     1       6.656   5.110  16.429  0.00  0.00    +0.000 A 
ATOM     21  C   UNL     1       5.559   4.265  16.531  0.00  0.00    +0.000 A 
ATOM     22  C   UNL     1       4.359   4.719  17.066  0.00  0.00    +0.000 A 
BRANCH  19  23
ATOM     23  O   UNL     1       7.678   7.210  16.742  0.00  0.00    +0.000 OA
ATOM     24  H   UNL     1       7.825   7.683  17.580  0.00  0.00    +0.000 HD
ENDBRANCH  19  23
BRANCH  20  25
ATOM     25  O   UNL     1       7.818   4.632  15.889  0.00  0.00    +0.000 OA
ATOM     26  H   UNL     1       8.245   4.142  16.623  0.00  0.00    +0.000 HD
ENDBRANCH  20  25
BRANCH  21  27
ATOM     27  O   UNL     1       5.656   2.973  16.104  0.00  0.00    +0.000 OA
ATOM     28  H   UNL     1       6.523   2.661  16.443  0.00  0.00    +0.000 HD
ENDBRANCH  21  27
ENDBRANCH  16  17
ENDBRANCH  14  16
ENDBRANCH  13  14
ENDBRANCH   1  13
BRANCH   3  29
ATOM     29  O   UNL     1      -0.550  12.471  19.743  0.00  0.00    +0.000 OA
BRANCH  29  30
ATOM     30  C   UNL     1      -1.647  12.114  18.998  0.00  0.00    +0.000 A 
ATOM     31  C   UNL     1      -1.539  11.561  17.716  0.00  0.00    +0.000 A 
ATOM     32  C   UNL     1      -2.672  11.181  17.005  0.00  0.00    +0.000 A 
ATOM     33  C   UNL     1      -3.925  11.352  17.578  0.00  0.00    +0.000 A 
ATOM     34  C   UNL     1      -4.087  11.908  18.860  0.00  0.00    +0.000 A 
ATOM     35  C   UNL     1      -5.370  12.060  19.421  0.00  0.00    +0.000 A 
ATOM     36  C   UNL     1      -5.563  12.605  20.688  0.00  0.00    +0.000 A 
ATOM     37  C   UNL     1      -4.464  13.030  21.415  0.00  0.00    +0.000 A 
ATOM     38  C   UNL     1      -3.179  12.899  20.878  0.00  0.00    +0.000 A 
ATOM     39  C   UNL     1      -2.937  12.318  19.597  0.00  0.00    +0.000 A 
BRANCH  33  40
ATOM     40  O   UNL     1      -5.035  10.965  16.867  0.00  0.00    +0.000 OA
ATOM     41  H   UNL     1      -5.826  11.113  17.411  0.00  0.00    +0.000 HD
ENDBRANCH  33  40
BRANCH  38  42
ATOM     42  O   UNL     1      -2.129  13.367  21.631  0.00  0.00    +0.000 OA
ATOM     43  H   UNL     1      -1.373  13.545  21.051  0.00  0.00    +0.000 HD
ENDBRANCH  38  42
ENDBRANCH  29  30
ENDBRANCH   3  29
TORSDOF 14
ENDMDL
