MODEL 1
REMARK VINA RESULT:      -8.2      0.000      0.000
REMARK  Name = 
REMARK  7 active torsions:
REMARK  status: ('A' for Active; 'I' for Inactive)
REMARK    1  A    between atoms: C_2  and  C_3
REMARK    2  A    between atoms: C_2  and  C_10
REMARK    3  A    between atoms: C_3  and  N_4
REMARK    4  A    between atoms: C_13  and  C_14
REMARK    5  A    between atoms: C_17  and  C_18
REMARK    6  A    between atoms: C_18  and  C_20
REMARK    7  A    between atoms: C_20  and  N_21
REMARK                            x       y       z     vdW  Elec       q    Type
REMARK                         _______ _______ _______ _____ _____    ______ ____
ROOT
ATOM      1  C   UNL     1       2.732   5.894  19.039  0.00  0.00    +0.000 A 
ATOM      2  C   UNL     1       2.110   5.687  20.271  0.00  0.00    +0.000 A 
ATOM      3  C   UNL     1       1.419   6.729  20.888  0.00  0.00    +0.000 A 
ATOM      4  C   UNL     1       1.345   8.004  20.302  0.00  0.00    +0.000 A 
ATOM      5  C   UNL     1       1.962   8.184  19.050  0.00  0.00    +0.000 A 
ATOM      6  C   UNL     1       2.634   7.136  18.413  0.00  0.00    +0.000 A 
ENDROOT
BRANCH   4   7
ATOM      7  C   UNL     1       0.642   9.109  20.984  0.00  0.00    +0.000 A 
ATOM      8  C   UNL     1       0.301  10.284  20.291  0.00  0.00    +0.000 A 
ATOM      9  C   UNL     1      -0.321  11.353  20.935  0.00  0.00    +0.000 A 
ATOM     10  C   UNL     1      -0.647  11.266  22.290  0.00  0.00    +0.000 A 
ATOM     11  C   UNL     1      -0.355  10.091  22.990  0.00  0.00    +0.000 A 
ATOM     12  C   UNL     1       0.296   9.035  22.342  0.00  0.00    +0.000 A 
BRANCH  10  13
ATOM     13  C   UNL     1      -1.271  12.459  22.930  0.00  0.00    +0.000 C 
ATOM     14  O   UNL     1      -0.552  13.314  23.447  0.00  0.00    +0.000 OA
BRANCH  13  15
ATOM     15  C   UNL     1      -2.783  12.618  22.926  0.00  0.00    +0.000 C 
BRANCH  15  16
ATOM     16  N   UNL     1      -3.261  13.261  24.169  0.00  0.00    +0.000 NA
ATOM     17  C   UNL     1      -4.422  12.547  24.764  0.00  0.00    +0.000 C 
ATOM     18  C   UNL     1      -5.706  12.642  23.922  0.00  0.00    +0.000 C 
ATOM     19  O   UNL     1      -6.068  14.010  23.687  0.00  0.00    +0.000 OA
ATOM     20  C   UNL     1      -4.998  14.733  23.066  0.00  0.00    +0.000 C 
ATOM     21  C   UNL     1      -3.701  14.648  23.892  0.00  0.00    +0.000 C 
ENDBRANCH  15  16
ENDBRANCH  13  15
ENDBRANCH  10  13
ENDBRANCH   4   7
BRANCH   1  23
ATOM     22  O   UNL     1       3.560   3.709  19.088  0.00  0.00    +0.000 OA
ATOM     23  C   UNL     1       3.508   4.770  18.463  0.00  0.00    +0.000 C 
BRANCH  23  24
ATOM     24  C   UNL     1       4.311   5.014  17.191  0.00  0.00    +0.000 C 
BRANCH  24  25
ATOM     25  N   UNL     1       5.516   4.160  17.118  0.00  0.00    +0.000 NA
ATOM     26  C   UNL     1       6.710   4.801  17.730  0.00  0.00    +0.000 C 
ATOM     27  C   UNL     1       7.194   6.044  16.966  0.00  0.00    +0.000 C 
ATOM     28  O   UNL     1       7.512   5.715  15.607  0.00  0.00    +0.000 OA
ATOM     29  C   UNL     1       6.395   5.115  14.939  0.00  0.00    +0.000 C 
ATOM     30  C   UNL     1       5.861   3.887  15.701  0.00  0.00    +0.000 C 
ENDBRANCH  24  25
ENDBRANCH  23  24
ENDBRANCH   1  23
TORSDOF 7
ENDMDL
MODEL 2
REMARK VINA RESULT:      -8.2      0.776      1.247
REMARK  Name = 
REMARK  7 active torsions:
REMARK  status: ('A' for Active; 'I' for Inactive)
REMARK    1  A    between atoms: C_2  and  C_3
REMARK    2  A    between atoms: C_2  and  C_10
REMARK    3  A    between atoms: C_3  and  N_4
REMARK    4  A    between atoms: C_13  and  C_14
REMARK    5  A    between atoms: C_17  and  C_18
REMARK    6  A    between atoms: C_18  and  C_20
REMARK    7  A    between atoms: C_20  and  N_21
REMARK                            x       y       z     vdW  Elec       q    Type
REMARK                         _______ _______ _______ _____ _____    ______ ____
ROOT
ATOM      1  C   UNL     1       2.713   5.982  19.001  0.00  0.00    +0.000 A 
ATOM      2  C   UNL     1       2.086   5.783  20.231  0.00  0.00    +0.000 A 
ATOM      3  C   UNL     1       1.432   6.842  20.860  0.00  0.00    +0.000 A 
ATOM      4  C   UNL     1       1.401   8.125  20.287  0.00  0.00    +0.000 A 
ATOM      5  C   UNL     1       2.021   8.296  19.036  0.00  0.00    +0.000 A 
ATOM      6  C   UNL     1       2.657   7.233  18.387  0.00  0.00    +0.000 A 
ENDROOT
BRANCH   4   7
ATOM      7  C   UNL     1       0.737   9.246  20.981  0.00  0.00    +0.000 A 
ATOM      8  C   UNL     1       0.245   9.095  22.290  0.00  0.00    +0.000 A 
ATOM      9  C   UNL     1      -0.426  10.133  22.938  0.00  0.00    +0.000 A 
ATOM     10  C   UNL     1      -0.601  11.364  22.303  0.00  0.00    +0.000 A 
ATOM     11  C   UNL     1      -0.084  11.550  21.017  0.00  0.00    +0.000 A 
ATOM     12  C   UNL     1       0.562  10.495  20.363  0.00  0.00    +0.000 A 
BRANCH  10  13
ATOM     13  C   UNL     1      -1.365  12.416  23.033  0.00  0.00    +0.000 C 
ATOM     14  O   UNL     1      -0.760  13.364  23.533  0.00  0.00    +0.000 OA
BRANCH  13  15
ATOM     15  C   UNL     1      -2.877  12.317  23.143  0.00  0.00    +0.000 C 
BRANCH  15  16
ATOM     16  N   UNL     1      -3.528  13.598  22.792  0.00  0.00    +0.000 NA
ATOM     17  C   UNL     1      -4.597  13.971  23.757  0.00  0.00    +0.000 C 
ATOM     18  C   UNL     1      -5.824  13.045  23.711  0.00  0.00    +0.000 C 
ATOM     19  O   UNL     1      -6.382  12.993  22.390  0.00  0.00    +0.000 OA
ATOM     20  C   UNL     1      -5.404  12.588  21.426  0.00  0.00    +0.000 C 
ATOM     21  C   UNL     1      -4.164  13.501  21.457  0.00  0.00    +0.000 C 
ENDBRANCH  15  16
ENDBRANCH  13  15
ENDBRANCH  10  13
ENDBRANCH   4   7
BRANCH   1  23
ATOM     22  O   UNL     1       3.434   3.759  19.006  0.00  0.00    +0.000 OA
ATOM     23  C   UNL     1       3.450   4.838  18.412  0.00  0.00    +0.000 C 
BRANCH  23  24
ATOM     24  C   UNL     1       4.298   5.078  17.168  0.00  0.00    +0.000 C 
BRANCH  24  25
ATOM     25  N   UNL     1       5.497   4.216  17.134  0.00  0.00    +0.000 NA
ATOM     26  C   UNL     1       6.688   4.868  17.741  0.00  0.00    +0.000 C 
ATOM     27  C   UNL     1       7.189   6.084  16.947  0.00  0.00    +0.000 C 
ATOM     28  O   UNL     1       7.521   5.713  15.601  0.00  0.00    +0.000 OA
ATOM     29  C   UNL     1       6.408   5.100  14.938  0.00  0.00    +0.000 C 
ATOM     30  C   UNL     1       5.857   3.898  15.730  0.00  0.00    +0.000 C 
ENDBRANCH  24  25
ENDBRANCH  23  24
ENDBRANCH   1  23
TORSDOF 7
ENDMDL
MODEL 3
REMARK VINA RESULT:      -8.2      0.927      1.384
REMARK  Name = 
REMARK  7 active torsions:
REMARK  status: ('A' for Active; 'I' for Inactive)
REMARK    1  A    between atoms: C_2  and  C_3
REMARK    2  A    between atoms: C_2  and  C_10
REMARK    3  A    between atoms: C_3  and  N_4
REMARK    4  A    between atoms: C_13  and  C_14
REMARK    5  A    between atoms: C_17  and  C_18
REMARK    6  A    between atoms: C_18  and  C_20
REMARK    7  A    between atoms: C_20  and  N_21
REMARK                            x       y       z     vdW  Elec       q    Type
REMARK                         _______ _______ _______ _____ _____    ______ ____
ROOT
ATOM      1  C   UNL     1       2.871   5.422  18.953  0.00  0.00    +0.000 A 
ATOM      2  C   UNL     1       2.885   6.691  18.373  0.00  0.00    +0.000 A 
ATOM      3  C   UNL     1       2.253   7.757  19.012  0.00  0.00    +0.000 A 
ATOM      4  C   UNL     1       1.581   7.582  20.233  0.00  0.00    +0.000 A 
ATOM      5  C   UNL     1       1.598   6.298  20.810  0.00  0.00    +0.000 A 
ATOM      6  C   UNL     1       2.252   5.230  20.188  0.00  0.00    +0.000 A 
ENDROOT
BRANCH   4   7
ATOM      7  C   UNL     1       0.885   8.711  20.881  0.00  0.00    +0.000 A 
ATOM      8  C   UNL     1       0.560   9.871  20.156  0.00  0.00    +0.000 A 
ATOM      9  C   UNL     1      -0.055  10.963  20.768  0.00  0.00    +0.000 A 
ATOM     10  C   UNL     1      -0.389  10.916  22.123  0.00  0.00    +0.000 A 
ATOM     11  C   UNL     1      -0.113   9.756  22.855  0.00  0.00    +0.000 A 
ATOM     12  C   UNL     1       0.530   8.677  22.239  0.00  0.00    +0.000 A 
BRANCH  10  13
ATOM     13  C   UNL     1      -1.005  12.131  22.727  0.00  0.00    +0.000 C 
ATOM     14  O   UNL     1      -0.283  13.063  23.081  0.00  0.00    +0.000 OA
BRANCH  13  15
ATOM     15  C   UNL     1      -2.514  12.217  22.889  0.00  0.00    +0.000 C 
BRANCH  15  16
ATOM     16  N   UNL     1      -3.031  13.530  22.448  0.00  0.00    +0.000 NA
ATOM     17  C   UNL     1      -4.078  14.061  23.361  0.00  0.00    +0.000 C 
ATOM     18  C   UNL     1      -5.388  13.254  23.336  0.00  0.00    +0.000 C 
ATOM     19  O   UNL     1      -5.920  13.176  22.005  0.00  0.00    +0.000 OA
ATOM     20  C   UNL     1      -4.966  12.623  21.093  0.00  0.00    +0.000 C 
ATOM     21  C   UNL     1      -3.645  13.415  21.105  0.00  0.00    +0.000 C 
ENDBRANCH  15  16
ENDBRANCH  13  15
ENDBRANCH  10  13
ENDBRANCH   4   7
BRANCH   1  23
ATOM     22  O   UNL     1       3.436   3.173  18.659  0.00  0.00    +0.000 OA
ATOM     23  C   UNL     1       3.500   4.313  18.196  0.00  0.00    +0.000 C 
BRANCH  23  24
ATOM     24  C   UNL     1       4.305   4.648  16.946  0.00  0.00    +0.000 C 
BRANCH  24  25
ATOM     25  N   UNL     1       5.621   3.976  16.932  0.00  0.00    +0.000 NA
ATOM     26  C   UNL     1       6.671   4.759  17.636  0.00  0.00    +0.000 C 
ATOM     27  C   UNL     1       7.019   6.082  16.936  0.00  0.00    +0.000 C 
ATOM     28  O   UNL     1       7.465   5.845  15.593  0.00  0.00    +0.000 OA
ATOM     29  C   UNL     1       6.489   5.116  14.839  0.00  0.00    +0.000 C 
ATOM     30  C   UNL     1       6.089   3.800  15.535  0.00  0.00    +0.000 C 
ENDBRANCH  24  25
ENDBRANCH  23  24
ENDBRANCH   1  23
TORSDOF 7
ENDMDL
MODEL 4
REMARK VINA RESULT:      -8.1      0.731      1.471
REMARK  Name = 
REMARK  7 active torsions:
REMARK  status: ('A' for Active; 'I' for Inactive)
REMARK    1  A    between atoms: C_2  and  C_3
REMARK    2  A    between atoms: C_2  and  C_10
REMARK    3  A    between atoms: C_3  and  N_4
REMARK    4  A    between atoms: C_13  and  C_14
REMARK    5  A    between atoms: C_17  and  C_18
REMARK    6  A    between atoms: C_18  and  C_20
REMARK    7  A    between atoms: C_20  and  N_21
REMARK                            x       y       z     vdW  Elec       q    Type
REMARK                         _______ _______ _______ _____ _____    ______ ____
ROOT
ATOM      1  C   UNL     1       2.804   5.622  18.850  0.00  0.00    +0.000 A 
ATOM      2  C   UNL     1       2.797   6.863  18.212  0.00  0.00    +0.000 A 
ATOM      3  C   UNL     1       2.222   7.967  18.839  0.00  0.00    +0.000 A 
ATOM      4  C   UNL     1       1.627   7.859  20.107  0.00  0.00    +0.000 A 
ATOM      5  C   UNL     1       1.665   6.603  20.741  0.00  0.00    +0.000 A 
ATOM      6  C   UNL     1       2.263   5.497  20.130  0.00  0.00    +0.000 A 
ENDROOT
BRANCH   4   7
ATOM      7  C   UNL     1       0.989   9.028  20.744  0.00  0.00    +0.000 A 
ATOM      8  C   UNL     1       0.390   8.922  22.012  0.00  0.00    +0.000 A 
ATOM      9  C   UNL     1      -0.257  10.008  22.604  0.00  0.00    +0.000 A 
ATOM     10  C   UNL     1      -0.300  11.242  21.953  0.00  0.00    +0.000 A 
ATOM     11  C   UNL     1       0.325  11.382  20.709  0.00  0.00    +0.000 A 
ATOM     12  C   UNL     1       0.946  10.281  20.111  0.00  0.00    +0.000 A 
BRANCH  10  13
ATOM     13  C   UNL     1      -1.043  12.350  22.619  0.00  0.00    +0.000 C 
ATOM     14  O   UNL     1      -0.528  13.465  22.694  0.00  0.00    +0.000 OA
BRANCH  13  15
ATOM     15  C   UNL     1      -2.432  12.098  23.185  0.00  0.00    +0.000 C 
BRANCH  15  16
ATOM     16  N   UNL     1      -3.197  13.357  23.316  0.00  0.00    +0.000 NA
ATOM     17  C   UNL     1      -4.103  13.347  24.495  0.00  0.00    +0.000 C 
ATOM     18  C   UNL     1      -5.271  12.354  24.369  0.00  0.00    +0.000 C 
ATOM     19  O   UNL     1      -6.043  12.612  23.187  0.00  0.00    +0.000 OA
ATOM     20  C   UNL     1      -5.223  12.583  22.013  0.00  0.00    +0.000 C 
ATOM     21  C   UNL     1      -4.044  13.568  22.119  0.00  0.00    +0.000 C 
ENDBRANCH  15  16
ENDBRANCH  13  15
ENDBRANCH  10  13
ENDBRANCH   4   7
BRANCH   1  23
ATOM     22  O   UNL     1       3.193   3.336  18.557  0.00  0.00    +0.000 OA
ATOM     23  C   UNL     1       3.368   4.470  18.108  0.00  0.00    +0.000 C 
BRANCH  23  24
ATOM     24  C   UNL     1       4.247   4.744  16.893  0.00  0.00    +0.000 C 
BRANCH  24  25
ATOM     25  N   UNL     1       5.524   4.003  16.947  0.00  0.00    +0.000 NA
ATOM     26  C   UNL     1       6.603   4.771  17.625  0.00  0.00    +0.000 C 
ATOM     27  C   UNL     1       7.035   6.027  16.853  0.00  0.00    +0.000 C 
ATOM     28  O   UNL     1       7.491   5.684  15.536  0.00  0.00    +0.000 OA
ATOM     29  C   UNL     1       6.489   4.963  14.808  0.00  0.00    +0.000 C 
ATOM     30  C   UNL     1       6.007   3.716  15.574  0.00  0.00    +0.000 C 
ENDBRANCH  24  25
ENDBRANCH  23  24
ENDBRANCH   1  23
TORSDOF 7
ENDMDL
MODEL 5
REMARK VINA RESULT:      -8.1      0.656     11.741
REMARK  Name = 
REMARK  7 active torsions:
REMARK  status: ('A' for Active; 'I' for Inactive)
REMARK    1  A    between atoms: C_2  and  C_3
REMARK    2  A    between atoms: C_2  and  C_10
REMARK    3  A    between atoms: C_3  and  N_4
REMARK    4  A    between atoms: C_13  and  C_14
REMARK    5  A    between atoms: C_17  and  C_18
REMARK    6  A    between atoms: C_18  and  C_20
REMARK    7  A    between atoms: C_20  and  N_21
REMARK                            x       y       z     vdW  Elec       q    Type
REMARK                         _______ _______ _______ _____ _____    ______ ____
ROOT
ATOM      1  C   UNL     1      -0.639  11.520  22.400  0.00  0.00    +0.000 A 
ATOM      2  C   UNL     1      -0.630  10.241  22.956  0.00  0.00    +0.000 A 
ATOM      3  C   UNL     1       0.025   9.200  22.299  0.00  0.00    +0.000 A 
ATOM      4  C   UNL     1       0.671   9.404  21.068  0.00  0.00    +0.000 A 
ATOM      5  C   UNL     1       0.667  10.708  20.537  0.00  0.00    +0.000 A 
ATOM      6  C   UNL     1       0.034  11.762  21.203  0.00  0.00    +0.000 A 
ENDROOT
BRANCH   4   7
ATOM      7  C   UNL     1       1.329   8.285  20.365  0.00  0.00    +0.000 A 
ATOM      8  C   UNL     1       1.387   7.004  20.942  0.00  0.00    +0.000 A 
ATOM      9  C   UNL     1       2.047   5.951  20.309  0.00  0.00    +0.000 A 
ATOM     10  C   UNL     1       2.647   6.142  19.063  0.00  0.00    +0.000 A 
ATOM     11  C   UNL     1       2.567   7.398  18.451  0.00  0.00    +0.000 A 
ATOM     12  C   UNL     1       1.927   8.456  19.106  0.00  0.00    +0.000 A 
BRANCH  10  13
ATOM     13  C   UNL     1       3.373   4.989  18.460  0.00  0.00    +0.000 C 
ATOM     14  O   UNL     1       3.283   3.878  18.982  0.00  0.00    +0.000 OA
BRANCH  13  15
ATOM     15  C   UNL     1       4.206   5.189  17.204  0.00  0.00    +0.000 C 
BRANCH  15  16
ATOM     16  N   UNL     1       5.350   4.254  17.161  0.00  0.00    +0.000 NA
ATOM     17  C   UNL     1       6.571   4.826  17.788  0.00  0.00    +0.000 C 
ATOM     18  C   UNL     1       7.177   6.003  17.004  0.00  0.00    +0.000 C 
ATOM     19  O   UNL     1       7.479   5.622  15.654  0.00  0.00    +0.000 OA
ATOM     20  C   UNL     1       6.321   5.109  14.986  0.00  0.00    +0.000 C 
ATOM     21  C   UNL     1       5.696   3.931  15.757  0.00  0.00    +0.000 C 
ENDBRANCH  15  16
ENDBRANCH  13  15
ENDBRANCH  10  13
ENDBRANCH   4   7
BRANCH   1  23
ATOM     22  O   UNL     1      -0.791  13.491  23.648  0.00  0.00    +0.000 OA
ATOM     23  C   UNL     1      -1.409  12.572  23.108  0.00  0.00    +0.000 C 
BRANCH  23  24
ATOM     24  C   UNL     1      -2.917  12.404  23.247  0.00  0.00    +0.000 C 
BRANCH  24  25
ATOM     25  N   UNL     1      -3.662  13.188  22.240  0.00  0.00    +0.000 NA
ATOM     26  C   UNL     1      -3.717  14.637  22.569  0.00  0.00    +0.000 C 
ATOM     27  C   UNL     1      -4.534  14.946  23.833  0.00  0.00    +0.000 C 
ATOM     28  O   UNL     1      -5.881  14.468  23.698  0.00  0.00    +0.000 OA
ATOM     29  C   UNL     1      -5.911  13.065  23.407  0.00  0.00    +0.000 C 
ATOM     30  C   UNL     1      -5.068  12.717  22.165  0.00  0.00    +0.000 C 
ENDBRANCH  24  25
ENDBRANCH  23  24
ENDBRANCH   1  23
TORSDOF 7
ENDMDL
MODEL 6
REMARK VINA RESULT:      -8.0      0.779      1.601
REMARK  Name = 
REMARK  7 active torsions:
REMARK  status: ('A' for Active; 'I' for Inactive)
REMARK    1  A    between atoms: C_2  and  C_3
REMARK    2  A    between atoms: C_2  and  C_10
REMARK    3  A    between atoms: C_3  and  N_4
REMARK    4  A    between atoms: C_13  and  C_14
REMARK    5  A    between atoms: C_17  and  C_18
REMARK    6  A    between atoms: C_18  and  C_20
REMARK    7  A    between atoms: C_20  and  N_21
REMARK                            x       y       z     vdW  Elec       q    Type
REMARK                         _______ _______ _______ _____ _____    ______ ____
ROOT
ATOM      1  C   UNL     1       2.733   5.749  18.885  0.00  0.00    +0.000 A 
ATOM      2  C   UNL     1       2.762   6.977  18.224  0.00  0.00    +0.000 A 
ATOM      3  C   UNL     1       2.193   8.103  18.818  0.00  0.00    +0.000 A 
ATOM      4  C   UNL     1       1.570   8.030  20.075  0.00  0.00    +0.000 A 
ATOM      5  C   UNL     1       1.573   6.786  20.733  0.00  0.00    +0.000 A 
ATOM      6  C   UNL     1       2.163   5.658  20.155  0.00  0.00    +0.000 A 
ENDROOT
BRANCH   4   7
ATOM      7  C   UNL     1       0.940   9.222  20.676  0.00  0.00    +0.000 A 
ATOM      8  C   UNL     1       0.407   9.178  21.977  0.00  0.00    +0.000 A 
ATOM      9  C   UNL     1      -0.232  10.283  22.538  0.00  0.00    +0.000 A 
ATOM     10  C   UNL     1      -0.333  11.478  21.822  0.00  0.00    +0.000 A 
ATOM     11  C   UNL     1       0.227  11.558  20.543  0.00  0.00    +0.000 A 
ATOM     12  C   UNL     1       0.841  10.435  19.977  0.00  0.00    +0.000 A 
BRANCH  10  13
ATOM     13  C   UNL     1      -1.065  12.608  22.461  0.00  0.00    +0.000 C 
ATOM     14  O   UNL     1      -0.583  13.160  23.450  0.00  0.00    +0.000 OA
BRANCH  13  15
ATOM     15  C   UNL     1      -2.390  13.077  21.882  0.00  0.00    +0.000 C 
BRANCH  15  16
ATOM     16  N   UNL     1      -3.524  12.302  22.431  0.00  0.00    +0.000 NA
ATOM     17  C   UNL     1      -4.821  12.681  21.810  0.00  0.00    +0.000 C 
ATOM     18  C   UNL     1      -5.289  14.101  22.172  0.00  0.00    +0.000 C 
ATOM     19  O   UNL     1      -5.383  14.267  23.594  0.00  0.00    +0.000 OA
ATOM     20  C   UNL     1      -4.141  13.962  24.238  0.00  0.00    +0.000 C 
ATOM     21  C   UNL     1      -3.653  12.544  23.887  0.00  0.00    +0.000 C 
ENDBRANCH  15  16
ENDBRANCH  13  15
ENDBRANCH  10  13
ENDBRANCH   4   7
BRANCH   1  23
ATOM     22  O   UNL     1       3.102   3.453  18.653  0.00  0.00    +0.000 OA
ATOM     23  C   UNL     1       3.292   4.573  18.176  0.00  0.00    +0.000 C 
BRANCH  23  24
ATOM     24  C   UNL     1       4.181   4.808  16.961  0.00  0.00    +0.000 C 
BRANCH  24  25
ATOM     25  N   UNL     1       5.436   4.030  17.027  0.00  0.00    +0.000 NA
ATOM     26  C   UNL     1       6.514   4.746  17.760  0.00  0.00    +0.000 C 
ATOM     27  C   UNL     1       7.002   6.014  17.043  0.00  0.00    +0.000 C 
ATOM     28  O   UNL     1       7.488   5.701  15.729  0.00  0.00    +0.000 OA
ATOM     29  C   UNL     1       6.489   5.032  14.949  0.00  0.00    +0.000 C 
ATOM     30  C   UNL     1       5.951   3.775  15.659  0.00  0.00    +0.000 C 
ENDBRANCH  24  25
ENDBRANCH  23  24
ENDBRANCH   1  23
TORSDOF 7
ENDMDL
MODEL 7
REMARK VINA RESULT:      -8.0      1.089      1.956
REMARK  Name = 
REMARK  7 active torsions:
REMARK  status: ('A' for Active; 'I' for Inactive)
REMARK    1  A    between atoms: C_2  and  C_3
REMARK    2  A    between atoms: C_2  and  C_10
REMARK    3  A    between atoms: C_3  and  N_4
REMARK    4  A    between atoms: C_13  and  C_14
REMARK    5  A    between atoms: C_17  and  C_18
REMARK    6  A    between atoms: C_18  and  C_20
REMARK    7  A    between atoms: C_20  and  N_21
REMARK                            x       y       z     vdW  Elec       q    Type
REMARK                         _______ _______ _______ _____ _____    ______ ____
ROOT
ATOM      1  C   UNL     1       2.698   5.682  18.848  0.00  0.00    +0.000 A 
ATOM      2  C   UNL     1       2.716   6.950  18.266  0.00  0.00    +0.000 A 
ATOM      3  C   UNL     1       2.130   8.029  18.926  0.00  0.00    +0.000 A 
ATOM      4  C   UNL     1       1.501   7.869  20.172  0.00  0.00    +0.000 A 
ATOM      5  C   UNL     1       1.514   6.585  20.750  0.00  0.00    +0.000 A 
ATOM      6  C   UNL     1       2.122   5.504  20.106  0.00  0.00    +0.000 A 
ENDROOT
BRANCH   4   7
ATOM      7  C   UNL     1       0.853   9.013  20.844  0.00  0.00    +0.000 A 
ATOM      8  C   UNL     1       0.508   8.950  22.206  0.00  0.00    +0.000 A 
ATOM      9  C   UNL     1      -0.146  10.006  22.839  0.00  0.00    +0.000 A 
ATOM     10  C   UNL     1      -0.452  11.171  22.133  0.00  0.00    +0.000 A 
ATOM     11  C   UNL     1      -0.082  11.272  20.788  0.00  0.00    +0.000 A 
ATOM     12  C   UNL     1       0.548  10.197  20.153  0.00  0.00    +0.000 A 
BRANCH  10  13
ATOM     13  C   UNL     1      -1.191  12.245  22.857  0.00  0.00    +0.000 C 
ATOM     14  O   UNL     1      -0.559  13.125  23.442  0.00  0.00    +0.000 OA
BRANCH  13  15
ATOM     15  C   UNL     1      -2.711  12.253  22.856  0.00  0.00    +0.000 C 
BRANCH  15  16
ATOM     16  N   UNL     1      -3.243  13.539  22.355  0.00  0.00    +0.000 NA
ATOM     17  C   UNL     1      -4.174  14.180  23.322  0.00  0.00    +0.000 C 
ATOM     18  C   UNL     1      -5.496  13.415  23.508  0.00  0.00    +0.000 C 
ATOM     19  O   UNL     1      -6.171  13.239  22.254  0.00  0.00    +0.000 OA
ATOM     20  C   UNL     1      -5.332  12.578  21.299  0.00  0.00    +0.000 C 
ATOM     21  C   UNL     1      -4.000  13.326  21.100  0.00  0.00    +0.000 C 
ENDBRANCH  15  16
ENDBRANCH  13  15
ENDBRANCH  10  13
ENDBRANCH   4   7
BRANCH   1  23
ATOM     22  O   UNL     1       2.507   3.768  17.520  0.00  0.00    +0.000 OA
ATOM     23  C   UNL     1       3.275   4.560  18.070  0.00  0.00    +0.000 C 
BRANCH  23  24
ATOM     24  C   UNL     1       4.786   4.361  18.087  0.00  0.00    +0.000 C 
BRANCH  24  25
ATOM     25  N   UNL     1       5.513   5.555  17.610  0.00  0.00    +0.000 NA
ATOM     26  C   UNL     1       5.679   5.572  16.132  0.00  0.00    +0.000 C 
ATOM     27  C   UNL     1       6.593   4.454  15.608  0.00  0.00    +0.000 C 
ATOM     28  O   UNL     1       7.896   4.539  16.204  0.00  0.00    +0.000 OA
ATOM     29  C   UNL     1       7.819   4.500  17.634  0.00  0.00    +0.000 C 
ATOM     30  C   UNL     1       6.878   5.587  18.190  0.00  0.00    +0.000 C 
ENDBRANCH  24  25
ENDBRANCH  23  24
ENDBRANCH   1  23
TORSDOF 7
ENDMDL
MODEL 8
REMARK VINA RESULT:      -8.0      0.290     11.816
REMARK  Name = 
REMARK  7 active torsions:
REMARK  status: ('A' for Active; 'I' for Inactive)
REMARK    1  A    between atoms: C_2  and  C_3
REMARK    2  A    between atoms: C_2  and  C_10
REMARK    3  A    between atoms: C_3  and  N_4
REMARK    4  A    between atoms: C_13  and  C_14
REMARK    5  A    between atoms: C_17  and  C_18
REMARK    6  A    between atoms: C_18  and  C_20
REMARK    7  A    between atoms: C_20  and  N_21
REMARK                            x       y       z     vdW  Elec       q    Type
REMARK                         _______ _______ _______ _____ _____    ______ ____
ROOT
ATOM      1  C   UNL     1      -0.583  11.563  22.272  0.00  0.00    +0.000 A 
ATOM      2  C   UNL     1      -0.454  10.324  22.900  0.00  0.00    +0.000 A 
ATOM      3  C   UNL     1       0.192   9.275  22.247  0.00  0.00    +0.000 A 
ATOM      4  C   UNL     1       0.710   9.430  20.950  0.00  0.00    +0.000 A 
ATOM      5  C   UNL     1       0.587  10.694  20.345  0.00  0.00    +0.000 A 
ATOM      6  C   UNL     1      -0.037  11.758  21.004  0.00  0.00    +0.000 A 
ENDROOT
BRANCH   4   7
ATOM      7  C   UNL     1       1.359   8.300  20.256  0.00  0.00    +0.000 A 
ATOM      8  C   UNL     1       1.436   7.031  20.858  0.00  0.00    +0.000 A 
ATOM      9  C   UNL     1       2.089   5.969  20.232  0.00  0.00    +0.000 A 
ATOM     10  C   UNL     1       2.662   6.138  18.970  0.00  0.00    +0.000 A 
ATOM     11  C   UNL     1       2.562   7.381  18.335  0.00  0.00    +0.000 A 
ATOM     12  C   UNL     1       1.930   8.448  18.982  0.00  0.00    +0.000 A 
BRANCH  10  13
ATOM     13  C   UNL     1       3.381   4.976  18.375  0.00  0.00    +0.000 C 
ATOM     14  O   UNL     1       3.239   3.859  18.871  0.00  0.00    +0.000 OA
BRANCH  13  15
ATOM     15  C   UNL     1       4.271   5.177  17.159  0.00  0.00    +0.000 C 
BRANCH  15  16
ATOM     16  N   UNL     1       5.494   4.349  17.242  0.00  0.00    +0.000 NA
ATOM     17  C   UNL     1       6.632   5.083  17.857  0.00  0.00    +0.000 C 
ATOM     18  C   UNL     1       7.167   6.235  16.990  0.00  0.00    +0.000 C 
ATOM     19  O   UNL     1       7.558   5.764  15.692  0.00  0.00    +0.000 OA
ATOM     20  C   UNL     1       6.479   5.092  15.034  0.00  0.00    +0.000 C 
ATOM     21  C   UNL     1       5.926   3.935  15.888  0.00  0.00    +0.000 C 
ENDBRANCH  15  16
ENDBRANCH  13  15
ENDBRANCH  10  13
ENDBRANCH   4   7
BRANCH   1  23
ATOM     22  O   UNL     1      -0.711  13.445  23.651  0.00  0.00    +0.000 OA
ATOM     23  C   UNL     1      -1.339  12.620  22.986  0.00  0.00    +0.000 C 
BRANCH  23  24
ATOM     24  C   UNL     1      -2.862  12.566  22.969  0.00  0.00    +0.000 C 
BRANCH  24  25
ATOM     25  N   UNL     1      -3.457  13.176  24.177  0.00  0.00    +0.000 NA
ATOM     26  C   UNL     1      -4.741  12.536  24.569  0.00  0.00    +0.000 C 
ATOM     27  C   UNL     1      -5.870  12.761  23.551  0.00  0.00    +0.000 C 
ATOM     28  O   UNL     1      -6.110  14.162  23.357  0.00  0.00    +0.000 OA
ATOM     29  C   UNL     1      -4.919  14.845  22.949  0.00  0.00    +0.000 C 
ATOM     30  C   UNL     1      -3.754  14.609  23.930  0.00  0.00    +0.000 C 
ENDBRANCH  24  25
ENDBRANCH  23  24
ENDBRANCH   1  23
TORSDOF 7
ENDMDL
MODEL 9
REMARK VINA RESULT:      -8.0      1.841      2.964
REMARK  Name = 
REMARK  7 active torsions:
REMARK  status: ('A' for Active; 'I' for Inactive)
REMARK    1  A    between atoms: C_2  and  C_3
REMARK    2  A    between atoms: C_2  and  C_10
REMARK    3  A    between atoms: C_3  and  N_4
REMARK    4  A    between atoms: C_13  and  C_14
REMARK    5  A    between atoms: C_17  and  C_18
REMARK    6  A    between atoms: C_18  and  C_20
REMARK    7  A    between atoms: C_20  and  N_21
REMARK                            x       y       z     vdW  Elec       q    Type
REMARK                         _______ _______ _______ _____ _____    ______ ____
ROOT
ATOM      1  C   UNL     1       2.749   7.099  18.515  0.00  0.00    +0.000 A 
ATOM      2  C   UNL     1       2.425   6.792  19.837  0.00  0.00    +0.000 A 
ATOM      3  C   UNL     1       1.671   7.685  20.597  0.00  0.00    +0.000 A 
ATOM      4  C   UNL     1       1.235   8.910  20.064  0.00  0.00    +0.000 A 
ATOM      5  C   UNL     1       1.554   9.189  18.722  0.00  0.00    +0.000 A 
ATOM      6  C   UNL     1       2.288   8.287  17.946  0.00  0.00    +0.000 A 
ENDROOT
BRANCH   4   7
ATOM      7  C   UNL     1       0.468   9.863  20.891  0.00  0.00    +0.000 A 
ATOM      8  C   UNL     1       0.242  11.180  20.453  0.00  0.00    +0.000 A 
ATOM      9  C   UNL     1      -0.440  12.102  21.246  0.00  0.00    +0.000 A 
ATOM     10  C   UNL     1      -0.943  11.725  22.493  0.00  0.00    +0.000 A 
ATOM     11  C   UNL     1      -0.766  10.408  22.931  0.00  0.00    +0.000 A 
ATOM     12  C   UNL     1      -0.056   9.498  22.142  0.00  0.00    +0.000 A 
BRANCH  10  13
ATOM     13  C   UNL     1      -1.625  12.769  23.309  0.00  0.00    +0.000 C 
ATOM     14  O   UNL     1      -0.963  13.692  23.784  0.00  0.00    +0.000 OA
BRANCH  13  15
ATOM     15  C   UNL     1      -3.126  12.695  23.536  0.00  0.00    +0.000 C 
BRANCH  15  16
ATOM     16  N   UNL     1      -3.869  13.396  22.467  0.00  0.00    +0.000 NA
ATOM     17  C   UNL     1      -3.921  14.866  22.686  0.00  0.00    +0.000 C 
ATOM     18  C   UNL     1      -4.771  15.282  23.898  0.00  0.00    +0.000 C 
ATOM     19  O   UNL     1      -6.110  14.777  23.786  0.00  0.00    +0.000 OA
ATOM     20  C   UNL     1      -6.119  13.354  23.624  0.00  0.00    +0.000 C 
ATOM     21  C   UNL     1      -5.269  12.916  22.416  0.00  0.00    +0.000 C 
ENDBRANCH  15  16
ENDBRANCH  13  15
ENDBRANCH  10  13
ENDBRANCH   4   7
BRANCH   1  23
ATOM     22  O   UNL     1       4.166   6.527  16.747  0.00  0.00    +0.000 OA
ATOM     23  C   UNL     1       3.610   6.144  17.778  0.00  0.00    +0.000 C 
BRANCH  23  24
ATOM     24  C   UNL     1       3.670   4.697  18.254  0.00  0.00    +0.000 C 
BRANCH  24  25
ATOM     25  N   UNL     1       2.803   3.808  17.453  0.00  0.00    +0.000 NA
ATOM     26  C   UNL     1       1.388   3.823  17.912  0.00  0.00    +0.000 C 
ATOM     27  C   UNL     1       1.195   3.223  19.313  0.00  0.00    +0.000 C 
ATOM     28  O   UNL     1       1.663   1.867  19.356  0.00  0.00    +0.000 OA
ATOM     29  C   UNL     1       3.035   1.776  18.952  0.00  0.00    +0.000 C 
ATOM     30  C   UNL     1       3.270   2.404  17.565  0.00  0.00    +0.000 C 
ENDBRANCH  24  25
ENDBRANCH  23  24
ENDBRANCH   1  23
TORSDOF 7
ENDMDL
