MODEL 1
REMARK VINA RESULT:      -7.4      0.000      0.000
REMARK  Name = 
REMARK  9 active torsions:
REMARK  status: ('A' for Active; 'I' for Inactive)
REMARK    1  A    between atoms: C_1  and  O_2
REMARK    2  A    between atoms: O_2  and  C_3
REMARK    3  A    between atoms: C_3  and  C_4
REMARK    4  A    between atoms: C_4  and  N_5
REMARK    5  A    between atoms: C_7  and  N_8
REMARK    6  A    between atoms: C_13  and  C_14
REMARK    7  A    between atoms: C_17  and  N_18
REMARK    8  A    between atoms: C_19  and  C_21
REMARK    9  A    between atoms: C_21  and  C_22
REMARK                            x       y       z     vdW  Elec       q    Type
REMARK                         _______ _______ _______ _____ _____    ______ ____
ROOT
ATOM      1  N   UNL     1       2.786   6.248  20.095  0.00  0.00    +0.000 N 
ATOM      2  C   UNL     1       2.239   7.412  19.551  0.00  0.00    +0.000 A 
ATOM      3  N   UNL     1       2.392   7.672  18.242  0.00  0.00    +0.000 NA
ATOM      4  C   UNL     1       1.804   8.770  17.754  0.00  0.00    +0.000 A 
ATOM      5  C   UNL     1       1.094   9.640  18.535  0.00  0.00    +0.000 A 
ATOM      6  C   UNL     1       1.006   9.325  19.880  0.00  0.00    +0.000 A 
ATOM      7  N   UNL     1       1.557   8.203  20.391  0.00  0.00    +0.000 NA
ATOM      8  H   UNL     1       2.361   6.075  20.995  0.00  0.00    +0.000 HD
ENDROOT
BRANCH   6   9
ATOM      9  C   UNL     1       0.283  10.186  20.834  0.00  0.00    +0.000 A 
ATOM     10  C   UNL     1       0.065  11.537  20.545  0.00  0.00    +0.000 A 
ATOM     11  C   UNL     1      -0.609  12.378  21.431  0.00  0.00    +0.000 A 
ATOM     12  C   UNL     1      -1.120  11.898  22.641  0.00  0.00    +0.000 A 
ATOM     13  C   UNL     1      -0.899  10.555  22.956  0.00  0.00    +0.000 A 
ATOM     14  C   UNL     1      -0.210   9.709  22.063  0.00  0.00    +0.000 A 
BRANCH  12  15
ATOM     15  N   UNL     1      -1.860  12.725  23.531  0.00  0.00    +0.000 N 
ATOM     16  C   UNL     1      -3.247  12.855  23.553  0.00  0.00    +0.000 C 
ATOM     17  O   UNL     1      -4.040  12.253  22.827  0.00  0.00    +0.000 OA
ATOM     18  H   UNL     1      -1.306  13.249  24.204  0.00  0.00    +0.000 HD
BRANCH  16  19
ATOM     19  C   UNL     1      -3.824  13.760  24.611  0.00  0.00    +0.000 C 
BRANCH  19  20
ATOM     20  C   UNL     1      -2.729  14.650  25.177  0.00  0.00    +0.000 C 
ATOM     21  N   UNL     1      -1.821  15.388  25.648  0.00  0.00    +0.000 NA
ENDBRANCH  19  20
ENDBRANCH  16  19
ENDBRANCH  12  15
ENDBRANCH   6   9
BRANCH   1  24
ATOM     22  N   UNL     1       5.542   4.706  18.606  0.00  0.00    +0.000 N 
ATOM     23  C   UNL     1       4.903   5.852  18.995  0.00  0.00    +0.000 A 
ATOM     24  C   UNL     1       3.728   5.442  19.571  0.00  0.00    +0.000 A 
ATOM     25  C   UNL     1       3.733   4.037  19.449  0.00  0.00    +0.000 A 
ATOM     26  N   UNL     1       4.838   3.584  18.850  0.00  0.00    +0.000 NA
BRANCH  22  27
ATOM     27  C   UNL     1       6.847   4.598  17.993  0.00  0.00    +0.000 C 
BRANCH  27  28
ATOM     28  C   UNL     1       7.367   5.949  17.529  0.00  0.00    +0.000 C 
BRANCH  28  30
ATOM     29  C   UNL     1       7.069   4.714  15.550  0.00  0.00    +0.000 C 
ATOM     30  O   UNL     1       7.339   5.998  16.100  0.00  0.00    +0.000 OA
ENDBRANCH  28  30
ENDBRANCH  27  28
ENDBRANCH  22  27
ENDBRANCH   1  24
TORSDOF 8
ENDMDL
MODEL 2
REMARK VINA RESULT:      -7.4      1.219      1.472
REMARK  Name = 
REMARK  9 active torsions:
REMARK  status: ('A' for Active; 'I' for Inactive)
REMARK    1  A    between atoms: C_1  and  O_2
REMARK    2  A    between atoms: O_2  and  C_3
REMARK    3  A    between atoms: C_3  and  C_4
REMARK    4  A    between atoms: C_4  and  N_5
REMARK    5  A    between atoms: C_7  and  N_8
REMARK    6  A    between atoms: C_13  and  C_14
REMARK    7  A    between atoms: C_17  and  N_18
REMARK    8  A    between atoms: C_19  and  C_21
REMARK    9  A    between atoms: C_21  and  C_22
REMARK                            x       y       z     vdW  Elec       q    Type
REMARK                         _______ _______ _______ _____ _____    ______ ____
ROOT
ATOM      1  N   UNL     1       2.795   6.155  20.036  0.00  0.00    +0.000 N 
ATOM      2  C   UNL     1       2.305   7.356  19.518  0.00  0.00    +0.000 A 
ATOM      3  N   UNL     1       2.620   7.720  18.264  0.00  0.00    +0.000 NA
ATOM      4  C   UNL     1       2.082   8.850  17.792  0.00  0.00    +0.000 A 
ATOM      5  C   UNL     1       1.264   9.651  18.541  0.00  0.00    +0.000 A 
ATOM      6  C   UNL     1       1.009   9.229  19.834  0.00  0.00    +0.000 A 
ATOM      7  N   UNL     1       1.508   8.073  20.323  0.00  0.00    +0.000 NA
ATOM      8  H   UNL     1       2.261   5.908  20.857  0.00  0.00    +0.000 HD
ENDROOT
BRANCH   6   9
ATOM      9  C   UNL     1       0.157  10.008  20.751  0.00  0.00    +0.000 A 
ATOM     10  C   UNL     1      -0.504  11.156  20.303  0.00  0.00    +0.000 A 
ATOM     11  C   UNL     1      -1.312  11.916  21.150  0.00  0.00    +0.000 A 
ATOM     12  C   UNL     1      -1.517  11.547  22.482  0.00  0.00    +0.000 A 
ATOM     13  C   UNL     1      -0.853  10.412  22.955  0.00  0.00    +0.000 A 
ATOM     14  C   UNL     1      -0.030   9.650  22.100  0.00  0.00    +0.000 A 
BRANCH  12  15
ATOM     15  N   UNL     1      -2.381  12.276  23.345  0.00  0.00    +0.000 N 
ATOM     16  C   UNL     1      -3.718  12.577  23.088  0.00  0.00    +0.000 C 
ATOM     17  O   UNL     1      -4.356  12.234  22.093  0.00  0.00    +0.000 OA
ATOM     18  H   UNL     1      -1.967  12.585  24.221  0.00  0.00    +0.000 HD
BRANCH  16  19
ATOM     19  C   UNL     1      -4.458  13.329  24.164  0.00  0.00    +0.000 C 
BRANCH  19  20
ATOM     20  C   UNL     1      -5.911  12.882  24.196  0.00  0.00    +0.000 C 
ATOM     21  N   UNL     1      -7.116  12.512  24.223  0.00  0.00    +0.000 NA
ENDBRANCH  19  20
ENDBRANCH  16  19
ENDBRANCH  12  15
ENDBRANCH   6   9
BRANCH   1  24
ATOM     22  N   UNL     1       5.712   4.758  18.721  0.00  0.00    +0.000 N 
ATOM     23  C   UNL     1       4.988   5.869  19.055  0.00  0.00    +0.000 A 
ATOM     24  C   UNL     1       3.809   5.398  19.577  0.00  0.00    +0.000 A 
ATOM     25  C   UNL     1       3.903   3.994  19.480  0.00  0.00    +0.000 A 
ATOM     26  N   UNL     1       5.063   3.599  18.948  0.00  0.00    +0.000 NA
BRANCH  22  27
ATOM     27  C   UNL     1       7.051   4.718  18.179  0.00  0.00    +0.000 C 
BRANCH  27  28
ATOM     28  C   UNL     1       7.171   5.540  16.906  0.00  0.00    +0.000 C 
BRANCH  28  30
ATOM     29  C   UNL     1       6.337   4.081  15.260  0.00  0.00    +0.000 C 
ATOM     30  O   UNL     1       7.504   4.674  15.817  0.00  0.00    +0.000 OA
ENDBRANCH  28  30
ENDBRANCH  27  28
ENDBRANCH  22  27
ENDBRANCH   1  24
TORSDOF 8
ENDMDL
MODEL 3
REMARK VINA RESULT:      -7.4      1.027      1.416
REMARK  Name = 
REMARK  9 active torsions:
REMARK  status: ('A' for Active; 'I' for Inactive)
REMARK    1  A    between atoms: C_1  and  O_2
REMARK    2  A    between atoms: O_2  and  C_3
REMARK    3  A    between atoms: C_3  and  C_4
REMARK    4  A    between atoms: C_4  and  N_5
REMARK    5  A    between atoms: C_7  and  N_8
REMARK    6  A    between atoms: C_13  and  C_14
REMARK    7  A    between atoms: C_17  and  N_18
REMARK    8  A    between atoms: C_19  and  C_21
REMARK    9  A    between atoms: C_21  and  C_22
REMARK                            x       y       z     vdW  Elec       q    Type
REMARK                         _______ _______ _______ _____ _____    ______ ____
ROOT
ATOM      1  N   UNL     1       2.989   6.047  20.017  0.00  0.00    +0.000 N 
ATOM      2  C   UNL     1       2.431   7.205  19.471  0.00  0.00    +0.000 A 
ATOM      3  N   UNL     1       2.645   7.505  18.180  0.00  0.00    +0.000 NA
ATOM      4  C   UNL     1       2.045   8.594  17.687  0.00  0.00    +0.000 A 
ATOM      5  C   UNL     1       1.262   9.417  18.448  0.00  0.00    +0.000 A 
ATOM      6  C   UNL     1       1.112   9.064  19.778  0.00  0.00    +0.000 A 
ATOM      7  N   UNL     1       1.676   7.949  20.292  0.00  0.00    +0.000 NA
ATOM      8  H   UNL     1       2.522   5.836  20.887  0.00  0.00    +0.000 HD
ENDROOT
BRANCH   6   9
ATOM      9  C   UNL     1       0.308   9.874  20.711  0.00  0.00    +0.000 A 
ATOM     10  C   UNL     1       0.059   9.422  22.011  0.00  0.00    +0.000 A 
ATOM     11  C   UNL     1      -0.704  10.164  22.914  0.00  0.00    +0.000 A 
ATOM     12  C   UNL     1      -1.233  11.409  22.564  0.00  0.00    +0.000 A 
ATOM     13  C   UNL     1      -1.010  11.873  21.266  0.00  0.00    +0.000 A 
ATOM     14  C   UNL     1      -0.246  11.118  20.352  0.00  0.00    +0.000 A 
BRANCH  12  15
ATOM     15  N   UNL     1      -1.964  12.206  23.488  0.00  0.00    +0.000 N 
ATOM     16  C   UNL     1      -3.305  12.565  23.365  0.00  0.00    +0.000 C 
ATOM     17  O   UNL     1      -4.063  12.224  22.457  0.00  0.00    +0.000 OA
ATOM     18  H   UNL     1      -1.443  12.522  24.303  0.00  0.00    +0.000 HD
BRANCH  16  19
ATOM     19  C   UNL     1      -3.889  13.386  24.486  0.00  0.00    +0.000 C 
BRANCH  19  20
ATOM     20  C   UNL     1      -4.940  14.336  23.934  0.00  0.00    +0.000 C 
ATOM     21  N   UNL     1      -5.812  15.124  23.477  0.00  0.00    +0.000 NA
ENDBRANCH  19  20
ENDBRANCH  16  19
ENDBRANCH  12  15
ENDBRANCH   6   9
BRANCH   1  24
ATOM     22  N   UNL     1       5.823   4.641  18.541  0.00  0.00    +0.000 N 
ATOM     23  C   UNL     1       5.084   5.751  18.845  0.00  0.00    +0.000 A 
ATOM     24  C   UNL     1       3.987   5.289  19.526  0.00  0.00    +0.000 A 
ATOM     25  C   UNL     1       4.137   3.886  19.550  0.00  0.00    +0.000 A 
ATOM     26  N   UNL     1       5.255   3.486  18.939  0.00  0.00    +0.000 NA
BRANCH  22  27
ATOM     27  C   UNL     1       7.103   4.599  17.869  0.00  0.00    +0.000 C 
BRANCH  27  28
ATOM     28  C   UNL     1       7.172   5.596  16.724  0.00  0.00    +0.000 C 
BRANCH  28  30
ATOM     29  C   UNL     1       6.576   4.424  14.774  0.00  0.00    +0.000 C 
ATOM     30  O   UNL     1       7.653   4.932  15.551  0.00  0.00    +0.000 OA
ENDBRANCH  28  30
ENDBRANCH  27  28
ENDBRANCH  22  27
ENDBRANCH   1  24
TORSDOF 8
ENDMDL
MODEL 4
REMARK VINA RESULT:      -7.1      1.157      1.246
REMARK  Name = 
REMARK  9 active torsions:
REMARK  status: ('A' for Active; 'I' for Inactive)
REMARK    1  A    between atoms: C_1  and  O_2
REMARK    2  A    between atoms: O_2  and  C_3
REMARK    3  A    between atoms: C_3  and  C_4
REMARK    4  A    between atoms: C_4  and  N_5
REMARK    5  A    between atoms: C_7  and  N_8
REMARK    6  A    between atoms: C_13  and  C_14
REMARK    7  A    between atoms: C_17  and  N_18
REMARK    8  A    between atoms: C_19  and  C_21
REMARK    9  A    between atoms: C_21  and  C_22
REMARK                            x       y       z     vdW  Elec       q    Type
REMARK                         _______ _______ _______ _____ _____    ______ ____
ROOT
ATOM      1  N   UNL     1       2.763   6.238  20.081  0.00  0.00    +0.000 N 
ATOM      2  C   UNL     1       2.242   7.406  19.521  0.00  0.00    +0.000 A 
ATOM      3  N   UNL     1       2.479   7.690  18.229  0.00  0.00    +0.000 NA
ATOM      4  C   UNL     1       1.914   8.790  17.721  0.00  0.00    +0.000 A 
ATOM      5  C   UNL     1       1.144   9.640  18.467  0.00  0.00    +0.000 A 
ATOM      6  C   UNL     1       0.970   9.301  19.798  0.00  0.00    +0.000 A 
ATOM      7  N   UNL     1       1.498   8.176  20.326  0.00  0.00    +0.000 NA
ATOM      8  H   UNL     1       2.281   6.046  20.948  0.00  0.00    +0.000 HD
ENDROOT
BRANCH   6   9
ATOM      9  C   UNL     1       0.177  10.140  20.715  0.00  0.00    +0.000 A 
ATOM     10  C   UNL     1      -0.487  11.277  20.243  0.00  0.00    +0.000 A 
ATOM     11  C   UNL     1      -1.239  12.093  21.089  0.00  0.00    +0.000 A 
ATOM     12  C   UNL     1      -1.383  11.794  22.446  0.00  0.00    +0.000 A 
ATOM     13  C   UNL     1      -0.714  10.672  22.943  0.00  0.00    +0.000 A 
ATOM     14  C   UNL     1       0.052   9.853  22.088  0.00  0.00    +0.000 A 
BRANCH  12  15
ATOM     15  N   UNL     1      -2.191  12.580  23.313  0.00  0.00    +0.000 N 
ATOM     16  C   UNL     1      -1.823  13.798  23.882  0.00  0.00    +0.000 C 
ATOM     17  O   UNL     1      -0.758  14.387  23.698  0.00  0.00    +0.000 OA
ATOM     18  H   UNL     1      -3.116  12.203  23.512  0.00  0.00    +0.000 HD
BRANCH  16  19
ATOM     19  C   UNL     1      -2.856  14.480  24.741  0.00  0.00    +0.000 C 
BRANCH  19  20
ATOM     20  C   UNL     1      -4.176  14.561  23.992  0.00  0.00    +0.000 C 
ATOM     21  N   UNL     1      -5.272  14.627  23.370  0.00  0.00    +0.000 NA
ENDBRANCH  19  20
ENDBRANCH  16  19
ENDBRANCH  12  15
ENDBRANCH   6   9
BRANCH   1  24
ATOM     22  N   UNL     1       5.586   4.747  18.668  0.00  0.00    +0.000 N 
ATOM     23  C   UNL     1       4.881   5.880  18.969  0.00  0.00    +0.000 A 
ATOM     24  C   UNL     1       3.746   5.449  19.608  0.00  0.00    +0.000 A 
ATOM     25  C   UNL     1       3.841   4.042  19.611  0.00  0.00    +0.000 A 
ATOM     26  N   UNL     1       4.962   3.609  19.028  0.00  0.00    +0.000 NA
BRANCH  22  27
ATOM     27  C   UNL     1       6.884   4.667  18.035  0.00  0.00    +0.000 C 
BRANCH  27  28
ATOM     28  C   UNL     1       7.321   6.008  17.470  0.00  0.00    +0.000 C 
BRANCH  28  30
ATOM     29  C   UNL     1       7.117   4.604  15.595  0.00  0.00    +0.000 C 
ATOM     30  O   UNL     1       7.317   5.940  16.041  0.00  0.00    +0.000 OA
ENDBRANCH  28  30
ENDBRANCH  27  28
ENDBRANCH  22  27
ENDBRANCH   1  24
TORSDOF 8
ENDMDL
MODEL 5
REMARK VINA RESULT:      -7.1      2.848     11.474
REMARK  Name = 
REMARK  9 active torsions:
REMARK  status: ('A' for Active; 'I' for Inactive)
REMARK    1  A    between atoms: C_1  and  O_2
REMARK    2  A    between atoms: O_2  and  C_3
REMARK    3  A    between atoms: C_3  and  C_4
REMARK    4  A    between atoms: C_4  and  N_5
REMARK    5  A    between atoms: C_7  and  N_8
REMARK    6  A    between atoms: C_13  and  C_14
REMARK    7  A    between atoms: C_17  and  N_18
REMARK    8  A    between atoms: C_19  and  C_21
REMARK    9  A    between atoms: C_21  and  C_22
REMARK                            x       y       z     vdW  Elec       q    Type
REMARK                         _______ _______ _______ _____ _____    ______ ____
ROOT
ATOM      1  N   UNL     1       1.385   8.674  20.084  0.00  0.00    +0.000 N 
ATOM      2  C   UNL     1       1.815   7.349  19.988  0.00  0.00    +0.000 A 
ATOM      3  N   UNL     1       1.407   6.448  20.898  0.00  0.00    +0.000 NA
ATOM      4  C   UNL     1       1.799   5.180  20.734  0.00  0.00    +0.000 A 
ATOM      5  C   UNL     1       2.614   4.782  19.711  0.00  0.00    +0.000 A 
ATOM      6  C   UNL     1       3.021   5.770  18.831  0.00  0.00    +0.000 A 
ATOM      7  N   UNL     1       2.608   7.050  18.950  0.00  0.00    +0.000 NA
ATOM      8  H   UNL     1       1.552   9.138  19.202  0.00  0.00    +0.000 HD
ENDROOT
BRANCH   6   9
ATOM      9  C   UNL     1       3.913   5.478  17.693  0.00  0.00    +0.000 A 
ATOM     10  C   UNL     1       4.291   4.162  17.408  0.00  0.00    +0.000 A 
ATOM     11  C   UNL     1       5.139   3.856  16.343  0.00  0.00    +0.000 A 
ATOM     12  C   UNL     1       5.629   4.854  15.496  0.00  0.00    +0.000 A 
ATOM     13  C   UNL     1       5.276   6.177  15.773  0.00  0.00    +0.000 A 
ATOM     14  C   UNL     1       4.426   6.486  16.855  0.00  0.00    +0.000 A 
BRANCH  12  15
ATOM     15  N   UNL     1       6.447   4.557  14.371  0.00  0.00    +0.000 N 
ATOM     16  C   UNL     1       6.016   3.955  13.191  0.00  0.00    +0.000 C 
ATOM     17  O   UNL     1       4.860   3.618  12.934  0.00  0.00    +0.000 OA
ATOM     18  H   UNL     1       7.425   4.825  14.458  0.00  0.00    +0.000 HD
BRANCH  16  19
ATOM     19  C   UNL     1       7.050   3.771  12.110  0.00  0.00    +0.000 C 
BRANCH  19  20
ATOM     20  C   UNL     1       6.873   2.410  11.455  0.00  0.00    +0.000 C 
ATOM     21  N   UNL     1       6.725   1.282  10.912  0.00  0.00    +0.000 NA
ENDBRANCH  19  20
ENDBRANCH  16  19
ENDBRANCH  12  15
ENDBRANCH   6   9
BRANCH   1  24
ATOM     22  N   UNL     1      -0.394  10.612  22.379  0.00  0.00    +0.000 N 
ATOM     23  C   UNL     1      -0.146  10.259  21.081  0.00  0.00    +0.000 A 
ATOM     24  C   UNL     1       0.835   9.302  21.140  0.00  0.00    +0.000 A 
ATOM     25  C   UNL     1       1.137   9.174  22.511  0.00  0.00    +0.000 A 
ATOM     26  N   UNL     1       0.393   9.981  23.272  0.00  0.00    +0.000 NA
BRANCH  22  27
ATOM     27  C   UNL     1      -1.384  11.551  22.855  0.00  0.00    +0.000 C 
BRANCH  27  28
ATOM     28  C   UNL     1      -2.035  12.315  21.713  0.00  0.00    +0.000 C 
BRANCH  28  30
ATOM     29  C   UNL     1      -4.225  12.796  21.006  0.00  0.00    +0.000 C 
ATOM     30  O   UNL     1      -3.339  12.743  22.117  0.00  0.00    +0.000 OA
ENDBRANCH  28  30
ENDBRANCH  27  28
ENDBRANCH  22  27
ENDBRANCH   1  24
TORSDOF 8
ENDMDL
MODEL 6
REMARK VINA RESULT:      -7.0      2.458      3.739
REMARK  Name = 
REMARK  9 active torsions:
REMARK  status: ('A' for Active; 'I' for Inactive)
REMARK    1  A    between atoms: C_1  and  O_2
REMARK    2  A    between atoms: O_2  and  C_3
REMARK    3  A    between atoms: C_3  and  C_4
REMARK    4  A    between atoms: C_4  and  N_5
REMARK    5  A    between atoms: C_7  and  N_8
REMARK    6  A    between atoms: C_13  and  C_14
REMARK    7  A    between atoms: C_17  and  N_18
REMARK    8  A    between atoms: C_19  and  C_21
REMARK    9  A    between atoms: C_21  and  C_22
REMARK                            x       y       z     vdW  Elec       q    Type
REMARK                         _______ _______ _______ _____ _____    ______ ____
ROOT
ATOM      1  N   UNL     1       5.163   6.557  17.547  0.00  0.00    +0.000 N 
ATOM      2  C   UNL     1       4.124   6.183  18.402  0.00  0.00    +0.000 A 
ATOM      3  N   UNL     1       3.943   4.887  18.703  0.00  0.00    +0.000 NA
ATOM      4  C   UNL     1       2.971   4.581  19.570  0.00  0.00    +0.000 A 
ATOM      5  C   UNL     1       2.148   5.523  20.123  0.00  0.00    +0.000 A 
ATOM      6  C   UNL     1       2.373   6.835  19.742  0.00  0.00    +0.000 A 
ATOM      7  N   UNL     1       3.372   7.174  18.899  0.00  0.00    +0.000 NA
ATOM      8  H   UNL     1       5.325   7.550  17.642  0.00  0.00    +0.000 HD
ENDROOT
BRANCH   6   9
ATOM      9  C   UNL     1       1.547   7.944  20.252  0.00  0.00    +0.000 A 
ATOM     10  C   UNL     1       1.278   9.056  19.448  0.00  0.00    +0.000 A 
ATOM     11  C   UNL     1       0.506  10.124  19.906  0.00  0.00    +0.000 A 
ATOM     12  C   UNL     1      -0.057  10.117  21.186  0.00  0.00    +0.000 A 
ATOM     13  C   UNL     1       0.213   9.023  22.011  0.00  0.00    +0.000 A 
ATOM     14  C   UNL     1       1.001   7.948  21.550  0.00  0.00    +0.000 A 
BRANCH  12  15
ATOM     15  N   UNL     1      -0.894  11.169  21.650  0.00  0.00    +0.000 N 
ATOM     16  C   UNL     1      -0.480  12.468  21.937  0.00  0.00    +0.000 C 
ATOM     17  O   UNL     1       0.663  12.907  21.805  0.00  0.00    +0.000 OA
ATOM     18  H   UNL     1      -1.876  10.928  21.767  0.00  0.00    +0.000 HD
BRANCH  16  19
ATOM     19  C   UNL     1      -1.548  13.434  22.381  0.00  0.00    +0.000 C 
BRANCH  19  20
ATOM     20  C   UNL     1      -2.667  12.679  23.079  0.00  0.00    +0.000 C 
ATOM     21  N   UNL     1      -3.595  12.052  23.659  0.00  0.00    +0.000 NA
ENDBRANCH  19  20
ENDBRANCH  16  19
ENDBRANCH  12  15
ENDBRANCH   6   9
BRANCH   1  24
ATOM     22  N   UNL     1       6.505   4.629  14.964  0.00  0.00    +0.000 N 
ATOM     23  C   UNL     1       5.483   5.400  15.448  0.00  0.00    +0.000 A 
ATOM     24  C   UNL     1       5.874   5.784  16.706  0.00  0.00    +0.000 A 
ATOM     25  C   UNL     1       7.127   5.166  16.903  0.00  0.00    +0.000 A 
ATOM     26  N   UNL     1       7.511   4.450  15.843  0.00  0.00    +0.000 NA
BRANCH  22  27
ATOM     27  C   UNL     1       6.600   4.025  13.655  0.00  0.00    +0.000 C 
BRANCH  27  28
ATOM     28  C   UNL     1       5.235   3.862  13.007  0.00  0.00    +0.000 C 
BRANCH  28  30
ATOM     29  C   UNL     1       4.160   2.986  11.107  0.00  0.00    +0.000 C 
ATOM     30  O   UNL     1       5.348   2.976  11.889  0.00  0.00    +0.000 OA
ENDBRANCH  28  30
ENDBRANCH  27  28
ENDBRANCH  22  27
ENDBRANCH   1  24
TORSDOF 8
ENDMDL
MODEL 7
REMARK VINA RESULT:      -6.9      1.276      1.624
REMARK  Name = 
REMARK  9 active torsions:
REMARK  status: ('A' for Active; 'I' for Inactive)
REMARK    1  A    between atoms: C_1  and  O_2
REMARK    2  A    between atoms: O_2  and  C_3
REMARK    3  A    between atoms: C_3  and  C_4
REMARK    4  A    between atoms: C_4  and  N_5
REMARK    5  A    between atoms: C_7  and  N_8
REMARK    6  A    between atoms: C_13  and  C_14
REMARK    7  A    between atoms: C_17  and  N_18
REMARK    8  A    between atoms: C_19  and  C_21
REMARK    9  A    between atoms: C_21  and  C_22
REMARK                            x       y       z     vdW  Elec       q    Type
REMARK                         _______ _______ _______ _____ _____    ______ ____
ROOT
ATOM      1  N   UNL     1       2.687   6.134  20.072  0.00  0.00    +0.000 N 
ATOM      2  C   UNL     1       2.253   7.332  19.500  0.00  0.00    +0.000 A 
ATOM      3  N   UNL     1       2.599   7.632  18.237  0.00  0.00    +0.000 NA
ATOM      4  C   UNL     1       2.114   8.764  17.713  0.00  0.00    +0.000 A 
ATOM      5  C   UNL     1       1.321   9.627  18.418  0.00  0.00    +0.000 A 
ATOM      6  C   UNL     1       1.034   9.269  19.724  0.00  0.00    +0.000 A 
ATOM      7  N   UNL     1       1.478   8.114  20.265  0.00  0.00    +0.000 NA
ATOM      8  H   UNL     1       2.133   5.943  20.895  0.00  0.00    +0.000 HD
ENDROOT
BRANCH   6   9
ATOM      9  C   UNL     1       0.204  10.119  20.598  0.00  0.00    +0.000 A 
ATOM     10  C   UNL     1       0.157   9.886  21.976  0.00  0.00    +0.000 A 
ATOM     11  C   UNL     1      -0.624  10.670  22.827  0.00  0.00    +0.000 A 
ATOM     12  C   UNL     1      -1.376  11.742  22.339  0.00  0.00    +0.000 A 
ATOM     13  C   UNL     1      -1.356  11.981  20.963  0.00  0.00    +0.000 A 
ATOM     14  C   UNL     1      -0.573  11.183  20.103  0.00  0.00    +0.000 A 
BRANCH  12  15
ATOM     15  N   UNL     1      -2.133  12.587  23.196  0.00  0.00    +0.000 N 
ATOM     16  C   UNL     1      -1.701  13.802  23.725  0.00  0.00    +0.000 C 
ATOM     17  O   UNL     1      -0.614  14.338  23.506  0.00  0.00    +0.000 OA
ATOM     18  H   UNL     1      -3.069  12.258  23.422  0.00  0.00    +0.000 HD
BRANCH  16  19
ATOM     19  C   UNL     1      -2.686  14.554  24.582  0.00  0.00    +0.000 C 
BRANCH  19  20
ATOM     20  C   UNL     1      -4.105  14.190  24.174  0.00  0.00    +0.000 C 
ATOM     21  N   UNL     1      -5.281  13.888  23.835  0.00  0.00    +0.000 NA
ENDBRANCH  19  20
ENDBRANCH  16  19
ENDBRANCH  12  15
ENDBRANCH   6   9
BRANCH   1  24
ATOM     22  N   UNL     1       5.487   4.548  18.718  0.00  0.00    +0.000 N 
ATOM     23  C   UNL     1       4.755   5.690  18.898  0.00  0.00    +0.000 A 
ATOM     24  C   UNL     1       3.674   5.318  19.657  0.00  0.00    +0.000 A 
ATOM     25  C   UNL     1       3.825   3.929  19.851  0.00  0.00    +0.000 A 
ATOM     26  N   UNL     1       4.929   3.453  19.269  0.00  0.00    +0.000 NA
BRANCH  22  27
ATOM     27  C   UNL     1       6.751   4.421  18.026  0.00  0.00    +0.000 C 
BRANCH  27  28
ATOM     28  C   UNL     1       6.731   5.123  16.678  0.00  0.00    +0.000 C 
BRANCH  28  30
ATOM     29  C   UNL     1       6.586   4.334  14.468  0.00  0.00    +0.000 C 
ATOM     30  O   UNL     1       5.974   4.339  15.752  0.00  0.00    +0.000 OA
ENDBRANCH  28  30
ENDBRANCH  27  28
ENDBRANCH  22  27
ENDBRANCH   1  24
TORSDOF 8
ENDMDL
MODEL 8
REMARK VINA RESULT:      -6.9      0.637      1.112
REMARK  Name = 
REMARK  9 active torsions:
REMARK  status: ('A' for Active; 'I' for Inactive)
REMARK    1  A    between atoms: C_1  and  O_2
REMARK    2  A    between atoms: O_2  and  C_3
REMARK    3  A    between atoms: C_3  and  C_4
REMARK    4  A    between atoms: C_4  and  N_5
REMARK    5  A    between atoms: C_7  and  N_8
REMARK    6  A    between atoms: C_13  and  C_14
REMARK    7  A    between atoms: C_17  and  N_18
REMARK    8  A    between atoms: C_19  and  C_21
REMARK    9  A    between atoms: C_21  and  C_22
REMARK                            x       y       z     vdW  Elec       q    Type
REMARK                         _______ _______ _______ _____ _____    ______ ____
ROOT
ATOM      1  N   UNL     1       2.468   6.407  20.160  0.00  0.00    +0.000 N 
ATOM      2  C   UNL     1       2.017   7.589  19.569  0.00  0.00    +0.000 A 
ATOM      3  N   UNL     1       2.160   7.770  18.246  0.00  0.00    +0.000 NA
ATOM      4  C   UNL     1       1.664   8.894  17.716  0.00  0.00    +0.000 A 
ATOM      5  C   UNL     1       1.057   9.862  18.467  0.00  0.00    +0.000 A 
ATOM      6  C   UNL     1       0.974   9.622  19.827  0.00  0.00    +0.000 A 
ATOM      7  N   UNL     1       1.432   8.479  20.382  0.00  0.00    +0.000 NA
ATOM      8  H   UNL     1       2.051   6.317  21.076  0.00  0.00    +0.000 HD
ENDROOT
BRANCH   6   9
ATOM      9  C   UNL     1       0.358  10.592  20.751  0.00  0.00    +0.000 A 
ATOM     10  C   UNL     1      -0.266  10.157  21.924  0.00  0.00    +0.000 A 
ATOM     11  C   UNL     1      -0.862  11.051  22.814  0.00  0.00    +0.000 A 
ATOM     12  C   UNL     1      -0.839  12.429  22.583  0.00  0.00    +0.000 A 
ATOM     13  C   UNL     1      -0.235  12.884  21.409  0.00  0.00    +0.000 A 
ATOM     14  C   UNL     1       0.360  11.979  20.506  0.00  0.00    +0.000 A 
BRANCH  12  15
ATOM     15  N   UNL     1      -1.391  13.361  23.506  0.00  0.00    +0.000 N 
ATOM     16  C   UNL     1      -2.708  13.814  23.510  0.00  0.00    +0.000 C 
ATOM     17  O   UNL     1      -3.597  13.455  22.737  0.00  0.00    +0.000 OA
ATOM     18  H   UNL     1      -0.750  13.705  24.218  0.00  0.00    +0.000 HD
BRANCH  16  19
ATOM     19  C   UNL     1      -3.088  14.774  24.608  0.00  0.00    +0.000 C 
BRANCH  19  20
ATOM     20  C   UNL     1      -1.845  15.194  25.377  0.00  0.00    +0.000 C 
ATOM     21  N   UNL     1      -0.814  15.542  26.014  0.00  0.00    +0.000 NA
ENDBRANCH  19  20
ENDBRANCH  16  19
ENDBRANCH  12  15
ENDBRANCH   6   9
BRANCH   1  24
ATOM     22  N   UNL     1       5.020   4.545  18.673  0.00  0.00    +0.000 N 
ATOM     23  C   UNL     1       4.491   5.763  19.002  0.00  0.00    +0.000 A 
ATOM     24  C   UNL     1       3.317   5.492  19.658  0.00  0.00    +0.000 A 
ATOM     25  C   UNL     1       3.208   4.085  19.642  0.00  0.00    +0.000 A 
ATOM     26  N   UNL     1       4.244   3.504  19.031  0.00  0.00    +0.000 NA
BRANCH  22  27
ATOM     27  C   UNL     1       6.280   4.289  18.013  0.00  0.00    +0.000 C 
BRANCH  27  28
ATOM     28  C   UNL     1       7.129   5.545  17.908  0.00  0.00    +0.000 C 
BRANCH  28  30
ATOM     29  C   UNL     1       7.046   4.709  15.711  0.00  0.00    +0.000 C 
ATOM     30  O   UNL     1       7.392   5.820  16.529  0.00  0.00    +0.000 OA
ENDBRANCH  28  30
ENDBRANCH  27  28
ENDBRANCH  22  27
ENDBRANCH   1  24
TORSDOF 8
ENDMDL
MODEL 9
REMARK VINA RESULT:      -6.7      2.577     11.124
REMARK  Name = 
REMARK  9 active torsions:
REMARK  status: ('A' for Active; 'I' for Inactive)
REMARK    1  A    between atoms: C_1  and  O_2
REMARK    2  A    between atoms: O_2  and  C_3
REMARK    3  A    between atoms: C_3  and  C_4
REMARK    4  A    between atoms: C_4  and  N_5
REMARK    5  A    between atoms: C_7  and  N_8
REMARK    6  A    between atoms: C_13  and  C_14
REMARK    7  A    between atoms: C_17  and  N_18
REMARK    8  A    between atoms: C_19  and  C_21
REMARK    9  A    between atoms: C_21  and  C_22
REMARK                            x       y       z     vdW  Elec       q    Type
REMARK                         _______ _______ _______ _____ _____    ______ ____
ROOT
ATOM      1  N   UNL     1       1.128   8.871  20.295  0.00  0.00    +0.000 N 
ATOM      2  C   UNL     1       1.597   7.559  20.191  0.00  0.00    +0.000 A 
ATOM      3  N   UNL     1       1.223   6.643  21.100  0.00  0.00    +0.000 NA
ATOM      4  C   UNL     1       1.652   5.388  20.929  0.00  0.00    +0.000 A 
ATOM      5  C   UNL     1       2.471   5.019  19.898  0.00  0.00    +0.000 A 
ATOM      6  C   UNL     1       2.842   6.022  19.019  0.00  0.00    +0.000 A 
ATOM      7  N   UNL     1       2.392   7.289  19.147  0.00  0.00    +0.000 NA
ATOM      8  H   UNL     1       1.274   9.343  19.414  0.00  0.00    +0.000 HD
ENDROOT
BRANCH   6   9
ATOM      9  C   UNL     1       3.734   5.762  17.874  0.00  0.00    +0.000 A 
ATOM     10  C   UNL     1       4.319   6.822  17.176  0.00  0.00    +0.000 A 
ATOM     11  C   UNL     1       5.162   6.607  16.085  0.00  0.00    +0.000 A 
ATOM     12  C   UNL     1       5.480   5.314  15.657  0.00  0.00    +0.000 A 
ATOM     13  C   UNL     1       4.893   4.241  16.331  0.00  0.00    +0.000 A 
ATOM     14  C   UNL     1       4.034   4.461  17.429  0.00  0.00    +0.000 A 
BRANCH  12  15
ATOM     15  N   UNL     1       6.382   5.072  14.585  0.00  0.00    +0.000 N 
ATOM     16  C   UNL     1       6.090   4.355  13.426  0.00  0.00    +0.000 C 
ATOM     17  O   UNL     1       5.003   3.850  13.145  0.00  0.00    +0.000 OA
ATOM     18  H   UNL     1       7.311   5.475  14.693  0.00  0.00    +0.000 HD
BRANCH  16  19
ATOM     19  C   UNL     1       7.189   4.256  12.399  0.00  0.00    +0.000 C 
BRANCH  19  20
ATOM     20  C   UNL     1       8.273   5.276  12.706  0.00  0.00    +0.000 C 
ATOM     21  N   UNL     1       9.173   6.122  12.962  0.00  0.00    +0.000 NA
ENDBRANCH  19  20
ENDBRANCH  16  19
ENDBRANCH  12  15
ENDBRANCH   6   9
BRANCH   1  24
ATOM     22  N   UNL     1      -0.649  10.788  22.609  0.00  0.00    +0.000 N 
ATOM     23  C   UNL     1      -0.368  10.480  21.306  0.00  0.00    +0.000 A 
ATOM     24  C   UNL     1       0.567   9.477  21.358  0.00  0.00    +0.000 A 
ATOM     25  C   UNL     1       0.811   9.277  22.732  0.00  0.00    +0.000 A 
ATOM     26  N   UNL     1       0.075  10.085  23.501  0.00  0.00    +0.000 NA
BRANCH  22  27
ATOM     27  C   UNL     1      -1.614  11.751  23.091  0.00  0.00    +0.000 C 
BRANCH  27  28
ATOM     28  C   UNL     1      -1.207  13.176  22.756  0.00  0.00    +0.000 C 
BRANCH  28  30
ATOM     29  C   UNL     1      -1.062  15.165  24.002  0.00  0.00    +0.000 C 
ATOM     30  O   UNL     1      -1.899  14.079  23.624  0.00  0.00    +0.000 OA
ENDBRANCH  28  30
ENDBRANCH  27  28
ENDBRANCH  22  27
ENDBRANCH   1  24
TORSDOF 8
ENDMDL
