MODEL 1
REMARK VINA RESULT:      -7.3      0.000      0.000
REMARK  Name = 
REMARK  8 active torsions:
REMARK  status: ('A' for Active; 'I' for Inactive)
REMARK    1  A    between atoms: C_1  and  O_2
REMARK    2  A    between atoms: O_2  and  C_3
REMARK    3  A    between atoms: C_3  and  C_5
REMARK    4  A    between atoms: C_5  and  O_6
REMARK    5  A    between atoms: C_5  and  C_7
REMARK    6  A    between atoms: C_5  and  C_19
REMARK    7  A    between atoms: C_7  and  C_8
REMARK    8  A    between atoms: N_10  and  C_11
REMARK                            x       y       z     vdW  Elec       q    Type
REMARK                         _______ _______ _______ _____ _____    ______ ____
ROOT
ATOM      1  C   UNL     1       4.839   5.408  16.205  0.00  0.00    +0.000 C 
ENDROOT
BRANCH   1   2
ATOM      2  C   UNL     1       4.220   5.151  17.559  0.00  0.00    +0.000 C 
ATOM      3  O   UNL     1       4.495   5.854  18.535  0.00  0.00    +0.000 OA
ATOM      4  N   UNL     1       3.402   4.039  17.605  0.00  0.00    +0.000 N 
ATOM      5  H   UNL     1       3.645   3.279  16.975  0.00  0.00    +0.000 HD
BRANCH   4   6
ATOM      6  C   UNL     1       2.792   3.663  18.819  0.00  0.00    +0.000 A 
ATOM      7  C   UNL     1       1.457   3.982  19.077  0.00  0.00    +0.000 A 
ATOM      8  C   UNL     1       0.858   3.551  20.263  0.00  0.00    +0.000 A 
ATOM      9  C   UNL     1       1.602   2.835  21.201  0.00  0.00    +0.000 A 
ATOM     10 CL   UNL     1       0.851   2.297  22.652  0.00  0.00    +0.000 Cl
ATOM     11  C   UNL     1       2.944   2.544  20.968  0.00  0.00    +0.000 A 
ATOM     12  C   UNL     1       3.523   2.942  19.768  0.00  0.00    +0.000 A 
ATOM     13  F   UNL     1       4.822   2.686  19.551  0.00  0.00    +0.000 F 
ENDBRANCH   4   6
ENDBRANCH   1   2
BRANCH   1  14
ATOM     14  C   UNL     1       6.017   4.454  15.937  0.00  0.00    +0.000 C 
BRANCH  14  15
ATOM     15  C   UNL     1       6.309   4.419  14.426  0.00  0.00    +0.000 C 
ATOM     16  F   UNL     1       5.322   4.952  13.668  0.00  0.00    +0.000 F 
ATOM     17  F   UNL     1       7.441   5.094  14.110  0.00  0.00    +0.000 F 
ATOM     18  F   UNL     1       6.490   3.150  13.983  0.00  0.00    +0.000 F 
ENDBRANCH  14  15
BRANCH  14  19
ATOM     19  C   UNL     1       7.310   4.986  16.576  0.00  0.00    +0.000 C 
ATOM     20  O   UNL     1       8.158   4.264  17.094  0.00  0.00    +0.000 OA
BRANCH  19  22
ATOM     21  C   UNL     1       7.678   7.016  17.710  0.00  0.00    +0.000 C 
ATOM     22  O   UNL     1       7.379   6.335  16.490  0.00  0.00    +0.000 OA
ENDBRANCH  19  22
ENDBRANCH  14  19
BRANCH  14  23
ATOM     23  O   UNL     1       5.630   3.148  16.429  0.00  0.00    +0.000 OA
ATOM     24  H   UNL     1       6.163   2.488  15.939  0.00  0.00    +0.000 HD
ENDBRANCH  14  23
ENDBRANCH   1  14
TORSDOF 7
ENDMDL
MODEL 2
REMARK VINA RESULT:      -7.0      0.662      1.163
REMARK  Name = 
REMARK  8 active torsions:
REMARK  status: ('A' for Active; 'I' for Inactive)
REMARK    1  A    between atoms: C_1  and  O_2
REMARK    2  A    between atoms: O_2  and  C_3
REMARK    3  A    between atoms: C_3  and  C_5
REMARK    4  A    between atoms: C_5  and  O_6
REMARK    5  A    between atoms: C_5  and  C_7
REMARK    6  A    between atoms: C_5  and  C_19
REMARK    7  A    between atoms: C_7  and  C_8
REMARK    8  A    between atoms: N_10  and  C_11
REMARK                            x       y       z     vdW  Elec       q    Type
REMARK                         _______ _______ _______ _____ _____    ______ ____
ROOT
ATOM      1  C   UNL     1       4.738   5.514  16.342  0.00  0.00    +0.000 C 
ENDROOT
BRANCH   1   2
ATOM      2  C   UNL     1       4.070   5.240  17.668  0.00  0.00    +0.000 C 
ATOM      3  O   UNL     1       4.174   6.026  18.614  0.00  0.00    +0.000 OA
ATOM      4  N   UNL     1       3.419   4.023  17.734  0.00  0.00    +0.000 N 
ATOM      5  H   UNL     1       3.811   3.276  17.168  0.00  0.00    +0.000 HD
BRANCH   4   6
ATOM      6  C   UNL     1       2.786   3.627  18.930  0.00  0.00    +0.000 A 
ATOM      7  C   UNL     1       1.423   3.852  19.126  0.00  0.00    +0.000 A 
ATOM      8  C   UNL     1       0.806   3.401  20.295  0.00  0.00    +0.000 A 
ATOM      9  C   UNL     1       1.560   2.758  21.278  0.00  0.00    +0.000 A 
ATOM     10 CL   UNL     1       0.788   2.193  22.708  0.00  0.00    +0.000 Cl
ATOM     11  C   UNL     1       2.928   2.562  21.107  0.00  0.00    +0.000 A 
ATOM     12  C   UNL     1       3.527   2.979  19.923  0.00  0.00    +0.000 A 
ATOM     13  F   UNL     1       4.849   2.813  19.765  0.00  0.00    +0.000 F 
ENDBRANCH   4   6
ENDBRANCH   1   2
BRANCH   1  14
ATOM     14  C   UNL     1       6.140   4.880  16.278  0.00  0.00    +0.000 C 
BRANCH  14  15
ATOM     15  C   UNL     1       6.563   4.727  14.806  0.00  0.00    +0.000 C 
ATOM     16  F   UNL     1       6.332   3.493  14.298  0.00  0.00    +0.000 F 
ATOM     17  F   UNL     1       5.915   5.601  13.996  0.00  0.00    +0.000 F 
ATOM     18  F   UNL     1       7.887   4.969  14.639  0.00  0.00    +0.000 F 
ENDBRANCH  14  15
BRANCH  14  19
ATOM     19  C   UNL     1       7.193   5.813  16.896  0.00  0.00    +0.000 C 
ATOM     20  O   UNL     1       7.354   6.980  16.549  0.00  0.00    +0.000 OA
BRANCH  19  22
ATOM     21  C   UNL     1       7.878   5.785  19.149  0.00  0.00    +0.000 C 
ATOM     22  O   UNL     1       7.906   5.177  17.856  0.00  0.00    +0.000 OA
ENDBRANCH  19  22
ENDBRANCH  14  19
BRANCH  14  23
ATOM     23  O   UNL     1       6.058   3.593  16.937  0.00  0.00    +0.000 OA
ATOM     24  H   UNL     1       5.106   3.390  17.055  0.00  0.00    +0.000 HD
ENDBRANCH  14  23
ENDBRANCH   1  14
TORSDOF 7
ENDMDL
MODEL 3
REMARK VINA RESULT:      -7.0      1.297      1.765
REMARK  Name = 
REMARK  8 active torsions:
REMARK  status: ('A' for Active; 'I' for Inactive)
REMARK    1  A    between atoms: C_1  and  O_2
REMARK    2  A    between atoms: O_2  and  C_3
REMARK    3  A    between atoms: C_3  and  C_5
REMARK    4  A    between atoms: C_5  and  O_6
REMARK    5  A    between atoms: C_5  and  C_7
REMARK    6  A    between atoms: C_5  and  C_19
REMARK    7  A    between atoms: C_7  and  C_8
REMARK    8  A    between atoms: N_10  and  C_11
REMARK                            x       y       z     vdW  Elec       q    Type
REMARK                         _______ _______ _______ _____ _____    ______ ____
ROOT
ATOM      1  C   UNL     1       4.903   5.237  16.188  0.00  0.00    +0.000 C 
ENDROOT
BRANCH   1   2
ATOM      2  C   UNL     1       3.989   4.483  17.125  0.00  0.00    +0.000 C 
ATOM      3  O   UNL     1       3.073   3.777  16.696  0.00  0.00    +0.000 OA
ATOM      4  N   UNL     1       4.230   4.720  18.464  0.00  0.00    +0.000 N 
ATOM      5  H   UNL     1       4.592   5.641  18.696  0.00  0.00    +0.000 HD
BRANCH   4   6
ATOM      6  C   UNL     1       3.422   4.109  19.444  0.00  0.00    +0.000 A 
ATOM      7  C   UNL     1       3.800   2.899  20.029  0.00  0.00    +0.000 A 
ATOM      8  C   UNL     1       3.012   2.340  21.037  0.00  0.00    +0.000 A 
ATOM      9  C   UNL     1       1.833   2.972  21.432  0.00  0.00    +0.000 A 
ATOM     10 CL   UNL     1       0.876   2.283  22.686  0.00  0.00    +0.000 Cl
ATOM     11  C   UNL     1       1.429   4.161  20.829  0.00  0.00    +0.000 A 
ATOM     12  C   UNL     1       2.239   4.732  19.853  0.00  0.00    +0.000 A 
ATOM     13  F   UNL     1       1.841   5.863  19.251  0.00  0.00    +0.000 F 
ENDBRANCH   4   6
ENDBRANCH   1   2
BRANCH   1  14
ATOM     14  C   UNL     1       6.173   4.426  15.869  0.00  0.00    +0.000 C 
BRANCH  14  15
ATOM     15  C   UNL     1       6.551   4.631  14.391  0.00  0.00    +0.000 C 
ATOM     16  F   UNL     1       6.394   3.522  13.630  0.00  0.00    +0.000 F 
ATOM     17  F   UNL     1       5.809   5.604  13.806  0.00  0.00    +0.000 F 
ATOM     18  F   UNL     1       7.846   5.010  14.255  0.00  0.00    +0.000 F 
ENDBRANCH  14  15
BRANCH  14  19
ATOM     19  C   UNL     1       7.377   4.958  16.662  0.00  0.00    +0.000 C 
ATOM     20  O   UNL     1       8.167   4.235  17.264  0.00  0.00    +0.000 OA
BRANCH  19  22
ATOM     21  C   UNL     1       7.655   6.969  17.855  0.00  0.00    +0.000 C 
ATOM     22  O   UNL     1       7.441   6.309  16.605  0.00  0.00    +0.000 OA
ENDBRANCH  19  22
ENDBRANCH  14  19
BRANCH  14  23
ATOM     23  O   UNL     1       5.873   3.036  16.147  0.00  0.00    +0.000 OA
ATOM     24  H   UNL     1       6.727   2.557  16.168  0.00  0.00    +0.000 HD
ENDBRANCH  14  23
ENDBRANCH   1  14
TORSDOF 7
ENDMDL
MODEL 4
REMARK VINA RESULT:      -6.8      1.184      1.698
REMARK  Name = 
REMARK  8 active torsions:
REMARK  status: ('A' for Active; 'I' for Inactive)
REMARK    1  A    between atoms: C_1  and  O_2
REMARK    2  A    between atoms: O_2  and  C_3
REMARK    3  A    between atoms: C_3  and  C_5
REMARK    4  A    between atoms: C_5  and  O_6
REMARK    5  A    between atoms: C_5  and  C_7
REMARK    6  A    between atoms: C_5  and  C_19
REMARK    7  A    between atoms: C_7  and  C_8
REMARK    8  A    between atoms: N_10  and  C_11
REMARK                            x       y       z     vdW  Elec       q    Type
REMARK                         _______ _______ _______ _____ _____    ______ ____
ROOT
ATOM      1  C   UNL     1       4.805   5.575  16.374  0.00  0.00    +0.000 C 
ENDROOT
BRANCH   1   2
ATOM      2  C   UNL     1       4.118   5.224  17.673  0.00  0.00    +0.000 C 
ATOM      3  O   UNL     1       4.124   6.001  18.631  0.00  0.00    +0.000 OA
ATOM      4  N   UNL     1       3.569   3.957  17.700  0.00  0.00    +0.000 N 
ATOM      5  H   UNL     1       4.041   3.254  17.138  0.00  0.00    +0.000 HD
BRANCH   4   6
ATOM      6  C   UNL     1       2.932   3.489  18.867  0.00  0.00    +0.000 A 
ATOM      7  C   UNL     1       3.677   2.966  19.925  0.00  0.00    +0.000 A 
ATOM      8  C   UNL     1       3.029   2.560  21.095  0.00  0.00    +0.000 A 
ATOM      9  C   UNL     1       1.640   2.646  21.189  0.00  0.00    +0.000 A 
ATOM     10 CL   UNL     1       0.853   2.157  22.639  0.00  0.00    +0.000 Cl
ATOM     11  C   UNL     1       0.886   3.133  20.124  0.00  0.00    +0.000 A 
ATOM     12  C   UNL     1       1.541   3.572  18.978  0.00  0.00    +0.000 A 
ATOM     13  F   UNL     1       0.817   4.019  17.940  0.00  0.00    +0.000 F 
ENDBRANCH   4   6
ENDBRANCH   1   2
BRANCH   1  14
ATOM     14  C   UNL     1       6.192   4.914  16.277  0.00  0.00    +0.000 C 
BRANCH  14  15
ATOM     15  C   UNL     1       6.582   4.763  14.795  0.00  0.00    +0.000 C 
ATOM     16  F   UNL     1       5.913   5.602  13.968  0.00  0.00    +0.000 F 
ATOM     17  F   UNL     1       7.901   4.996  14.589  0.00  0.00    +0.000 F 
ATOM     18  F   UNL     1       6.344   3.508  14.342  0.00  0.00    +0.000 F 
ENDBRANCH  14  15
BRANCH  14  19
ATOM     19  C   UNL     1       7.276   5.822  16.879  0.00  0.00    +0.000 C 
ATOM     20  O   UNL     1       7.490   6.970  16.496  0.00  0.00    +0.000 OA
BRANCH  19  22
ATOM     21  C   UNL     1       7.747   5.713  19.184  0.00  0.00    +0.000 C 
ATOM     22  O   UNL     1       7.948   5.190  17.869  0.00  0.00    +0.000 OA
ENDBRANCH  19  22
ENDBRANCH  14  19
BRANCH  14  23
ATOM     23  O   UNL     1       6.098   3.625  16.929  0.00  0.00    +0.000 OA
ATOM     24  H   UNL     1       6.538   2.974  16.344  0.00  0.00    +0.000 HD
ENDBRANCH  14  23
ENDBRANCH   1  14
TORSDOF 7
ENDMDL
MODEL 5
REMARK VINA RESULT:      -6.8      3.711      6.742
REMARK  Name = 
REMARK  8 active torsions:
REMARK  status: ('A' for Active; 'I' for Inactive)
REMARK    1  A    between atoms: C_1  and  O_2
REMARK    2  A    between atoms: O_2  and  C_3
REMARK    3  A    between atoms: C_3  and  C_5
REMARK    4  A    between atoms: C_5  and  O_6
REMARK    5  A    between atoms: C_5  and  C_7
REMARK    6  A    between atoms: C_5  and  C_19
REMARK    7  A    between atoms: C_7  and  C_8
REMARK    8  A    between atoms: N_10  and  C_11
REMARK                            x       y       z     vdW  Elec       q    Type
REMARK                         _______ _______ _______ _____ _____    ______ ____
ROOT
ATOM      1  C   UNL     1       3.764   2.779  19.624  0.00  0.00    +0.000 C 
ENDROOT
BRANCH   1   2
ATOM      2  C   UNL     1       4.314   2.913  18.224  0.00  0.00    +0.000 C 
ATOM      3  O   UNL     1       4.129   2.036  17.375  0.00  0.00    +0.000 OA
ATOM      4  N   UNL     1       5.081   4.044  18.022  0.00  0.00    +0.000 N 
ATOM      5  H   UNL     1       5.590   4.387  18.831  0.00  0.00    +0.000 HD
BRANCH   4   6
ATOM      6  C   UNL     1       5.686   4.270  16.769  0.00  0.00    +0.000 A 
ATOM      7  C   UNL     1       4.932   4.236  15.595  0.00  0.00    +0.000 A 
ATOM      8  C   UNL     1       5.542   4.519  14.370  0.00  0.00    +0.000 A 
ATOM      9  C   UNL     1       6.907   4.798  14.319  0.00  0.00    +0.000 A 
ATOM     10 CL   UNL     1       7.646   5.158  12.808  0.00  0.00    +0.000 Cl
ATOM     11  C   UNL     1       7.675   4.798  15.482  0.00  0.00    +0.000 A 
ATOM     12  C   UNL     1       7.053   4.555  16.702  0.00  0.00    +0.000 A 
ATOM     13  F   UNL     1       7.794   4.529  17.820  0.00  0.00    +0.000 F 
ENDBRANCH   4   6
ENDBRANCH   1   2
BRANCH   1  14
ATOM     14  C   UNL     1       2.226   2.827  19.631  0.00  0.00    +0.000 C 
BRANCH  14  15
ATOM     15  C   UNL     1       1.733   3.168  21.049  0.00  0.00    +0.000 C 
ATOM     16  F   UNL     1       1.625   2.089  21.861  0.00  0.00    +0.000 F 
ATOM     17  F   UNL     1       2.557   4.040  21.679  0.00  0.00    +0.000 F 
ATOM     18  F   UNL     1       0.510   3.753  21.025  0.00  0.00    +0.000 F 
ENDBRANCH  14  15
BRANCH  14  19
ATOM     19  C   UNL     1       1.709   3.975  18.748  0.00  0.00    +0.000 C 
ATOM     20  O   UNL     1       0.949   3.811  17.797  0.00  0.00    +0.000 OA
BRANCH  19  22
ATOM     21  C   UNL     1       2.424   6.130  18.125  0.00  0.00    +0.000 C 
ATOM     22  O   UNL     1       2.204   5.167  19.157  0.00  0.00    +0.000 OA
ENDBRANCH  19  22
ENDBRANCH  14  19
BRANCH  14  23
ATOM     23  O   UNL     1       1.755   1.524  19.210  0.00  0.00    +0.000 OA
ATOM     24  H   UNL     1       1.611   0.995  20.021  0.00  0.00    +0.000 HD
ENDBRANCH  14  23
ENDBRANCH   1  14
TORSDOF 7
ENDMDL
MODEL 6
REMARK VINA RESULT:      -6.8      3.590      6.615
REMARK  Name = 
REMARK  8 active torsions:
REMARK  status: ('A' for Active; 'I' for Inactive)
REMARK    1  A    between atoms: C_1  and  O_2
REMARK    2  A    between atoms: O_2  and  C_3
REMARK    3  A    between atoms: C_3  and  C_5
REMARK    4  A    between atoms: C_5  and  O_6
REMARK    5  A    between atoms: C_5  and  C_7
REMARK    6  A    between atoms: C_5  and  C_19
REMARK    7  A    between atoms: C_7  and  C_8
REMARK    8  A    between atoms: N_10  and  C_11
REMARK                            x       y       z     vdW  Elec       q    Type
REMARK                         _______ _______ _______ _____ _____    ______ ____
ROOT
ATOM      1  C   UNL     1       4.155   4.435  19.908  0.00  0.00    +0.000 C 
ENDROOT
BRANCH   1   2
ATOM      2  C   UNL     1       4.675   4.869  18.558  0.00  0.00    +0.000 C 
ATOM      3  O   UNL     1       4.387   5.971  18.083  0.00  0.00    +0.000 OA
ATOM      4  N   UNL     1       5.416   3.907  17.900  0.00  0.00    +0.000 N 
ATOM      5  H   UNL     1       5.163   2.941  18.091  0.00  0.00    +0.000 HD
BRANCH   4   6
ATOM      6  C   UNL     1       5.928   4.169  16.613  0.00  0.00    +0.000 A 
ATOM      7  C   UNL     1       5.200   3.827  15.472  0.00  0.00    +0.000 A 
ATOM      8  C   UNL     1       5.702   4.147  14.208  0.00  0.00    +0.000 A 
ATOM      9  C   UNL     1       6.943   4.773  14.088  0.00  0.00    +0.000 A 
ATOM     10 CL   UNL     1       7.545   5.176  12.527  0.00  0.00    +0.000 Cl
ATOM     11  C   UNL     1       7.692   5.084  15.220  0.00  0.00    +0.000 A 
ATOM     12  C   UNL     1       7.168   4.799  16.476  0.00  0.00    +0.000 A 
ATOM     13  F   UNL     1       7.898   5.074  17.568  0.00  0.00    +0.000 F 
ENDBRANCH   4   6
ENDBRANCH   1   2
BRANCH   1  14
ATOM     14  C   UNL     1       3.579   3.009  19.855  0.00  0.00    +0.000 C 
BRANCH  14  15
ATOM     15  C   UNL     1       2.671   2.780  21.077  0.00  0.00    +0.000 C 
ATOM     16  F   UNL     1       2.269   3.926  21.678  0.00  0.00    +0.000 F 
ATOM     17  F   UNL     1       1.543   2.102  20.754  0.00  0.00    +0.000 F 
ATOM     18  F   UNL     1       3.294   2.045  22.031  0.00  0.00    +0.000 F 
ENDBRANCH  14  15
BRANCH  14  19
ATOM     19  C   UNL     1       2.654   2.835  18.640  0.00  0.00    +0.000 C 
ATOM     20  O   UNL     1       2.837   1.996  17.761  0.00  0.00    +0.000 OA
BRANCH  19  22
ATOM     21  C   UNL     1       1.341   4.374  17.436  0.00  0.00    +0.000 C 
ATOM     22  O   UNL     1       1.631   3.721  18.673  0.00  0.00    +0.000 OA
ENDBRANCH  19  22
ENDBRANCH  14  19
BRANCH  14  23
ATOM     23  O   UNL     1       4.701   2.093  19.856  0.00  0.00    +0.000 OA
ATOM     24  H   UNL     1       4.585   1.495  19.088  0.00  0.00    +0.000 HD
ENDBRANCH  14  23
ENDBRANCH   1  14
TORSDOF 7
ENDMDL
MODEL 7
REMARK VINA RESULT:      -6.7      3.562      6.706
REMARK  Name = 
REMARK  8 active torsions:
REMARK  status: ('A' for Active; 'I' for Inactive)
REMARK    1  A    between atoms: C_1  and  O_2
REMARK    2  A    between atoms: O_2  and  C_3
REMARK    3  A    between atoms: C_3  and  C_5
REMARK    4  A    between atoms: C_5  and  O_6
REMARK    5  A    between atoms: C_5  and  C_7
REMARK    6  A    between atoms: C_5  and  C_19
REMARK    7  A    between atoms: C_7  and  C_8
REMARK    8  A    between atoms: N_10  and  C_11
REMARK                            x       y       z     vdW  Elec       q    Type
REMARK                         _______ _______ _______ _____ _____    ______ ____
ROOT
ATOM      1  C   UNL     1       3.794   4.269  19.177  0.00  0.00    +0.000 C 
ENDROOT
BRANCH   1   2
ATOM      2  C   UNL     1       4.437   4.744  17.895  0.00  0.00    +0.000 C 
ATOM      3  O   UNL     1       4.208   5.868  17.440  0.00  0.00    +0.000 OA
ATOM      4  N   UNL     1       5.219   3.794  17.267  0.00  0.00    +0.000 N 
ATOM      5  H   UNL     1       4.936   2.827  17.398  0.00  0.00    +0.000 HD
BRANCH   4   6
ATOM      6  C   UNL     1       5.846   4.095  16.041  0.00  0.00    +0.000 A 
ATOM      7  C   UNL     1       5.282   3.685  14.832  0.00  0.00    +0.000 A 
ATOM      8  C   UNL     1       5.891   4.043  13.626  0.00  0.00    +0.000 A 
ATOM      9  C   UNL     1       7.078   4.777  13.635  0.00  0.00    +0.000 A 
ATOM     10 CL   UNL     1       7.812   5.224  12.145  0.00  0.00    +0.000 Cl
ATOM     11  C   UNL     1       7.666   5.158  14.838  0.00  0.00    +0.000 A 
ATOM     12  C   UNL     1       7.033   4.833  16.033  0.00  0.00    +0.000 A 
ATOM     13  F   UNL     1       7.610   5.177  17.195  0.00  0.00    +0.000 F 
ENDBRANCH   4   6
ENDBRANCH   1   2
BRANCH   1  14
ATOM     14  C   UNL     1       2.323   3.876  18.954  0.00  0.00    +0.000 C 
BRANCH  14  15
ATOM     15  C   UNL     1       2.250   2.399  18.523  0.00  0.00    +0.000 C 
ATOM     16  F   UNL     1       3.229   1.629  19.055  0.00  0.00    +0.000 F 
ATOM     17  F   UNL     1       1.075   1.823  18.877  0.00  0.00    +0.000 F 
ATOM     18  F   UNL     1       2.346   2.266  17.177  0.00  0.00    +0.000 F 
ENDBRANCH  14  15
BRANCH  14  19
ATOM     19  C   UNL     1       1.531   3.942  20.269  0.00  0.00    +0.000 C 
ATOM     20  O   UNL     1       0.374   4.347  20.347  0.00  0.00    +0.000 OA
BRANCH  19  22
ATOM     21  C   UNL     1       1.690   2.457  22.090  0.00  0.00    +0.000 C 
ATOM     22  O   UNL     1       2.276   3.501  21.310  0.00  0.00    +0.000 OA
ENDBRANCH  19  22
ENDBRANCH  14  19
BRANCH  14  23
ATOM     23  O   UNL     1       1.797   4.749  17.925  0.00  0.00    +0.000 OA
ATOM     24  H   UNL     1       2.553   5.262  17.570  0.00  0.00    +0.000 HD
ENDBRANCH  14  23
ENDBRANCH   1  14
TORSDOF 7
ENDMDL
MODEL 8
REMARK VINA RESULT:      -6.6      3.544      6.660
REMARK  Name = 
REMARK  8 active torsions:
REMARK  status: ('A' for Active; 'I' for Inactive)
REMARK    1  A    between atoms: C_1  and  O_2
REMARK    2  A    between atoms: O_2  and  C_3
REMARK    3  A    between atoms: C_3  and  C_5
REMARK    4  A    between atoms: C_5  and  O_6
REMARK    5  A    between atoms: C_5  and  C_7
REMARK    6  A    between atoms: C_5  and  C_19
REMARK    7  A    between atoms: C_7  and  C_8
REMARK    8  A    between atoms: N_10  and  C_11
REMARK                            x       y       z     vdW  Elec       q    Type
REMARK                         _______ _______ _______ _____ _____    ______ ____
ROOT
ATOM      1  C   UNL     1       4.048   4.724  19.622  0.00  0.00    +0.000 C 
ENDROOT
BRANCH   1   2
ATOM      2  C   UNL     1       4.600   5.084  18.263  0.00  0.00    +0.000 C 
ATOM      3  O   UNL     1       4.306   6.148  17.712  0.00  0.00    +0.000 OA
ATOM      4  N   UNL     1       5.379   4.098  17.689  0.00  0.00    +0.000 N 
ATOM      5  H   UNL     1       5.139   3.141  17.933  0.00  0.00    +0.000 HD
BRANCH   4   6
ATOM      6  C   UNL     1       5.925   4.290  16.403  0.00  0.00    +0.000 A 
ATOM      7  C   UNL     1       5.279   3.790  15.272  0.00  0.00    +0.000 A 
ATOM      8  C   UNL     1       5.809   4.040  14.003  0.00  0.00    +0.000 A 
ATOM      9  C   UNL     1       6.998   4.758  13.874  0.00  0.00    +0.000 A 
ATOM     10 CL   UNL     1       7.635   5.073  12.307  0.00  0.00    +0.000 Cl
ATOM     11  C   UNL     1       7.668   5.229  15.000  0.00  0.00    +0.000 A 
ATOM     12  C   UNL     1       7.114   5.010  16.257  0.00  0.00    +0.000 A 
ATOM     13  F   UNL     1       7.769   5.441  17.345  0.00  0.00    +0.000 F 
ENDBRANCH   4   6
ENDBRANCH   1   2
BRANCH   1  14
ATOM     14  C   UNL     1       2.716   3.961  19.502  0.00  0.00    +0.000 C 
BRANCH  14  15
ATOM     15  C   UNL     1       2.866   2.570  20.145  0.00  0.00    +0.000 C 
ATOM     16  F   UNL     1       4.069   1.991  19.914  0.00  0.00    +0.000 F 
ATOM     17  F   UNL     1       2.715   2.612  21.491  0.00  0.00    +0.000 F 
ATOM     18  F   UNL     1       1.929   1.705  19.686  0.00  0.00    +0.000 F 
ENDBRANCH  14  15
BRANCH  14  19
ATOM     19  C   UNL     1       1.611   4.654  20.316  0.00  0.00    +0.000 C 
ATOM     20  O   UNL     1       0.440   4.285  20.322  0.00  0.00    +0.000 OA
BRANCH  19  22
ATOM     21  C   UNL     1       1.505   6.972  20.714  0.00  0.00    +0.000 C 
ATOM     22  O   UNL     1       2.103   5.708  21.009  0.00  0.00    +0.000 OA
ENDBRANCH  19  22
ENDBRANCH  14  19
BRANCH  14  23
ATOM     23  O   UNL     1       2.408   3.858  18.091  0.00  0.00    +0.000 OA
ATOM     24  H   UNL     1       1.818   4.608  17.870  0.00  0.00    +0.000 HD
ENDBRANCH  14  23
ENDBRANCH   1  14
TORSDOF 7
ENDMDL
MODEL 9
REMARK VINA RESULT:      -6.6      3.689      6.666
REMARK  Name = 
REMARK  8 active torsions:
REMARK  status: ('A' for Active; 'I' for Inactive)
REMARK    1  A    between atoms: C_1  and  O_2
REMARK    2  A    between atoms: O_2  and  C_3
REMARK    3  A    between atoms: C_3  and  C_5
REMARK    4  A    between atoms: C_5  and  O_6
REMARK    5  A    between atoms: C_5  and  C_7
REMARK    6  A    between atoms: C_5  and  C_19
REMARK    7  A    between atoms: C_7  and  C_8
REMARK    8  A    between atoms: N_10  and  C_11
REMARK                            x       y       z     vdW  Elec       q    Type
REMARK                         _______ _______ _______ _____ _____    ______ ____
ROOT
ATOM      1  C   UNL     1       2.521   4.547  18.508  0.00  0.00    +0.000 C 
ENDROOT
BRANCH   1   2
ATOM      2  C   UNL     1       3.572   5.028  17.535  0.00  0.00    +0.000 C 
ATOM      3  O   UNL     1       3.685   6.225  17.253  0.00  0.00    +0.000 OA
ATOM      4  N   UNL     1       4.314   4.017  16.957  0.00  0.00    +0.000 N 
ATOM      5  H   UNL     1       3.837   3.129  16.833  0.00  0.00    +0.000 HD
BRANCH   4   6
ATOM      6  C   UNL     1       5.302   4.327  16.001  0.00  0.00    +0.000 A 
ATOM      7  C   UNL     1       5.039   4.202  14.636  0.00  0.00    +0.000 A 
ATOM      8  C   UNL     1       6.015   4.567  13.705  0.00  0.00    +0.000 A 
ATOM      9  C   UNL     1       7.259   5.022  14.141  0.00  0.00    +0.000 A 
ATOM     10 CL   UNL     1       8.449   5.484  12.987  0.00  0.00    +0.000 Cl
ATOM     11  C   UNL     1       7.543   5.116  15.502  0.00  0.00    +0.000 A 
ATOM     12  C   UNL     1       6.553   4.787  16.422  0.00  0.00    +0.000 A 
ATOM     13  F   UNL     1       6.831   4.853  17.733  0.00  0.00    +0.000 F 
ENDBRANCH   4   6
ENDBRANCH   1   2
BRANCH   1  14
ATOM     14  C   UNL     1       3.125   4.282  19.899  0.00  0.00    +0.000 C 
BRANCH  14  15
ATOM     15  C   UNL     1       2.013   4.361  20.961  0.00  0.00    +0.000 C 
ATOM     16  F   UNL     1       2.300   3.688  22.101  0.00  0.00    +0.000 F 
ATOM     17  F   UNL     1       1.750   5.640  21.328  0.00  0.00    +0.000 F 
ATOM     18  F   UNL     1       0.844   3.853  20.499  0.00  0.00    +0.000 F 
ENDBRANCH  14  15
BRANCH  14  19
ATOM     19  C   UNL     1       3.663   2.845  19.999  0.00  0.00    +0.000 C 
ATOM     20  O   UNL     1       4.625   2.527  20.693  0.00  0.00    +0.000 OA
BRANCH  19  22
ATOM     21  C   UNL     1       3.704   1.084  18.437  0.00  0.00    +0.000 C 
ATOM     22  O   UNL     1       2.942   1.999  19.227  0.00  0.00    +0.000 OA
ENDBRANCH  19  22
ENDBRANCH  14  19
BRANCH  14  23
ATOM     23  O   UNL     1       4.140   5.290  20.125  0.00  0.00    +0.000 OA
ATOM     24  H   UNL     1       3.836   6.109  19.681  0.00  0.00    +0.000 HD
ENDBRANCH  14  23
ENDBRANCH   1  14
TORSDOF 7
ENDMDL
