MODEL 1
REMARK VINA RESULT:      -7.5      0.000      0.000
REMARK  Name = 
REMARK  6 active torsions:
REMARK  status: ('A' for Active; 'I' for Inactive)
REMARK    1  A    between atoms: C_1  and  C_2
REMARK    2  A    between atoms: C_2  and  O_3
REMARK    3  A    between atoms: O_3  and  C_4
REMARK    4  A    between atoms: C_4  and  C_6
REMARK    5  A    between atoms: C_13  and  C_14
REMARK    6  A    between atoms: C_18  and  O_19
REMARK                            x       y       z     vdW  Elec       q    Type
REMARK                         _______ _______ _______ _____ _____    ______ ____
ROOT
ATOM      1  C   UNL     1       6.340   5.972  16.938  0.00  0.00    +0.000 A 
ATOM      2  C   UNL     1       6.325   4.801  17.606  0.00  0.00    +0.000 A 
ATOM      3  N   UNL     1       7.023   4.524  18.770  0.00  0.00    +0.000 NA
ATOM      4  C   UNL     1       7.795   5.466  19.251  0.00  0.00    +0.000 A 
ATOM      5  N   UNL     1       8.559   5.241  20.357  0.00  0.00    +0.000 N 
ATOM      6  N   UNL     1       7.834   6.722  18.606  0.00  0.00    +0.000 N 
ATOM      7  N   UNL     1       8.567   7.782  19.030  0.00  0.00    +0.000 NA
ATOM      8  C   UNL     1       8.242   8.714  18.111  0.00  0.00    +0.000 A 
ATOM      9  N   UNL     1       7.361   8.270  17.147  0.00  0.00    +0.000 NA
ATOM     10  C   UNL     1       7.121   7.021  17.479  0.00  0.00    +0.000 A 
ATOM     11  H   UNL     1       8.443   4.376  20.858  0.00  0.00    +0.000 HD
ATOM     12  H   UNL     1       9.077   5.999  20.787  0.00  0.00    +0.000 HD
ENDROOT
BRANCH   8  13
ATOM     13  C   UNL     1       8.707  10.102  18.109  0.00  0.00    +0.000 A 
ATOM     14  C   UNL     1       9.966  10.420  18.655  0.00  0.00    +0.000 A 
ATOM     15  C   UNL     1      10.484  11.715  18.557  0.00  0.00    +0.000 A 
ATOM     16  C   UNL     1       9.710  12.731  18.005  0.00  0.00    +0.000 A 
ATOM     17  C   UNL     1       8.435  12.434  17.531  0.00  0.00    +0.000 A 
ATOM     18  C   UNL     1       7.947  11.130  17.541  0.00  0.00    +0.000 A 
BRANCH  17  19
ATOM     19  O   UNL     1       7.622  13.414  17.042  0.00  0.00    +0.000 OA
ATOM     20  H   UNL     1       8.072  14.269  17.148  0.00  0.00    +0.000 HD
ENDBRANCH  17  19
ENDBRANCH   8  13
BRANCH   1  21
ATOM     21  C   UNL     1       5.651   6.056  15.627  0.00  0.00    +0.000 C 
ATOM     22  O   UNL     1       5.132   7.083  15.202  0.00  0.00    +0.000 OA
BRANCH  21  23
ATOM     23  O   UNL     1       5.577   4.843  15.041  0.00  0.00    +0.000 OA
BRANCH  23  25
ATOM     24  C   UNL     1       6.001   3.672  13.005  0.00  0.00    +0.000 C 
ATOM     25  C   UNL     1       6.616   4.523  14.104  0.00  0.00    +0.000 C 
ENDBRANCH  23  25
ENDBRANCH  21  23
ENDBRANCH   1  21
TORSDOF 5
ENDMDL
MODEL 2
REMARK VINA RESULT:      -7.5      5.034      6.451
REMARK  Name = 
REMARK  6 active torsions:
REMARK  status: ('A' for Active; 'I' for Inactive)
REMARK    1  A    between atoms: C_1  and  C_2
REMARK    2  A    between atoms: C_2  and  O_3
REMARK    3  A    between atoms: O_3  and  C_4
REMARK    4  A    between atoms: C_4  and  C_6
REMARK    5  A    between atoms: C_13  and  C_14
REMARK    6  A    between atoms: C_18  and  O_19
REMARK                            x       y       z     vdW  Elec       q    Type
REMARK                         _______ _______ _______ _____ _____    ______ ____
ROOT
ATOM      1  C   UNL     1       4.460   4.018  18.931  0.00  0.00    +0.000 A 
ATOM      2  C   UNL     1       4.411   2.773  19.448  0.00  0.00    +0.000 A 
ATOM      3  N   UNL     1       3.553   2.345  20.447  0.00  0.00    +0.000 NA
ATOM      4  C   UNL     1       2.737   3.231  20.964  0.00  0.00    +0.000 A 
ATOM      5  N   UNL     1       1.909   2.896  21.993  0.00  0.00    +0.000 N 
ATOM      6  N   UNL     1       2.728   4.545  20.447  0.00  0.00    +0.000 N 
ATOM      7  N   UNL     1       1.907   5.536  20.877  0.00  0.00    +0.000 NA
ATOM      8  C   UNL     1       2.269   6.551  20.067  0.00  0.00    +0.000 A 
ATOM      9  N   UNL     1       3.274   6.231  19.178  0.00  0.00    +0.000 NA
ATOM     10  C   UNL     1       3.544   4.970  19.435  0.00  0.00    +0.000 A 
ATOM     11  H   UNL     1       1.860   1.932  22.281  0.00  0.00    +0.000 HD
ATOM     12  H   UNL     1       1.210   3.550  22.325  0.00  0.00    +0.000 HD
ENDROOT
BRANCH   8  13
ATOM     13  C   UNL     1       1.656   7.880  20.047  0.00  0.00    +0.000 A 
ATOM     14  C   UNL     1       1.020   8.376  21.202  0.00  0.00    +0.000 A 
ATOM     15  C   UNL     1       0.534   9.686  21.246  0.00  0.00    +0.000 A 
ATOM     16  C   UNL     1       0.585  10.484  20.107  0.00  0.00    +0.000 A 
ATOM     17  C   UNL     1       1.147   9.970  18.942  0.00  0.00    +0.000 A 
ATOM     18  C   UNL     1       1.717   8.699  18.914  0.00  0.00    +0.000 A 
BRANCH  17  19
ATOM     19  O   UNL     1       1.158  10.698  17.788  0.00  0.00    +0.000 OA
ATOM     20  H   UNL     1       1.093  11.640  18.017  0.00  0.00    +0.000 HD
ENDBRANCH  17  19
ENDBRANCH   8  13
BRANCH   1  21
ATOM     21  C   UNL     1       5.539   4.349  17.968  0.00  0.00    +0.000 C 
ATOM     22  O   UNL     1       5.355   4.464  16.761  0.00  0.00    +0.000 OA
BRANCH  21  23
ATOM     23  O   UNL     1       6.740   4.388  18.582  0.00  0.00    +0.000 OA
BRANCH  23  25
ATOM     24  C   UNL     1       7.728   6.553  18.394  0.00  0.00    +0.000 C 
ATOM     25  C   UNL     1       7.036   5.576  19.331  0.00  0.00    +0.000 C 
ENDBRANCH  23  25
ENDBRANCH  21  23
ENDBRANCH   1  21
TORSDOF 5
ENDMDL
MODEL 3
REMARK VINA RESULT:      -7.5      5.011      6.301
REMARK  Name = 
REMARK  6 active torsions:
REMARK  status: ('A' for Active; 'I' for Inactive)
REMARK    1  A    between atoms: C_1  and  C_2
REMARK    2  A    between atoms: C_2  and  O_3
REMARK    3  A    between atoms: O_3  and  C_4
REMARK    4  A    between atoms: C_4  and  C_6
REMARK    5  A    between atoms: C_13  and  C_14
REMARK    6  A    between atoms: C_18  and  O_19
REMARK                            x       y       z     vdW  Elec       q    Type
REMARK                         _______ _______ _______ _____ _____    ______ ____
ROOT
ATOM      1  C   UNL     1       4.519   3.926  19.059  0.00  0.00    +0.000 A 
ATOM      2  C   UNL     1       4.430   2.681  19.572  0.00  0.00    +0.000 A 
ATOM      3  N   UNL     1       3.514   2.261  20.520  0.00  0.00    +0.000 NA
ATOM      4  C   UNL     1       2.678   3.153  20.991  0.00  0.00    +0.000 A 
ATOM      5  N   UNL     1       1.791   2.825  21.973  0.00  0.00    +0.000 N 
ATOM      6  N   UNL     1       2.709   4.467  20.476  0.00  0.00    +0.000 N 
ATOM      7  N   UNL     1       1.874   5.465  20.859  0.00  0.00    +0.000 NA
ATOM      8  C   UNL     1       2.289   6.477  20.071  0.00  0.00    +0.000 A 
ATOM      9  N   UNL     1       3.340   6.148  19.240  0.00  0.00    +0.000 NA
ATOM     10  C   UNL     1       3.584   4.885  19.511  0.00  0.00    +0.000 A 
ATOM     11  H   UNL     1       1.717   1.862  22.257  0.00  0.00    +0.000 HD
ATOM     12  H   UNL     1       1.079   3.486  22.264  0.00  0.00    +0.000 HD
ENDROOT
BRANCH   8  13
ATOM     13  C   UNL     1       1.690   7.811  20.017  0.00  0.00    +0.000 A 
ATOM     14  C   UNL     1       1.019   8.324  21.144  0.00  0.00    +0.000 A 
ATOM     15  C   UNL     1       0.544   9.640  21.160  0.00  0.00    +0.000 A 
ATOM     16  C   UNL     1       0.641  10.425  20.016  0.00  0.00    +0.000 A 
ATOM     17  C   UNL     1       1.238   9.895  18.875  0.00  0.00    +0.000 A 
ATOM     18  C   UNL     1       1.796   8.618  18.879  0.00  0.00    +0.000 A 
BRANCH  17  19
ATOM     19  O   UNL     1       1.295  10.611  17.716  0.00  0.00    +0.000 OA
ATOM     20  H   UNL     1       0.454  11.085  17.604  0.00  0.00    +0.000 HD
ENDBRANCH  17  19
ENDBRANCH   8  13
BRANCH   1  21
ATOM     21  C   UNL     1       5.653   4.248  18.158  0.00  0.00    +0.000 C 
ATOM     22  O   UNL     1       6.766   4.568  18.562  0.00  0.00    +0.000 OA
BRANCH  21  23
ATOM     23  O   UNL     1       5.260   4.253  16.867  0.00  0.00    +0.000 OA
BRANCH  23  25
ATOM     24  C   UNL     1       5.129   6.509  16.099  0.00  0.00    +0.000 C 
ATOM     25  C   UNL     1       5.905   5.205  16.008  0.00  0.00    +0.000 C 
ENDBRANCH  23  25
ENDBRANCH  21  23
ENDBRANCH   1  21
TORSDOF 5
ENDMDL
MODEL 4
REMARK VINA RESULT:      -7.5      5.251      6.589
REMARK  Name = 
REMARK  6 active torsions:
REMARK  status: ('A' for Active; 'I' for Inactive)
REMARK    1  A    between atoms: C_1  and  C_2
REMARK    2  A    between atoms: C_2  and  O_3
REMARK    3  A    between atoms: O_3  and  C_4
REMARK    4  A    between atoms: C_4  and  C_6
REMARK    5  A    between atoms: C_13  and  C_14
REMARK    6  A    between atoms: C_18  and  O_19
REMARK                            x       y       z     vdW  Elec       q    Type
REMARK                         _______ _______ _______ _____ _____    ______ ____
ROOT
ATOM      1  C   UNL     1       4.406   4.045  18.887  0.00  0.00    +0.000 A 
ATOM      2  C   UNL     1       4.312   2.793  19.381  0.00  0.00    +0.000 A 
ATOM      3  N   UNL     1       3.435   2.378  20.369  0.00  0.00    +0.000 NA
ATOM      4  C   UNL     1       2.649   3.282  20.899  0.00  0.00    +0.000 A 
ATOM      5  N   UNL     1       1.806   2.957  21.920  0.00  0.00    +0.000 N 
ATOM      6  N   UNL     1       2.687   4.604  20.406  0.00  0.00    +0.000 N 
ATOM      7  N   UNL     1       1.899   5.615  20.851  0.00  0.00    +0.000 NA
ATOM      8  C   UNL     1       2.299   6.632  20.060  0.00  0.00    +0.000 A 
ATOM      9  N   UNL     1       3.296   6.292  19.169  0.00  0.00    +0.000 NA
ATOM     10  C   UNL     1       3.521   5.019  19.405  0.00  0.00    +0.000 A 
ATOM     11  H   UNL     1       1.722   1.991  22.190  0.00  0.00    +0.000 HD
ATOM     12  H   UNL     1       1.128   3.629  22.260  0.00  0.00    +0.000 HD
ENDROOT
BRANCH   8  13
ATOM     13  C   UNL     1       1.733   7.981  20.061  0.00  0.00    +0.000 A 
ATOM     14  C   UNL     1       1.603   8.688  18.850  0.00  0.00    +0.000 A 
ATOM     15  C   UNL     1       0.956   9.927  18.809  0.00  0.00    +0.000 A 
ATOM     16  C   UNL     1       0.522  10.523  19.989  0.00  0.00    +0.000 A 
ATOM     17  C   UNL     1       0.715   9.858  21.197  0.00  0.00    +0.000 A 
ATOM     18  C   UNL     1       1.275   8.583  21.238  0.00  0.00    +0.000 A 
BRANCH  17  19
ATOM     19  O   UNL     1       0.360  10.436  22.380  0.00  0.00    +0.000 OA
ATOM     20  H   UNL     1       0.886  10.032  23.091  0.00  0.00    +0.000 HD
ENDBRANCH  17  19
ENDBRANCH   8  13
BRANCH   1  21
ATOM     21  C   UNL     1       5.500   4.355  17.934  0.00  0.00    +0.000 C 
ATOM     22  O   UNL     1       5.331   4.464  16.724  0.00  0.00    +0.000 OA
BRANCH  21  23
ATOM     23  O   UNL     1       6.695   4.383  18.561  0.00  0.00    +0.000 OA
BRANCH  23  25
ATOM     24  C   UNL     1       7.694   6.535  18.296  0.00  0.00    +0.000 C 
ATOM     25  C   UNL     1       7.014   5.588  19.272  0.00  0.00    +0.000 C 
ENDBRANCH  23  25
ENDBRANCH  21  23
ENDBRANCH   1  21
TORSDOF 5
ENDMDL
MODEL 5
REMARK VINA RESULT:      -7.5      5.069      6.485
REMARK  Name = 
REMARK  6 active torsions:
REMARK  status: ('A' for Active; 'I' for Inactive)
REMARK    1  A    between atoms: C_1  and  C_2
REMARK    2  A    between atoms: C_2  and  O_3
REMARK    3  A    between atoms: O_3  and  C_4
REMARK    4  A    between atoms: C_4  and  C_6
REMARK    5  A    between atoms: C_13  and  C_14
REMARK    6  A    between atoms: C_18  and  O_19
REMARK                            x       y       z     vdW  Elec       q    Type
REMARK                         _______ _______ _______ _____ _____    ______ ____
ROOT
ATOM      1  C   UNL     1       3.726   3.791  17.541  0.00  0.00    +0.000 A 
ATOM      2  C   UNL     1       4.847   3.538  16.834  0.00  0.00    +0.000 A 
ATOM      3  N   UNL     1       5.709   4.490  16.318  0.00  0.00    +0.000 NA
ATOM      4  C   UNL     1       5.399   5.750  16.499  0.00  0.00    +0.000 A 
ATOM      5  N   UNL     1       6.168   6.740  15.964  0.00  0.00    +0.000 N 
ATOM      6  N   UNL     1       4.249   6.076  17.251  0.00  0.00    +0.000 N 
ATOM      7  N   UNL     1       3.846   7.340  17.534  0.00  0.00    +0.000 NA
ATOM      8  C   UNL     1       2.745   7.108  18.277  0.00  0.00    +0.000 A 
ATOM      9  N   UNL     1       2.454   5.771  18.449  0.00  0.00    +0.000 NA
ATOM     10  C   UNL     1       3.410   5.145  17.799  0.00  0.00    +0.000 A 
ATOM     11  H   UNL     1       7.035   6.491  15.516  0.00  0.00    +0.000 HD
ATOM     12  H   UNL     1       5.985   7.711  16.188  0.00  0.00    +0.000 HD
ENDROOT
BRANCH   8  13
ATOM     13  C   UNL     1       1.921   8.136  18.915  0.00  0.00    +0.000 A 
ATOM     14  C   UNL     1       1.651   8.061  20.295  0.00  0.00    +0.000 A 
ATOM     15  C   UNL     1       0.968   9.092  20.949  0.00  0.00    +0.000 A 
ATOM     16  C   UNL     1       0.458  10.160  20.218  0.00  0.00    +0.000 A 
ATOM     17  C   UNL     1       0.660  10.198  18.841  0.00  0.00    +0.000 A 
ATOM     18  C   UNL     1       1.417   9.224  18.194  0.00  0.00    +0.000 A 
BRANCH  17  19
ATOM     19  O   UNL     1       0.122  11.195  18.080  0.00  0.00    +0.000 OA
ATOM     20  H   UNL     1       0.661  11.297  17.278  0.00  0.00    +0.000 HD
ENDBRANCH  17  19
ENDBRANCH   8  13
BRANCH   1  21
ATOM     21  C   UNL     1       2.835   2.660  17.895  0.00  0.00    +0.000 C 
ATOM     22  O   UNL     1       3.240   1.521  18.104  0.00  0.00    +0.000 OA
BRANCH  21  23
ATOM     23  O   UNL     1       1.538   3.029  17.839  0.00  0.00    +0.000 OA
BRANCH  23  25
ATOM     24  C   UNL     1       0.918   3.171  20.140  0.00  0.00    +0.000 C 
ATOM     25  C   UNL     1       0.667   2.452  18.824  0.00  0.00    +0.000 C 
ENDBRANCH  23  25
ENDBRANCH  21  23
ENDBRANCH   1  21
TORSDOF 5
ENDMDL
MODEL 6
REMARK VINA RESULT:      -7.4      4.971      6.983
REMARK  Name = 
REMARK  6 active torsions:
REMARK  status: ('A' for Active; 'I' for Inactive)
REMARK    1  A    between atoms: C_1  and  C_2
REMARK    2  A    between atoms: C_2  and  O_3
REMARK    3  A    between atoms: O_3  and  C_4
REMARK    4  A    between atoms: C_4  and  C_6
REMARK    5  A    between atoms: C_13  and  C_14
REMARK    6  A    between atoms: C_18  and  O_19
REMARK                            x       y       z     vdW  Elec       q    Type
REMARK                         _______ _______ _______ _____ _____    ______ ____
ROOT
ATOM      1  C   UNL     1       3.530   4.348  18.369  0.00  0.00    +0.000 A 
ATOM      2  C   UNL     1       3.906   4.739  19.604  0.00  0.00    +0.000 A 
ATOM      3  N   UNL     1       5.170   5.176  19.964  0.00  0.00    +0.000 NA
ATOM      4  C   UNL     1       6.096   5.180  19.037  0.00  0.00    +0.000 A 
ATOM      5  N   UNL     1       7.377   5.537  19.336  0.00  0.00    +0.000 N 
ATOM      6  N   UNL     1       5.755   4.802  17.720  0.00  0.00    +0.000 N 
ATOM      7  N   UNL     1       6.617   4.799  16.673  0.00  0.00    +0.000 NA
ATOM      8  C   UNL     1       5.813   4.397  15.668  0.00  0.00    +0.000 A 
ATOM      9  N   UNL     1       4.513   4.144  16.055  0.00  0.00    +0.000 NA
ATOM     10  C   UNL     1       4.502   4.405  17.343  0.00  0.00    +0.000 A 
ATOM     11  H   UNL     1       7.577   5.896  20.255  0.00  0.00    +0.000 HD
ATOM     12  H   UNL     1       8.067   5.637  18.601  0.00  0.00    +0.000 HD
ENDROOT
BRANCH   8  13
ATOM     13  C   UNL     1       6.208   4.268  14.265  0.00  0.00    +0.000 A 
ATOM     14  C   UNL     1       7.221   5.096  13.743  0.00  0.00    +0.000 A 
ATOM     15  C   UNL     1       7.699   4.912  12.442  0.00  0.00    +0.000 A 
ATOM     16  C   UNL     1       7.104   3.968  11.611  0.00  0.00    +0.000 A 
ATOM     17  C   UNL     1       6.052   3.199  12.101  0.00  0.00    +0.000 A 
ATOM     18  C   UNL     1       5.630   3.311  13.424  0.00  0.00    +0.000 A 
BRANCH  17  19
ATOM     19  O   UNL     1       5.401   2.308  11.298  0.00  0.00    +0.000 OA
ATOM     20  H   UNL     1       4.518   2.660  11.100  0.00  0.00    +0.000 HD
ENDBRANCH  17  19
ENDBRANCH   8  13
BRANCH   1  21
ATOM     21  C   UNL     1       2.177   3.768  18.184  0.00  0.00    +0.000 C 
ATOM     22  O   UNL     1       1.324   4.265  17.457  0.00  0.00    +0.000 OA
BRANCH  21  23
ATOM     23  O   UNL     1       1.987   2.712  19.003  0.00  0.00    +0.000 OA
BRANCH  23  25
ATOM     24  C   UNL     1       1.292   2.739  21.287  0.00  0.00    +0.000 C 
ATOM     25  C   UNL     1       0.822   2.757  19.842  0.00  0.00    +0.000 C 
ENDBRANCH  23  25
ENDBRANCH  21  23
ENDBRANCH   1  21
TORSDOF 5
ENDMDL
MODEL 7
REMARK VINA RESULT:      -7.4      5.261      6.544
REMARK  Name = 
REMARK  6 active torsions:
REMARK  status: ('A' for Active; 'I' for Inactive)
REMARK    1  A    between atoms: C_1  and  C_2
REMARK    2  A    between atoms: C_2  and  O_3
REMARK    3  A    between atoms: O_3  and  C_4
REMARK    4  A    between atoms: C_4  and  C_6
REMARK    5  A    between atoms: C_13  and  C_14
REMARK    6  A    between atoms: C_18  and  O_19
REMARK                            x       y       z     vdW  Elec       q    Type
REMARK                         _______ _______ _______ _____ _____    ______ ____
ROOT
ATOM      1  C   UNL     1       3.379   3.835  17.857  0.00  0.00    +0.000 A 
ATOM      2  C   UNL     1       4.429   3.481  17.087  0.00  0.00    +0.000 A 
ATOM      3  N   UNL     1       5.286   4.354  16.438  0.00  0.00    +0.000 NA
ATOM      4  C   UNL     1       5.042   5.636  16.549  0.00  0.00    +0.000 A 
ATOM      5  N   UNL     1       5.806   6.549  15.885  0.00  0.00    +0.000 N 
ATOM      6  N   UNL     1       3.969   6.067  17.360  0.00  0.00    +0.000 N 
ATOM      7  N   UNL     1       3.641   7.365  17.578  0.00  0.00    +0.000 NA
ATOM      8  C   UNL     1       2.595   7.237  18.419  0.00  0.00    +0.000 A 
ATOM      9  N   UNL     1       2.264   5.930  18.711  0.00  0.00    +0.000 NA
ATOM     10  C   UNL     1       3.139   5.217  18.037  0.00  0.00    +0.000 A 
ATOM     11  H   UNL     1       6.624   6.229  15.392  0.00  0.00    +0.000 HD
ATOM     12  H   UNL     1       5.681   7.541  16.050  0.00  0.00    +0.000 HD
ENDROOT
BRANCH   8  13
ATOM     13  C   UNL     1       1.865   8.344  19.039  0.00  0.00    +0.000 A 
ATOM     14  C   UNL     1       1.523   8.280  20.404  0.00  0.00    +0.000 A 
ATOM     15  C   UNL     1       0.934   9.373  21.048  0.00  0.00    +0.000 A 
ATOM     16  C   UNL     1       0.587  10.504  20.316  0.00  0.00    +0.000 A 
ATOM     17  C   UNL     1       0.857  10.540  18.951  0.00  0.00    +0.000 A 
ATOM     18  C   UNL     1       1.526   9.495  18.319  0.00  0.00    +0.000 A 
BRANCH  17  19
ATOM     19  O   UNL     1       0.475  11.605  18.188  0.00  0.00    +0.000 OA
ATOM     20  H   UNL     1       1.228  12.213  18.107  0.00  0.00    +0.000 HD
ENDBRANCH  17  19
ENDBRANCH   8  13
BRANCH   1  21
ATOM     21  C   UNL     1       2.473   2.773  18.360  0.00  0.00    +0.000 C 
ATOM     22  O   UNL     1       1.329   2.611  17.949  0.00  0.00    +0.000 OA
BRANCH  21  23
ATOM     23  O   UNL     1       3.034   2.107  19.392  0.00  0.00    +0.000 OA
BRANCH  23  25
ATOM     24  C   UNL     1       1.700   2.696  21.282  0.00  0.00    +0.000 C 
ATOM     25  C   UNL     1       3.078   2.799  20.649  0.00  0.00    +0.000 C 
ENDBRANCH  23  25
ENDBRANCH  21  23
ENDBRANCH   1  21
TORSDOF 5
ENDMDL
MODEL 8
REMARK VINA RESULT:      -7.4      5.365      6.777
REMARK  Name = 
REMARK  6 active torsions:
REMARK  status: ('A' for Active; 'I' for Inactive)
REMARK    1  A    between atoms: C_1  and  C_2
REMARK    2  A    between atoms: C_2  and  O_3
REMARK    3  A    between atoms: O_3  and  C_4
REMARK    4  A    between atoms: C_4  and  C_6
REMARK    5  A    between atoms: C_13  and  C_14
REMARK    6  A    between atoms: C_18  and  O_19
REMARK                            x       y       z     vdW  Elec       q    Type
REMARK                         _______ _______ _______ _____ _____    ______ ____
ROOT
ATOM      1  C   UNL     1       3.581   3.802  17.767  0.00  0.00    +0.000 A 
ATOM      2  C   UNL     1       4.631   3.502  16.975  0.00  0.00    +0.000 A 
ATOM      3  N   UNL     1       5.442   4.418  16.326  0.00  0.00    +0.000 NA
ATOM      4  C   UNL     1       5.149   5.688  16.461  0.00  0.00    +0.000 A 
ATOM      5  N   UNL     1       5.865   6.640  15.800  0.00  0.00    +0.000 N 
ATOM      6  N   UNL     1       4.074   6.062  17.296  0.00  0.00    +0.000 N 
ATOM      7  N   UNL     1       3.698   7.343  17.540  0.00  0.00    +0.000 NA
ATOM      8  C   UNL     1       2.671   7.161  18.395  0.00  0.00    +0.000 A 
ATOM      9  N   UNL     1       2.398   5.838  18.672  0.00  0.00    +0.000 NA
ATOM     10  C   UNL     1       3.289   5.170  17.973  0.00  0.00    +0.000 A 
ATOM     11  H   UNL     1       6.686   6.361  15.289  0.00  0.00    +0.000 HD
ATOM     12  H   UNL     1       5.703   7.624  15.983  0.00  0.00    +0.000 HD
ENDROOT
BRANCH   8  13
ATOM     13  C   UNL     1       1.909   8.228  19.044  0.00  0.00    +0.000 A 
ATOM     14  C   UNL     1       1.405   9.297  18.277  0.00  0.00    +0.000 A 
ATOM     15  C   UNL     1       0.573  10.263  18.851  0.00  0.00    +0.000 A 
ATOM     16  C   UNL     1       0.317  10.233  20.218  0.00  0.00    +0.000 A 
ATOM     17  C   UNL     1       0.875   9.219  20.993  0.00  0.00    +0.000 A 
ATOM     18  C   UNL     1       1.629   8.201  20.415  0.00  0.00    +0.000 A 
BRANCH  17  19
ATOM     19  O   UNL     1       0.699   9.192  22.345  0.00  0.00    +0.000 OA
ATOM     20  H   UNL     1      -0.112   9.683  22.561  0.00  0.00    +0.000 HD
ENDBRANCH  17  19
ENDBRANCH   8  13
BRANCH   1  21
ATOM     21  C   UNL     1       2.727   2.697  18.269  0.00  0.00    +0.000 C 
ATOM     22  O   UNL     1       1.873   2.141  17.586  0.00  0.00    +0.000 OA
BRANCH  21  23
ATOM     23  O   UNL     1       2.938   2.480  19.584  0.00  0.00    +0.000 OA
BRANCH  23  25
ATOM     24  C   UNL     1       2.080   3.496  21.566  0.00  0.00    +0.000 C 
ATOM     25  C   UNL     1       1.781   2.530  20.432  0.00  0.00    +0.000 C 
ENDBRANCH  23  25
ENDBRANCH  21  23
ENDBRANCH   1  21
TORSDOF 5
ENDMDL
MODEL 9
REMARK VINA RESULT:      -7.4      5.219      6.572
REMARK  Name = 
REMARK  6 active torsions:
REMARK  status: ('A' for Active; 'I' for Inactive)
REMARK    1  A    between atoms: C_1  and  C_2
REMARK    2  A    between atoms: C_2  and  O_3
REMARK    3  A    between atoms: O_3  and  C_4
REMARK    4  A    between atoms: C_4  and  C_6
REMARK    5  A    between atoms: C_13  and  C_14
REMARK    6  A    between atoms: C_18  and  O_19
REMARK                            x       y       z     vdW  Elec       q    Type
REMARK                         _______ _______ _______ _____ _____    ______ ____
ROOT
ATOM      1  C   UNL     1       4.386   4.148  18.328  0.00  0.00    +0.000 A 
ATOM      2  C   UNL     1       5.283   3.886  17.356  0.00  0.00    +0.000 A 
ATOM      3  N   UNL     1       5.653   4.752  16.341  0.00  0.00    +0.000 NA
ATOM      4  C   UNL     1       5.058   5.919  16.295  0.00  0.00    +0.000 A 
ATOM      5  N   UNL     1       5.327   6.797  15.287  0.00  0.00    +0.000 N 
ATOM      6  N   UNL     1       4.126   6.258  17.299  0.00  0.00    +0.000 N 
ATOM      7  N   UNL     1       3.474   7.446  17.376  0.00  0.00    +0.000 NA
ATOM      8  C   UNL     1       2.744   7.277  18.497  0.00  0.00    +0.000 A 
ATOM      9  N   UNL     1       2.911   6.045  19.096  0.00  0.00    +0.000 NA
ATOM     10  C   UNL     1       3.780   5.427  18.328  0.00  0.00    +0.000 A 
ATOM     11  H   UNL     1       6.065   6.577  14.638  0.00  0.00    +0.000 HD
ATOM     12  H   UNL     1       4.944   7.735  15.307  0.00  0.00    +0.000 HD
ENDROOT
BRANCH   8  13
ATOM     13  C   UNL     1       1.875   8.286  19.104  0.00  0.00    +0.000 A 
ATOM     14  C   UNL     1       1.535   8.190  20.467  0.00  0.00    +0.000 A 
ATOM     15  C   UNL     1       0.807   9.203  21.098  0.00  0.00    +0.000 A 
ATOM     16  C   UNL     1       0.322  10.275  20.354  0.00  0.00    +0.000 A 
ATOM     17  C   UNL     1       0.595  10.334  18.990  0.00  0.00    +0.000 A 
ATOM     18  C   UNL     1       1.396   9.377  18.372  0.00  0.00    +0.000 A 
BRANCH  17  19
ATOM     19  O   UNL     1       0.084  11.334  18.216  0.00  0.00    +0.000 OA
ATOM     20  H   UNL     1       0.272  11.130  17.285  0.00  0.00    +0.000 HD
ENDBRANCH  17  19
ENDBRANCH   8  13
BRANCH   1  21
ATOM     21  C   UNL     1       3.995   3.056  19.253  0.00  0.00    +0.000 C 
ATOM     22  O   UNL     1       4.777   2.517  20.029  0.00  0.00    +0.000 OA
BRANCH  21  23
ATOM     23  O   UNL     1       2.720   2.672  19.038  0.00  0.00    +0.000 OA
BRANCH  23  25
ATOM     24  C   UNL     1       1.115   3.561  20.566  0.00  0.00    +0.000 C 
ATOM     25  C   UNL     1       1.948   2.342  20.202  0.00  0.00    +0.000 C 
ENDBRANCH  23  25
ENDBRANCH  21  23
ENDBRANCH   1  21
TORSDOF 5
ENDMDL
