MODEL 1
REMARK VINA RESULT:      -7.8      0.000      0.000
REMARK  Name = 
REMARK  6 active torsions:
REMARK  status: ('A' for Active; 'I' for Inactive)
REMARK    1  A    between atoms: C_1  and  N_2
REMARK    2  A    between atoms: C_5  and  O_6
REMARK    3  A    between atoms: O_6  and  C_7
REMARK    4  A    between atoms: C_12  and  S_13
REMARK    5  A    between atoms: S_13  and  C_14
REMARK    6  A    between atoms: C_19  and  C_20
REMARK                            x       y       z     vdW  Elec       q    Type
REMARK                         _______ _______ _______ _____ _____    ______ ____
ROOT
ATOM      1  C   UNL     1       2.350   5.140  19.927  0.00  0.00    +0.000 A 
ATOM      2  C   UNL     1       1.876   4.695  21.170  0.00  0.00    +0.000 A 
ATOM      3  C   UNL     1       1.588   3.349  21.391  0.00  0.00    +0.000 A 
ATOM      4  C   UNL     1       1.772   2.431  20.367  0.00  0.00    +0.000 A 
ATOM      5  C   UNL     1       2.291   2.853  19.142  0.00  0.00    +0.000 A 
ATOM      6  C   UNL     1       2.621   4.200  18.919  0.00  0.00    +0.000 A 
ENDROOT
BRANCH   1   7
ATOM      7  O   UNL     1       2.643   6.474  19.910  0.00  0.00    +0.000 OA
BRANCH   7  12
ATOM      8  C   UNL     1       1.138  11.656  18.794  0.00  0.00    +0.000 C 
ATOM      9  N   UNL     1       1.566  10.302  19.119  0.00  0.00    +0.000 NA
ATOM     10  C   UNL     1       0.692   9.671  20.116  0.00  0.00    +0.000 C 
ATOM     11  C   UNL     1       1.326   8.366  20.593  0.00  0.00    +0.000 C 
ATOM     12  C   UNL     1       1.658   7.411  19.438  0.00  0.00    +0.000 C 
ATOM     13  C   UNL     1       2.295   8.147  18.252  0.00  0.00    +0.000 C 
ATOM     14  C   UNL     1       1.632   9.474  17.919  0.00  0.00    +0.000 C 
ENDBRANCH   7  12
ENDBRANCH   1   7
BRANCH   6  15
ATOM     15  S   UNL     1       3.412   4.554  17.361  0.00  0.00    +0.000 S 
BRANCH  15  16
ATOM     16  C   UNL     1       5.103   5.001  17.763  0.00  0.00    +0.000 A 
ATOM     17  C   UNL     1       5.515   5.131  19.104  0.00  0.00    +0.000 A 
ATOM     18  C   UNL     1       6.836   5.437  19.444  0.00  0.00    +0.000 A 
ATOM     19  C   UNL     1       7.778   5.628  18.448  0.00  0.00    +0.000 A 
ATOM     20  C   UNL     1       7.384   5.554  17.116  0.00  0.00    +0.000 A 
ATOM     21  C   UNL     1       6.046   5.265  16.749  0.00  0.00    +0.000 A 
BRANCH  21  22
ATOM     22  C   UNL     1       5.757   5.293  15.263  0.00  0.00    +0.000 C 
ATOM     23  F   UNL     1       5.043   4.260  14.744  0.00  0.00    +0.000 F 
ATOM     24  F   UNL     1       5.055   6.413  14.916  0.00  0.00    +0.000 F 
ATOM     25  F   UNL     1       6.905   5.345  14.525  0.00  0.00    +0.000 F 
ENDBRANCH  21  22
ENDBRANCH  15  16
ENDBRANCH   6  15
TORSDOF 5
ENDMDL
MODEL 2
REMARK VINA RESULT:      -7.8      2.430      4.765
REMARK  Name = 
REMARK  6 active torsions:
REMARK  status: ('A' for Active; 'I' for Inactive)
REMARK    1  A    between atoms: C_1  and  N_2
REMARK    2  A    between atoms: C_5  and  O_6
REMARK    3  A    between atoms: O_6  and  C_7
REMARK    4  A    between atoms: C_12  and  S_13
REMARK    5  A    between atoms: S_13  and  C_14
REMARK    6  A    between atoms: C_19  and  C_20
REMARK                            x       y       z     vdW  Elec       q    Type
REMARK                         _______ _______ _______ _____ _____    ______ ____
ROOT
ATOM      1  C   UNL     1       3.811   5.640  17.446  0.00  0.00    +0.000 A 
ATOM      2  C   UNL     1       4.724   6.642  17.084  0.00  0.00    +0.000 A 
ATOM      3  C   UNL     1       5.922   6.328  16.444  0.00  0.00    +0.000 A 
ATOM      4  C   UNL     1       6.220   5.003  16.159  0.00  0.00    +0.000 A 
ATOM      5  C   UNL     1       5.299   4.002  16.470  0.00  0.00    +0.000 A 
ATOM      6  C   UNL     1       4.071   4.309  17.080  0.00  0.00    +0.000 A 
ENDROOT
BRANCH   1   7
ATOM      7  O   UNL     1       2.664   6.134  18.001  0.00  0.00    +0.000 OA
BRANCH   7  12
ATOM      8  C   UNL     1       0.016  10.287  20.472  0.00  0.00    +0.000 C 
ATOM      9  N   UNL     1       0.679   9.180  19.795  0.00  0.00    +0.000 NA
ATOM     10  C   UNL     1       1.470   9.631  18.644  0.00  0.00    +0.000 C 
ATOM     11  C   UNL     1       1.932   8.418  17.839  0.00  0.00    +0.000 C 
ATOM     12  C   UNL     1       2.696   7.396  18.691  0.00  0.00    +0.000 C 
ATOM     13  C   UNL     1       2.020   7.164  20.050  0.00  0.00    +0.000 C 
ATOM     14  C   UNL     1       1.527   8.435  20.720  0.00  0.00    +0.000 C 
ENDBRANCH   7  12
ENDBRANCH   1   7
BRANCH   6  15
ATOM     15  S   UNL     1       2.941   2.944  17.275  0.00  0.00    +0.000 S 
BRANCH  15  16
ATOM     16  C   UNL     1       2.331   3.053  18.959  0.00  0.00    +0.000 A 
ATOM     17  C   UNL     1       1.074   3.625  19.235  0.00  0.00    +0.000 A 
ATOM     18  C   UNL     1       0.557   3.683  20.533  0.00  0.00    +0.000 A 
ATOM     19  C   UNL     1       1.292   3.175  21.591  0.00  0.00    +0.000 A 
ATOM     20  C   UNL     1       2.557   2.651  21.350  0.00  0.00    +0.000 A 
ATOM     21  C   UNL     1       3.108   2.600  20.045  0.00  0.00    +0.000 A 
BRANCH  21  22
ATOM     22  C   UNL     1       4.523   2.070  19.954  0.00  0.00    +0.000 C 
ATOM     23  F   UNL     1       4.752   1.039  19.100  0.00  0.00    +0.000 F 
ATOM     24  F   UNL     1       5.395   3.048  19.565  0.00  0.00    +0.000 F 
ATOM     25  F   UNL     1       4.982   1.643  21.167  0.00  0.00    +0.000 F 
ENDBRANCH  21  22
ENDBRANCH  15  16
ENDBRANCH   6  15
TORSDOF 5
ENDMDL
MODEL 3
REMARK VINA RESULT:      -7.6      1.062      1.365
REMARK  Name = 
REMARK  6 active torsions:
REMARK  status: ('A' for Active; 'I' for Inactive)
REMARK    1  A    between atoms: C_1  and  N_2
REMARK    2  A    between atoms: C_5  and  O_6
REMARK    3  A    between atoms: O_6  and  C_7
REMARK    4  A    between atoms: C_12  and  S_13
REMARK    5  A    between atoms: S_13  and  C_14
REMARK    6  A    between atoms: C_19  and  C_20
REMARK                            x       y       z     vdW  Elec       q    Type
REMARK                         _______ _______ _______ _____ _____    ______ ____
ROOT
ATOM      1  C   UNL     1       2.124   5.824  19.823  0.00  0.00    +0.000 A 
ATOM      2  C   UNL     1       1.468   4.939  20.690  0.00  0.00    +0.000 A 
ATOM      3  C   UNL     1       1.237   3.613  20.327  0.00  0.00    +0.000 A 
ATOM      4  C   UNL     1       1.662   3.159  19.086  0.00  0.00    +0.000 A 
ATOM      5  C   UNL     1       2.360   4.015  18.234  0.00  0.00    +0.000 A 
ATOM      6  C   UNL     1       2.632   5.343  18.604  0.00  0.00    +0.000 A 
ENDROOT
BRANCH   1   7
ATOM      7  O   UNL     1       2.325   7.061  20.369  0.00  0.00    +0.000 OA
BRANCH   7  12
ATOM      8  C   UNL     1       0.532  12.253  20.801  0.00  0.00    +0.000 C 
ATOM      9  N   UNL     1       1.043  10.892  20.709  0.00  0.00    +0.000 NA
ATOM     10  C   UNL     1       0.513  10.031  21.773  0.00  0.00    +0.000 C 
ATOM     11  C   UNL     1       1.267   8.702  21.772  0.00  0.00    +0.000 C 
ATOM     12  C   UNL     1       1.239   8.005  20.405  0.00  0.00    +0.000 C 
ATOM     13  C   UNL     1       1.484   8.991  19.254  0.00  0.00    +0.000 C 
ATOM     14  C   UNL     1       0.746  10.311  19.403  0.00  0.00    +0.000 C 
ENDBRANCH   7  12
ENDBRANCH   1   7
BRANCH   6  15
ATOM     15  S   UNL     1       3.661   6.264  17.477  0.00  0.00    +0.000 S 
BRANCH  15  16
ATOM     16  C   UNL     1       5.337   5.690  17.766  0.00  0.00    +0.000 A 
ATOM     17  C   UNL     1       5.942   5.837  19.029  0.00  0.00    +0.000 A 
ATOM     18  C   UNL     1       7.230   5.361  19.292  0.00  0.00    +0.000 A 
ATOM     19  C   UNL     1       7.949   4.730  18.290  0.00  0.00    +0.000 A 
ATOM     20  C   UNL     1       7.392   4.617  17.021  0.00  0.00    +0.000 A 
ATOM     21  C   UNL     1       6.096   5.111  16.728  0.00  0.00    +0.000 A 
BRANCH  21  22
ATOM     22  C   UNL     1       5.659   4.981  15.285  0.00  0.00    +0.000 C 
ATOM     23  F   UNL     1       6.580   4.541  14.389  0.00  0.00    +0.000 F 
ATOM     24  F   UNL     1       4.609   4.114  15.161  0.00  0.00    +0.000 F 
ATOM     25  F   UNL     1       5.206   6.168  14.785  0.00  0.00    +0.000 F 
ENDBRANCH  21  22
ENDBRANCH  15  16
ENDBRANCH   6  15
TORSDOF 5
ENDMDL
MODEL 4
REMARK VINA RESULT:      -7.6      1.991      2.731
REMARK  Name = 
REMARK  6 active torsions:
REMARK  status: ('A' for Active; 'I' for Inactive)
REMARK    1  A    between atoms: C_1  and  N_2
REMARK    2  A    between atoms: C_5  and  O_6
REMARK    3  A    between atoms: O_6  and  C_7
REMARK    4  A    between atoms: C_12  and  S_13
REMARK    5  A    between atoms: S_13  and  C_14
REMARK    6  A    between atoms: C_19  and  C_20
REMARK                            x       y       z     vdW  Elec       q    Type
REMARK                         _______ _______ _______ _____ _____    ______ ____
ROOT
ATOM      1  C   UNL     1       2.511   4.682  18.560  0.00  0.00    +0.000 A 
ATOM      2  C   UNL     1       1.309   4.007  18.820  0.00  0.00    +0.000 A 
ATOM      3  C   UNL     1       1.297   2.803  19.523  0.00  0.00    +0.000 A 
ATOM      4  C   UNL     1       2.492   2.261  19.974  0.00  0.00    +0.000 A 
ATOM      5  C   UNL     1       3.688   2.947  19.765  0.00  0.00    +0.000 A 
ATOM      6  C   UNL     1       3.710   4.179  19.092  0.00  0.00    +0.000 A 
ENDROOT
BRANCH   1   7
ATOM      7  O   UNL     1       2.329   5.876  17.921  0.00  0.00    +0.000 OA
BRANCH   7  12
ATOM      8  C   UNL     1       0.503  10.435  20.420  0.00  0.00    +0.000 C 
ATOM      9  N   UNL     1       0.947   9.228  19.736  0.00  0.00    +0.000 NA
ATOM     10  C   UNL     1       1.814   9.531  18.590  0.00  0.00    +0.000 C 
ATOM     11  C   UNL     1       2.042   8.258  17.776  0.00  0.00    +0.000 C 
ATOM     12  C   UNL     1       2.595   7.104  18.622  0.00  0.00    +0.000 C 
ATOM     13  C   UNL     1       1.882   6.993  19.977  0.00  0.00    +0.000 C 
ATOM     14  C   UNL     1       1.636   8.329  20.657  0.00  0.00    +0.000 C 
ENDBRANCH   7  12
ENDBRANCH   1   7
BRANCH   6  15
ATOM     15  S   UNL     1       5.291   5.003  19.037  0.00  0.00    +0.000 S 
BRANCH  15  16
ATOM     16  C   UNL     1       5.853   4.865  17.337  0.00  0.00    +0.000 A 
ATOM     17  C   UNL     1       5.471   3.770  16.538  0.00  0.00    +0.000 A 
ATOM     18  C   UNL     1       5.860   3.661  15.200  0.00  0.00    +0.000 A 
ATOM     19  C   UNL     1       6.651   4.644  14.629  0.00  0.00    +0.000 A 
ATOM     20  C   UNL     1       7.083   5.709  15.413  0.00  0.00    +0.000 A 
ATOM     21  C   UNL     1       6.716   5.829  16.777  0.00  0.00    +0.000 A 
BRANCH  21  22
ATOM     22  C   UNL     1       7.324   7.002  17.516  0.00  0.00    +0.000 C 
ATOM     23  F   UNL     1       7.991   6.737  18.669  0.00  0.00    +0.000 F 
ATOM     24  F   UNL     1       8.228   7.666  16.733  0.00  0.00    +0.000 F 
ATOM     25  F   UNL     1       6.384   7.934  17.847  0.00  0.00    +0.000 F 
ENDBRANCH  21  22
ENDBRANCH  15  16
ENDBRANCH   6  15
TORSDOF 5
ENDMDL
MODEL 5
REMARK VINA RESULT:      -7.5      2.046      2.767
REMARK  Name = 
REMARK  6 active torsions:
REMARK  status: ('A' for Active; 'I' for Inactive)
REMARK    1  A    between atoms: C_1  and  N_2
REMARK    2  A    between atoms: C_5  and  O_6
REMARK    3  A    between atoms: O_6  and  C_7
REMARK    4  A    between atoms: C_12  and  S_13
REMARK    5  A    between atoms: S_13  and  C_14
REMARK    6  A    between atoms: C_19  and  C_20
REMARK                            x       y       z     vdW  Elec       q    Type
REMARK                         _______ _______ _______ _____ _____    ______ ____
ROOT
ATOM      1  C   UNL     1       2.354   6.075  19.597  0.00  0.00    +0.000 A 
ATOM      2  C   UNL     1       1.620   5.053  20.216  0.00  0.00    +0.000 A 
ATOM      3  C   UNL     1       1.497   3.795  19.626  0.00  0.00    +0.000 A 
ATOM      4  C   UNL     1       2.111   3.549  18.405  0.00  0.00    +0.000 A 
ATOM      5  C   UNL     1       2.885   4.541  17.804  0.00  0.00    +0.000 A 
ATOM      6  C   UNL     1       3.048   5.800  18.407  0.00  0.00    +0.000 A 
ENDROOT
BRANCH   1   7
ATOM      7  O   UNL     1       2.425   7.215  20.348  0.00  0.00    +0.000 OA
BRANCH   7  12
ATOM      8  C   UNL     1       0.307  12.277  20.853  0.00  0.00    +0.000 C 
ATOM      9  N   UNL     1       0.904  10.953  20.740  0.00  0.00    +0.000 NA
ATOM     10  C   UNL     1       0.475  10.060  21.823  0.00  0.00    +0.000 C 
ATOM     11  C   UNL     1       1.315   8.784  21.792  0.00  0.00    +0.000 C 
ATOM     12  C   UNL     1       1.281   8.084  20.427  0.00  0.00    +0.000 C 
ATOM     13  C   UNL     1       1.415   9.082  19.268  0.00  0.00    +0.000 C 
ATOM     14  C   UNL     1       0.596  10.350  19.447  0.00  0.00    +0.000 C 
ENDBRANCH   7  12
ENDBRANCH   1   7
BRANCH   6  15
ATOM     15  S   UNL     1       4.186   6.905  17.594  0.00  0.00    +0.000 S 
BRANCH  15  16
ATOM     16  C   UNL     1       5.273   5.858  16.623  0.00  0.00    +0.000 A 
ATOM     17  C   UNL     1       4.882   5.395  15.351  0.00  0.00    +0.000 A 
ATOM     18  C   UNL     1       5.727   4.614  14.557  0.00  0.00    +0.000 A 
ATOM     19  C   UNL     1       6.985   4.268  15.022  0.00  0.00    +0.000 A 
ATOM     20  C   UNL     1       7.374   4.671  16.295  0.00  0.00    +0.000 A 
ATOM     21  C   UNL     1       6.526   5.447  17.123  0.00  0.00    +0.000 A 
BRANCH  21  22
ATOM     22  C   UNL     1       7.060   5.744  18.509  0.00  0.00    +0.000 C 
ATOM     23  F   UNL     1       6.211   5.580  19.556  0.00  0.00    +0.000 F 
ATOM     24  F   UNL     1       8.137   4.954  18.804  0.00  0.00    +0.000 F 
ATOM     25  F   UNL     1       7.518   7.026  18.610  0.00  0.00    +0.000 F 
ENDBRANCH  21  22
ENDBRANCH  15  16
ENDBRANCH   6  15
TORSDOF 5
ENDMDL
MODEL 6
REMARK VINA RESULT:      -7.5      1.968      2.550
REMARK  Name = 
REMARK  6 active torsions:
REMARK  status: ('A' for Active; 'I' for Inactive)
REMARK    1  A    between atoms: C_1  and  N_2
REMARK    2  A    between atoms: C_5  and  O_6
REMARK    3  A    between atoms: O_6  and  C_7
REMARK    4  A    between atoms: C_12  and  S_13
REMARK    5  A    between atoms: S_13  and  C_14
REMARK    6  A    between atoms: C_19  and  C_20
REMARK                            x       y       z     vdW  Elec       q    Type
REMARK                         _______ _______ _______ _____ _____    ______ ____
ROOT
ATOM      1  C   UNL     1       2.508   4.605  19.589  0.00  0.00    +0.000 A 
ATOM      2  C   UNL     1       1.152   4.281  19.742  0.00  0.00    +0.000 A 
ATOM      3  C   UNL     1       0.709   2.964  19.632  0.00  0.00    +0.000 A 
ATOM      4  C   UNL     1       1.623   1.954  19.365  0.00  0.00    +0.000 A 
ATOM      5  C   UNL     1       2.981   2.256  19.259  0.00  0.00    +0.000 A 
ATOM      6  C   UNL     1       3.445   3.573  19.406  0.00  0.00    +0.000 A 
ENDROOT
BRANCH   1   7
ATOM      7  O   UNL     1       2.771   5.929  19.797  0.00  0.00    +0.000 OA
BRANCH   7  12
ATOM      8  C   UNL     1       1.540  11.176  18.646  0.00  0.00    +0.000 C 
ATOM      9  N   UNL     1       1.898   9.804  18.978  0.00  0.00    +0.000 NA
ATOM     10  C   UNL     1       1.038   9.248  20.031  0.00  0.00    +0.000 C 
ATOM     11  C   UNL     1       1.612   7.914  20.504  0.00  0.00    +0.000 C 
ATOM     12  C   UNL     1       1.824   6.919  19.355  0.00  0.00    +0.000 C 
ATOM     13  C   UNL     1       2.444   7.591  18.122  0.00  0.00    +0.000 C 
ATOM     14  C   UNL     1       1.849   8.951  17.795  0.00  0.00    +0.000 C 
ENDBRANCH   7  12
ENDBRANCH   1   7
BRANCH   6  15
ATOM     15  S   UNL     1       5.216   3.775  19.395  0.00  0.00    +0.000 S 
BRANCH  15  16
ATOM     16  C   UNL     1       5.627   4.381  17.756  0.00  0.00    +0.000 A 
ATOM     17  C   UNL     1       4.918   3.935  16.623  0.00  0.00    +0.000 A 
ATOM     18  C   UNL     1       5.190   4.422  15.342  0.00  0.00    +0.000 A 
ATOM     19  C   UNL     1       6.188   5.365  15.160  0.00  0.00    +0.000 A 
ATOM     20  C   UNL     1       6.935   5.783  16.256  0.00  0.00    +0.000 A 
ATOM     21  C   UNL     1       6.689   5.288  17.560  0.00  0.00    +0.000 A 
BRANCH  21  22
ATOM     22  C   UNL     1       7.634   5.781  18.635  0.00  0.00    +0.000 C 
ATOM     23  F   UNL     1       8.666   4.969  18.983  0.00  0.00    +0.000 F 
ATOM     24  F   UNL     1       8.223   6.961  18.274  0.00  0.00    +0.000 F 
ATOM     25  F   UNL     1       6.977   6.050  19.802  0.00  0.00    +0.000 F 
ENDBRANCH  21  22
ENDBRANCH  15  16
ENDBRANCH   6  15
TORSDOF 5
ENDMDL
MODEL 7
REMARK VINA RESULT:      -7.4      1.765      2.382
REMARK  Name = 
REMARK  6 active torsions:
REMARK  status: ('A' for Active; 'I' for Inactive)
REMARK    1  A    between atoms: C_1  and  N_2
REMARK    2  A    between atoms: C_5  and  O_6
REMARK    3  A    between atoms: O_6  and  C_7
REMARK    4  A    between atoms: C_12  and  S_13
REMARK    5  A    between atoms: S_13  and  C_14
REMARK    6  A    between atoms: C_19  and  C_20
REMARK                            x       y       z     vdW  Elec       q    Type
REMARK                         _______ _______ _______ _____ _____    ______ ____
ROOT
ATOM      1  C   UNL     1       2.843   5.259  19.686  0.00  0.00    +0.000 A 
ATOM      2  C   UNL     1       1.568   4.800  20.051  0.00  0.00    +0.000 A 
ATOM      3  C   UNL     1       1.292   3.436  20.138  0.00  0.00    +0.000 A 
ATOM      4  C   UNL     1       2.292   2.515  19.859  0.00  0.00    +0.000 A 
ATOM      5  C   UNL     1       3.577   2.959  19.544  0.00  0.00    +0.000 A 
ATOM      6  C   UNL     1       3.878   4.330  19.491  0.00  0.00    +0.000 A 
ENDROOT
BRANCH   1   7
ATOM      7  O   UNL     1       2.952   6.621  19.719  0.00  0.00    +0.000 OA
BRANCH   7  12
ATOM      8  C   UNL     1       0.720  11.585  18.859  0.00  0.00    +0.000 C 
ATOM      9  N   UNL     1       1.341  10.292  19.113  0.00  0.00    +0.000 NA
ATOM     10  C   UNL     1       0.664   9.556  20.189  0.00  0.00    +0.000 C 
ATOM     11  C   UNL     1       1.500   8.336  20.572  0.00  0.00    +0.000 C 
ATOM     12  C   UNL     1       1.815   7.432  19.372  0.00  0.00    +0.000 C 
ATOM     13  C   UNL     1       2.223   8.244  18.136  0.00  0.00    +0.000 C 
ATOM     14  C   UNL     1       1.373   9.481  17.900  0.00  0.00    +0.000 C 
ENDBRANCH   7  12
ENDBRANCH   1   7
BRANCH   6  15
ATOM     15  S   UNL     1       5.594   4.735  19.225  0.00  0.00    +0.000 S 
BRANCH  15  16
ATOM     16  C   UNL     1       5.819   4.758  17.444  0.00  0.00    +0.000 A 
ATOM     17  C   UNL     1       5.279   3.738  16.635  0.00  0.00    +0.000 A 
ATOM     18  C   UNL     1       5.404   3.755  15.243  0.00  0.00    +0.000 A 
ATOM     19  C   UNL     1       6.081   4.793  14.624  0.00  0.00    +0.000 A 
ATOM     20  C   UNL     1       6.665   5.785  15.405  0.00  0.00    +0.000 A 
ATOM     21  C   UNL     1       6.567   5.776  16.818  0.00  0.00    +0.000 A 
BRANCH  21  22
ATOM     22  C   UNL     1       7.318   6.881  17.531  0.00  0.00    +0.000 C 
ATOM     23  F   UNL     1       8.118   6.525  18.570  0.00  0.00    +0.000 F 
ATOM     24  F   UNL     1       8.140   7.556  16.672  0.00  0.00    +0.000 F 
ATOM     25  F   UNL     1       6.471   7.826  18.033  0.00  0.00    +0.000 F 
ENDBRANCH  21  22
ENDBRANCH  15  16
ENDBRANCH   6  15
TORSDOF 5
ENDMDL
MODEL 8
REMARK VINA RESULT:      -7.4      0.906      1.482
REMARK  Name = 
REMARK  6 active torsions:
REMARK  status: ('A' for Active; 'I' for Inactive)
REMARK    1  A    between atoms: C_1  and  N_2
REMARK    2  A    between atoms: C_5  and  O_6
REMARK    3  A    between atoms: O_6  and  C_7
REMARK    4  A    between atoms: C_12  and  S_13
REMARK    5  A    between atoms: S_13  and  C_14
REMARK    6  A    between atoms: C_19  and  C_20
REMARK                            x       y       z     vdW  Elec       q    Type
REMARK                         _______ _______ _______ _____ _____    ______ ____
ROOT
ATOM      1  C   UNL     1       2.245   4.473  19.385  0.00  0.00    +0.000 A 
ATOM      2  C   UNL     1       1.666   4.504  20.662  0.00  0.00    +0.000 A 
ATOM      3  C   UNL     1       1.941   3.511  21.602  0.00  0.00    +0.000 A 
ATOM      4  C   UNL     1       2.801   2.473  21.270  0.00  0.00    +0.000 A 
ATOM      5  C   UNL     1       3.421   2.457  20.021  0.00  0.00    +0.000 A 
ATOM      6  C   UNL     1       3.183   3.472  19.079  0.00  0.00    +0.000 A 
ENDROOT
BRANCH   1   7
ATOM      7  O   UNL     1       1.919   5.558  18.621  0.00  0.00    +0.000 OA
BRANCH   7  12
ATOM      8  C   UNL     1       0.977  10.913  19.515  0.00  0.00    +0.000 C 
ATOM      9  N   UNL     1       1.190   9.496  19.251  0.00  0.00    +0.000 NA
ATOM     10  C   UNL     1       2.196   9.275  18.204  0.00  0.00    +0.000 C 
ATOM     11  C   UNL     1       2.195   7.801  17.803  0.00  0.00    +0.000 C 
ATOM     12  C   UNL     1       2.399   6.861  18.998  0.00  0.00    +0.000 C 
ATOM     13  C   UNL     1       1.569   7.293  20.215  0.00  0.00    +0.000 C 
ATOM     14  C   UNL     1       1.578   8.791  20.469  0.00  0.00    +0.000 C 
ENDBRANCH   7  12
ENDBRANCH   1   7
BRANCH   6  15
ATOM     15  S   UNL     1       4.163   3.393  17.592  0.00  0.00    +0.000 S 
BRANCH  15  16
ATOM     16  C   UNL     1       5.540   4.514  17.856  0.00  0.00    +0.000 A 
ATOM     17  C   UNL     1       5.826   5.016  19.141  0.00  0.00    +0.000 A 
ATOM     18  C   UNL     1       6.917   5.856  19.381  0.00  0.00    +0.000 A 
ATOM     19  C   UNL     1       7.748   6.222  18.335  0.00  0.00    +0.000 A 
ATOM     20  C   UNL     1       7.457   5.780  17.049  0.00  0.00    +0.000 A 
ATOM     21  C   UNL     1       6.345   4.944  16.781  0.00  0.00    +0.000 A 
BRANCH  21  22
ATOM     22  C   UNL     1       6.117   4.608  15.322  0.00  0.00    +0.000 C 
ATOM     23  F   UNL     1       4.955   5.027  14.757  0.00  0.00    +0.000 F 
ATOM     24  F   UNL     1       7.101   5.135  14.533  0.00  0.00    +0.000 F 
ATOM     25  F   UNL     1       6.162   3.262  15.100  0.00  0.00    +0.000 F 
ENDBRANCH  21  22
ENDBRANCH  15  16
ENDBRANCH   6  15
TORSDOF 5
ENDMDL
MODEL 9
REMARK VINA RESULT:      -7.3      3.836      6.124
REMARK  Name = 
REMARK  6 active torsions:
REMARK  status: ('A' for Active; 'I' for Inactive)
REMARK    1  A    between atoms: C_1  and  N_2
REMARK    2  A    between atoms: C_5  and  O_6
REMARK    3  A    between atoms: O_6  and  C_7
REMARK    4  A    between atoms: C_12  and  S_13
REMARK    5  A    between atoms: S_13  and  C_14
REMARK    6  A    between atoms: C_19  and  C_20
REMARK                            x       y       z     vdW  Elec       q    Type
REMARK                         _______ _______ _______ _____ _____    ______ ____
ROOT
ATOM      1  C   UNL     1       3.655   4.106  19.279  0.00  0.00    +0.000 A 
ATOM      2  C   UNL     1       3.775   3.131  18.278  0.00  0.00    +0.000 A 
ATOM      3  C   UNL     1       2.647   2.571  17.680  0.00  0.00    +0.000 A 
ATOM      4  C   UNL     1       1.383   2.982  18.080  0.00  0.00    +0.000 A 
ATOM      5  C   UNL     1       1.251   3.987  19.039  0.00  0.00    +0.000 A 
ATOM      6  C   UNL     1       2.380   4.587  19.622  0.00  0.00    +0.000 A 
ENDROOT
BRANCH   1   7
ATOM      7  O   UNL     1       4.860   4.592  19.703  0.00  0.00    +0.000 OA
BRANCH   7  12
ATOM      8  C   UNL     1       8.114   8.431  17.459  0.00  0.00    +0.000 C 
ATOM      9  N   UNL     1       7.226   7.449  18.066  0.00  0.00    +0.000 NA
ATOM     10  C   UNL     1       6.292   6.872  17.091  0.00  0.00    +0.000 C 
ATOM     11  C   UNL     1       5.238   6.046  17.826  0.00  0.00    +0.000 C 
ATOM     12  C   UNL     1       5.853   4.971  18.733  0.00  0.00    +0.000 C 
ATOM     13  C   UNL     1       7.051   5.509  19.527  0.00  0.00    +0.000 C 
ATOM     14  C   UNL     1       7.989   6.385  18.713  0.00  0.00    +0.000 C 
ENDBRANCH   7  12
ENDBRANCH   1   7
BRANCH   6  15
ATOM     15  S   UNL     1       2.050   5.955  20.716  0.00  0.00    +0.000 S 
BRANCH  15  16
ATOM     16  C   UNL     1       1.927   7.403  19.662  0.00  0.00    +0.000 A 
ATOM     17  C   UNL     1       2.568   7.439  18.408  0.00  0.00    +0.000 A 
ATOM     18  C   UNL     1       2.453   8.537  17.551  0.00  0.00    +0.000 A 
ATOM     19  C   UNL     1       1.697   9.633  17.932  0.00  0.00    +0.000 A 
ATOM     20  C   UNL     1       1.096   9.641  19.186  0.00  0.00    +0.000 A 
ATOM     21  C   UNL     1       1.215   8.547  20.078  0.00  0.00    +0.000 A 
BRANCH  21  22
ATOM     22  C   UNL     1       0.568   8.736  21.433  0.00  0.00    +0.000 C 
ATOM     23  F   UNL     1      -0.447   7.896  21.765  0.00  0.00    +0.000 F 
ATOM     24  F   UNL     1       1.480   8.600  22.442  0.00  0.00    +0.000 F 
ATOM     25  F   UNL     1       0.058   9.995  21.579  0.00  0.00    +0.000 F 
ENDBRANCH  21  22
ENDBRANCH  15  16
ENDBRANCH   6  15
TORSDOF 5
ENDMDL
