MODEL 1
REMARK VINA RESULT:      -8.2      0.000      0.000
REMARK  Name = 
REMARK  8 active torsions:
REMARK  status: ('A' for Active; 'I' for Inactive)
REMARK    1  A    between atoms: C_1  and  C_2
REMARK    2  A    between atoms: C_2  and  C_3
REMARK    3  A    between atoms: C_3  and  C_4
REMARK    4  A    between atoms: C_7  and  O_8
REMARK    5  A    between atoms: O_8  and  C_9
REMARK    6  A    between atoms: C_13  and  C_14
REMARK    7  A    between atoms: C_17  and  O_18
REMARK    8  A    between atoms: C_20  and  O_21
REMARK                            x       y       z     vdW  Elec       q    Type
REMARK                         _______ _______ _______ _____ _____    ______ ____
ROOT
ATOM      1  C   UNL     1       6.263   5.715  17.746  0.00  0.00    +0.000 A 
ATOM      2  C   UNL     1       7.475   6.034  18.311  0.00  0.00    +0.000 A 
ATOM      3  N   UNL     1       7.450   5.482  19.553  0.00  0.00    +0.000 N 
ATOM      4  N   UNL     1       6.328   4.800  19.824  0.00  0.00    +0.000 NA
ATOM      5  C   UNL     1       5.599   4.878  18.690  0.00  0.00    +0.000 A 
ATOM      6  H   UNL     1       8.164   5.531  20.271  0.00  0.00    +0.000 HD
ENDROOT
BRANCH   5   7
ATOM      7  C   UNL     1       4.303   4.193  18.591  0.00  0.00    +0.000 A 
ATOM      8  C   UNL     1       3.208   4.889  18.040  0.00  0.00    +0.000 A 
ATOM      9  C   UNL     1       1.945   4.298  17.946  0.00  0.00    +0.000 A 
ATOM     10  C   UNL     1       1.768   2.998  18.404  0.00  0.00    +0.000 A 
ATOM     11  C   UNL     1       2.828   2.286  18.951  0.00  0.00    +0.000 A 
ATOM     12  C   UNL     1       4.088   2.884  19.049  0.00  0.00    +0.000 A 
BRANCH  10  13
ATOM     13  O   UNL     1       0.552   2.386  18.352  0.00  0.00    +0.000 OA
ATOM     14  H   UNL     1       0.499   1.871  17.528  0.00  0.00    +0.000 HD
ENDBRANCH  10  13
BRANCH  12  15
ATOM     15  O   UNL     1       5.095   2.175  19.647  0.00  0.00    +0.000 OA
ATOM     16  H   UNL     1       5.936   2.394  19.216  0.00  0.00    +0.000 HD
ENDBRANCH  12  15
ENDBRANCH   5   7
BRANCH   1  17
ATOM     17  O   UNL     1       5.816   6.077  16.522  0.00  0.00    +0.000 OA
BRANCH  17  21
ATOM     18  C   UNL     1       6.490   3.895  13.025  0.00  0.00    +0.000 A 
ATOM     19  C   UNL     1       5.324   3.720  13.782  0.00  0.00    +0.000 A 
ATOM     20  C   UNL     1       5.126   4.453  14.957  0.00  0.00    +0.000 A 
ATOM     21  C   UNL     1       6.096   5.358  15.386  0.00  0.00    +0.000 A 
ATOM     22  C   UNL     1       7.245   5.560  14.623  0.00  0.00    +0.000 A 
ATOM     23  C   UNL     1       7.450   4.818  13.459  0.00  0.00    +0.000 A 
BRANCH  18  24
ATOM     24  C   UNL     1       6.716   3.122  11.749  0.00  0.00    +0.000 C 
BRANCH  24  26
ATOM     25  C   UNL     1       6.215   0.694  11.135  0.00  0.00    +0.000 C 
ATOM     26  C   UNL     1       5.642   2.071  11.450  0.00  0.00    +0.000 C 
ENDBRANCH  24  26
ENDBRANCH  18  24
ENDBRANCH  17  21
ENDBRANCH   1  17
TORSDOF 7
ENDMDL
MODEL 2
REMARK VINA RESULT:      -8.1      0.130      1.015
REMARK  Name = 
REMARK  8 active torsions:
REMARK  status: ('A' for Active; 'I' for Inactive)
REMARK    1  A    between atoms: C_1  and  C_2
REMARK    2  A    between atoms: C_2  and  C_3
REMARK    3  A    between atoms: C_3  and  C_4
REMARK    4  A    between atoms: C_7  and  O_8
REMARK    5  A    between atoms: O_8  and  C_9
REMARK    6  A    between atoms: C_13  and  C_14
REMARK    7  A    between atoms: C_17  and  O_18
REMARK    8  A    between atoms: C_20  and  O_21
REMARK                            x       y       z     vdW  Elec       q    Type
REMARK                         _______ _______ _______ _____ _____    ______ ____
ROOT
ATOM      1  C   UNL     1       6.256   5.779  17.777  0.00  0.00    +0.000 A 
ATOM      2  C   UNL     1       7.481   6.048  18.342  0.00  0.00    +0.000 A 
ATOM      3  N   UNL     1       7.450   5.457  19.566  0.00  0.00    +0.000 N 
ATOM      4  N   UNL     1       6.312   4.796  19.824  0.00  0.00    +0.000 NA
ATOM      5  C   UNL     1       5.577   4.929  18.699  0.00  0.00    +0.000 A 
ATOM      6  H   UNL     1       8.170   5.465  20.280  0.00  0.00    +0.000 HD
ENDROOT
BRANCH   5   7
ATOM      7  C   UNL     1       4.263   4.283  18.589  0.00  0.00    +0.000 A 
ATOM      8  C   UNL     1       3.172   5.039  18.115  0.00  0.00    +0.000 A 
ATOM      9  C   UNL     1       1.892   4.484  18.016  0.00  0.00    +0.000 A 
ATOM     10  C   UNL     1       1.695   3.161  18.390  0.00  0.00    +0.000 A 
ATOM     11  C   UNL     1       2.750   2.390  18.859  0.00  0.00    +0.000 A 
ATOM     12  C   UNL     1       4.028   2.951  18.964  0.00  0.00    +0.000 A 
BRANCH  10  13
ATOM     13  O   UNL     1       0.463   2.581  18.329  0.00  0.00    +0.000 OA
ATOM     14  H   UNL     1       0.034   2.854  17.500  0.00  0.00    +0.000 HD
ENDBRANCH  10  13
BRANCH  12  15
ATOM     15  O   UNL     1       5.031   2.181  19.486  0.00  0.00    +0.000 OA
ATOM     16  H   UNL     1       4.740   1.256  19.513  0.00  0.00    +0.000 HD
ENDBRANCH  12  15
ENDBRANCH   5   7
BRANCH   1  17
ATOM     17  O   UNL     1       5.810   6.192  16.569  0.00  0.00    +0.000 OA
BRANCH  17  21
ATOM     18  C   UNL     1       6.510   3.941  13.121  0.00  0.00    +0.000 A 
ATOM     19  C   UNL     1       7.444   4.877  13.584  0.00  0.00    +0.000 A 
ATOM     20  C   UNL     1       7.182   5.629  14.735  0.00  0.00    +0.000 A 
ATOM     21  C   UNL     1       5.982   5.456  15.422  0.00  0.00    +0.000 A 
ATOM     22  C   UNL     1       5.060   4.506  14.985  0.00  0.00    +0.000 A 
ATOM     23  C   UNL     1       5.314   3.766  13.829  0.00  0.00    +0.000 A 
BRANCH  18  24
ATOM     24  C   UNL     1       6.779   3.113  11.888  0.00  0.00    +0.000 C 
BRANCH  24  26
ATOM     25  C   UNL     1       6.150   0.766  11.100  0.00  0.00    +0.000 C 
ATOM     26  C   UNL     1       5.651   2.142  11.524  0.00  0.00    +0.000 C 
ENDBRANCH  24  26
ENDBRANCH  18  24
ENDBRANCH  17  21
ENDBRANCH   1  17
TORSDOF 7
ENDMDL
MODEL 3
REMARK VINA RESULT:      -7.7      4.149      7.511
REMARK  Name = 
REMARK  8 active torsions:
REMARK  status: ('A' for Active; 'I' for Inactive)
REMARK    1  A    between atoms: C_1  and  C_2
REMARK    2  A    between atoms: C_2  and  C_3
REMARK    3  A    between atoms: C_3  and  C_4
REMARK    4  A    between atoms: C_7  and  O_8
REMARK    5  A    between atoms: O_8  and  C_9
REMARK    6  A    between atoms: C_13  and  C_14
REMARK    7  A    between atoms: C_17  and  O_18
REMARK    8  A    between atoms: C_20  and  O_21
REMARK                            x       y       z     vdW  Elec       q    Type
REMARK                         _______ _______ _______ _____ _____    ______ ____
ROOT
ATOM      1  C   UNL     1       2.393   5.436  19.814  0.00  0.00    +0.000 A 
ATOM      2  C   UNL     1       1.377   4.650  20.305  0.00  0.00    +0.000 A 
ATOM      3  N   UNL     1       1.421   3.506  19.572  0.00  0.00    +0.000 N 
ATOM      4  N   UNL     1       2.408   3.477  18.666  0.00  0.00    +0.000 NA
ATOM      5  C   UNL     1       3.067   4.642  18.840  0.00  0.00    +0.000 A 
ATOM      6  H   UNL     1       0.805   2.703  19.634  0.00  0.00    +0.000 HD
ENDROOT
BRANCH   5   7
ATOM      7  C   UNL     1       4.263   4.946  18.043  0.00  0.00    +0.000 A 
ATOM      8  C   UNL     1       4.173   5.924  17.032  0.00  0.00    +0.000 A 
ATOM      9  C   UNL     1       5.271   6.236  16.224  0.00  0.00    +0.000 A 
ATOM     10  C   UNL     1       6.473   5.569  16.424  0.00  0.00    +0.000 A 
ATOM     11  C   UNL     1       6.593   4.602  17.414  0.00  0.00    +0.000 A 
ATOM     12  C   UNL     1       5.490   4.288  18.215  0.00  0.00    +0.000 A 
BRANCH  10  13
ATOM     13  O   UNL     1       7.565   5.824  15.650  0.00  0.00    +0.000 OA
ATOM     14  H   UNL     1       8.357   5.512  16.119  0.00  0.00    +0.000 HD
ENDBRANCH  10  13
BRANCH  12  15
ATOM     15  O   UNL     1       5.627   3.289  19.140  0.00  0.00    +0.000 OA
ATOM     16  H   UNL     1       6.187   3.604  19.868  0.00  0.00    +0.000 HD
ENDBRANCH  12  15
ENDBRANCH   5   7
BRANCH   1  17
ATOM     17  O   UNL     1       2.719   6.687  20.213  0.00  0.00    +0.000 OA
BRANCH  17  21
ATOM     18  C   UNL     1       0.430   9.975  19.032  0.00  0.00    +0.000 A 
ATOM     19  C   UNL     1       1.289   9.324  18.137  0.00  0.00    +0.000 A 
ATOM     20  C   UNL     1       2.057   8.232  18.559  0.00  0.00    +0.000 A 
ATOM     21  C   UNL     1       1.975   7.792  19.879  0.00  0.00    +0.000 A 
ATOM     22  C   UNL     1       1.101   8.415  20.768  0.00  0.00    +0.000 A 
ATOM     23  C   UNL     1       0.347   9.513  20.352  0.00  0.00    +0.000 A 
BRANCH  18  24
ATOM     24  C   UNL     1      -0.413  11.146  18.593  0.00  0.00    +0.000 C 
BRANCH  24  26
ATOM     25  C   UNL     1      -2.164   9.904  17.209  0.00  0.00    +0.000 C 
ATOM     26  C   UNL     1      -1.897  10.817  18.400  0.00  0.00    +0.000 C 
ENDBRANCH  24  26
ENDBRANCH  18  24
ENDBRANCH  17  21
ENDBRANCH   1  17
TORSDOF 7
ENDMDL
MODEL 4
REMARK VINA RESULT:      -7.7      4.176      7.514
REMARK  Name = 
REMARK  8 active torsions:
REMARK  status: ('A' for Active; 'I' for Inactive)
REMARK    1  A    between atoms: C_1  and  C_2
REMARK    2  A    between atoms: C_2  and  C_3
REMARK    3  A    between atoms: C_3  and  C_4
REMARK    4  A    between atoms: C_7  and  O_8
REMARK    5  A    between atoms: O_8  and  C_9
REMARK    6  A    between atoms: C_13  and  C_14
REMARK    7  A    between atoms: C_17  and  O_18
REMARK    8  A    between atoms: C_20  and  O_21
REMARK                            x       y       z     vdW  Elec       q    Type
REMARK                         _______ _______ _______ _____ _____    ______ ____
ROOT
ATOM      1  C   UNL     1       2.418   5.463  19.675  0.00  0.00    +0.000 A 
ATOM      2  C   UNL     1       1.413   4.669  20.177  0.00  0.00    +0.000 A 
ATOM      3  N   UNL     1       1.493   3.504  19.481  0.00  0.00    +0.000 N 
ATOM      4  N   UNL     1       2.493   3.468  18.590  0.00  0.00    +0.000 NA
ATOM      5  C   UNL     1       3.124   4.653  18.737  0.00  0.00    +0.000 A 
ATOM      6  H   UNL     1       0.894   2.690  19.560  0.00  0.00    +0.000 HD
ENDROOT
BRANCH   5   7
ATOM      7  C   UNL     1       4.325   4.959  17.947  0.00  0.00    +0.000 A 
ATOM      8  C   UNL     1       4.247   5.955  16.953  0.00  0.00    +0.000 A 
ATOM      9  C   UNL     1       5.349   6.269  16.152  0.00  0.00    +0.000 A 
ATOM     10  C   UNL     1       6.544   5.586  16.344  0.00  0.00    +0.000 A 
ATOM     11  C   UNL     1       6.652   4.601  17.316  0.00  0.00    +0.000 A 
ATOM     12  C   UNL     1       5.544   4.285  18.110  0.00  0.00    +0.000 A 
BRANCH  10  13
ATOM     13  O   UNL     1       7.640   5.844  15.576  0.00  0.00    +0.000 OA
ATOM     14  H   UNL     1       7.651   5.218  14.832  0.00  0.00    +0.000 HD
ENDBRANCH  10  13
BRANCH  12  15
ATOM     15  O   UNL     1       5.669   3.269  19.018  0.00  0.00    +0.000 OA
ATOM     16  H   UNL     1       6.011   2.481  18.567  0.00  0.00    +0.000 HD
ENDBRANCH  12  15
ENDBRANCH   5   7
BRANCH   1  17
ATOM     17  O   UNL     1       2.711   6.732  20.039  0.00  0.00    +0.000 OA
BRANCH  17  21
ATOM     18  C   UNL     1       0.497  10.098  18.937  0.00  0.00    +0.000 A 
ATOM     19  C   UNL     1       0.474   9.606  20.248  0.00  0.00    +0.000 A 
ATOM     20  C   UNL     1       1.214   8.469  20.592  0.00  0.00    +0.000 A 
ATOM     21  C   UNL     1       1.973   7.813  19.623  0.00  0.00    +0.000 A 
ATOM     22  C   UNL     1       2.024   8.312  18.323  0.00  0.00    +0.000 A 
ATOM     23  C   UNL     1       1.275   9.438  17.977  0.00  0.00    +0.000 A 
BRANCH  18  24
ATOM     24  C   UNL     1      -0.286  11.329  18.550  0.00  0.00    +0.000 C 
BRANCH  24  26
ATOM     25  C   UNL     1      -2.299  10.050  17.638  0.00  0.00    +0.000 C 
ATOM     26  C   UNL     1      -1.807  11.143  18.578  0.00  0.00    +0.000 C 
ENDBRANCH  24  26
ENDBRANCH  18  24
ENDBRANCH  17  21
ENDBRANCH   1  17
TORSDOF 7
ENDMDL
MODEL 5
REMARK VINA RESULT:      -7.7      0.967      1.419
REMARK  Name = 
REMARK  8 active torsions:
REMARK  status: ('A' for Active; 'I' for Inactive)
REMARK    1  A    between atoms: C_1  and  C_2
REMARK    2  A    between atoms: C_2  and  C_3
REMARK    3  A    between atoms: C_3  and  C_4
REMARK    4  A    between atoms: C_7  and  O_8
REMARK    5  A    between atoms: O_8  and  C_9
REMARK    6  A    between atoms: C_13  and  C_14
REMARK    7  A    between atoms: C_17  and  O_18
REMARK    8  A    between atoms: C_20  and  O_21
REMARK                            x       y       z     vdW  Elec       q    Type
REMARK                         _______ _______ _______ _____ _____    ______ ____
ROOT
ATOM      1  C   UNL     1       6.256   5.729  17.753  0.00  0.00    +0.000 A 
ATOM      2  C   UNL     1       7.463   6.065  18.320  0.00  0.00    +0.000 A 
ATOM      3  N   UNL     1       7.446   5.510  19.560  0.00  0.00    +0.000 N 
ATOM      4  N   UNL     1       6.334   4.812  19.830  0.00  0.00    +0.000 NA
ATOM      5  C   UNL     1       5.604   4.880  18.696  0.00  0.00    +0.000 A 
ATOM      6  H   UNL     1       8.158   5.570  20.279  0.00  0.00    +0.000 HD
ENDROOT
BRANCH   5   7
ATOM      7  C   UNL     1       4.318   4.177  18.596  0.00  0.00    +0.000 A 
ATOM      8  C   UNL     1       4.278   2.795  18.872  0.00  0.00    +0.000 A 
ATOM      9  C   UNL     1       3.087   2.069  18.767  0.00  0.00    +0.000 A 
ATOM     10  C   UNL     1       1.924   2.724  18.384  0.00  0.00    +0.000 A 
ATOM     11  C   UNL     1       1.932   4.084  18.107  0.00  0.00    +0.000 A 
ATOM     12  C   UNL     1       3.126   4.806  18.207  0.00  0.00    +0.000 A 
BRANCH  10  13
ATOM     13  O   UNL     1       0.744   2.055  18.249  0.00  0.00    +0.000 OA
ATOM     14  H   UNL     1       0.067   2.681  17.942  0.00  0.00    +0.000 HD
ENDBRANCH  10  13
BRANCH  12  15
ATOM     15  O   UNL     1       3.110   6.132  17.869  0.00  0.00    +0.000 OA
ATOM     16  H   UNL     1       2.339   6.307  17.307  0.00  0.00    +0.000 HD
ENDBRANCH  12  15
ENDBRANCH   5   7
BRANCH   1  17
ATOM     17  O   UNL     1       5.804   6.086  16.529  0.00  0.00    +0.000 OA
BRANCH  17  21
ATOM     18  C   UNL     1       6.483   3.908  13.030  0.00  0.00    +0.000 A 
ATOM     19  C   UNL     1       5.293   3.772  13.756  0.00  0.00    +0.000 A 
ATOM     20  C   UNL     1       5.092   4.502  14.933  0.00  0.00    +0.000 A 
ATOM     21  C   UNL     1       6.085   5.365  15.394  0.00  0.00    +0.000 A 
ATOM     22  C   UNL     1       7.261   5.528  14.663  0.00  0.00    +0.000 A 
ATOM     23  C   UNL     1       7.466   4.789  13.498  0.00  0.00    +0.000 A 
BRANCH  18  24
ATOM     24  C   UNL     1       6.712   3.137  11.754  0.00  0.00    +0.000 C 
BRANCH  24  26
ATOM     25  C   UNL     1       6.233   0.711  11.117  0.00  0.00    +0.000 C 
ATOM     26  C   UNL     1       5.648   2.075  11.459  0.00  0.00    +0.000 C 
ENDBRANCH  24  26
ENDBRANCH  18  24
ENDBRANCH  17  21
ENDBRANCH   1  17
TORSDOF 7
ENDMDL
MODEL 6
REMARK VINA RESULT:      -7.7      3.475      7.070
REMARK  Name = 
REMARK  8 active torsions:
REMARK  status: ('A' for Active; 'I' for Inactive)
REMARK    1  A    between atoms: C_1  and  C_2
REMARK    2  A    between atoms: C_2  and  C_3
REMARK    3  A    between atoms: C_3  and  C_4
REMARK    4  A    between atoms: C_7  and  O_8
REMARK    5  A    between atoms: O_8  and  C_9
REMARK    6  A    between atoms: C_13  and  C_14
REMARK    7  A    between atoms: C_17  and  O_18
REMARK    8  A    between atoms: C_20  and  O_21
REMARK                            x       y       z     vdW  Elec       q    Type
REMARK                         _______ _______ _______ _____ _____    ______ ____
ROOT
ATOM      1  C   UNL     1       2.883   3.917  19.250  0.00  0.00    +0.000 A 
ATOM      2  C   UNL     1       1.920   2.995  19.584  0.00  0.00    +0.000 A 
ATOM      3  N   UNL     1       1.921   2.089  18.571  0.00  0.00    +0.000 N 
ATOM      4  N   UNL     1       2.834   2.335  17.621  0.00  0.00    +0.000 NA
ATOM      5  C   UNL     1       3.490   3.433  18.053  0.00  0.00    +0.000 A 
ATOM      6  H   UNL     1       1.322   1.278  18.459  0.00  0.00    +0.000 HD
ENDROOT
BRANCH   5   7
ATOM      7  C   UNL     1       4.616   3.978  17.282  0.00  0.00    +0.000 A 
ATOM      8  C   UNL     1       4.458   4.170  15.895  0.00  0.00    +0.000 A 
ATOM      9  C   UNL     1       5.503   4.661  15.106  0.00  0.00    +0.000 A 
ATOM     10  C   UNL     1       6.720   4.965  15.705  0.00  0.00    +0.000 A 
ATOM     11  C   UNL     1       6.905   4.788  17.069  0.00  0.00    +0.000 A 
ATOM     12  C   UNL     1       5.859   4.291  17.853  0.00  0.00    +0.000 A 
BRANCH  10  13
ATOM     13  O   UNL     1       7.774   5.427  14.975  0.00  0.00    +0.000 OA
ATOM     14  H   UNL     1       8.516   5.599  15.579  0.00  0.00    +0.000 HD
ENDBRANCH  10  13
BRANCH  12  15
ATOM     15  O   UNL     1       6.095   4.073  19.184  0.00  0.00    +0.000 OA
ATOM     16  H   UNL     1       7.031   4.245  19.372  0.00  0.00    +0.000 HD
ENDBRANCH  12  15
ENDBRANCH   5   7
BRANCH   1  17
ATOM     17  O   UNL     1       3.223   5.027  19.944  0.00  0.00    +0.000 OA
BRANCH  17  21
ATOM     18  C   UNL     1       1.712   8.763  18.847  0.00  0.00    +0.000 A 
ATOM     19  C   UNL     1       2.529   8.023  17.983  0.00  0.00    +0.000 A 
ATOM     20  C   UNL     1       3.035   6.779  18.377  0.00  0.00    +0.000 A 
ATOM     21  C   UNL     1       2.733   6.273  19.640  0.00  0.00    +0.000 A 
ATOM     22  C   UNL     1       1.897   6.989  20.495  0.00  0.00    +0.000 A 
ATOM     23  C   UNL     1       1.404   8.236  20.108  0.00  0.00    +0.000 A 
BRANCH  18  24
ATOM     24  C   UNL     1       1.148  10.101  18.436  0.00  0.00    +0.000 C 
BRANCH  24  26
ATOM     25  C   UNL     1      -1.218  10.738  19.154  0.00  0.00    +0.000 C 
ATOM     26  C   UNL     1      -0.346  10.077  18.095  0.00  0.00    +0.000 C 
ENDBRANCH  24  26
ENDBRANCH  18  24
ENDBRANCH  17  21
ENDBRANCH   1  17
TORSDOF 7
ENDMDL
MODEL 7
REMARK VINA RESULT:      -7.6      3.836      7.169
REMARK  Name = 
REMARK  8 active torsions:
REMARK  status: ('A' for Active; 'I' for Inactive)
REMARK    1  A    between atoms: C_1  and  C_2
REMARK    2  A    between atoms: C_2  and  C_3
REMARK    3  A    between atoms: C_3  and  C_4
REMARK    4  A    between atoms: C_7  and  O_8
REMARK    5  A    between atoms: O_8  and  C_9
REMARK    6  A    between atoms: C_13  and  C_14
REMARK    7  A    between atoms: C_17  and  O_18
REMARK    8  A    between atoms: C_20  and  O_21
REMARK                            x       y       z     vdW  Elec       q    Type
REMARK                         _______ _______ _______ _____ _____    ______ ____
ROOT
ATOM      1  C   UNL     1       2.797   4.846  19.747  0.00  0.00    +0.000 A 
ATOM      2  C   UNL     1       1.807   4.108  20.354  0.00  0.00    +0.000 A 
ATOM      3  N   UNL     1       1.815   2.906  19.719  0.00  0.00    +0.000 N 
ATOM      4  N   UNL     1       2.755   2.796  18.771  0.00  0.00    +0.000 NA
ATOM      5  C   UNL     1       3.422   3.969  18.813  0.00  0.00    +0.000 A 
ATOM      6  H   UNL     1       1.203   2.114  19.880  0.00  0.00    +0.000 HD
ENDROOT
BRANCH   5   7
ATOM      7  C   UNL     1       4.576   4.200  17.934  0.00  0.00    +0.000 A 
ATOM      8  C   UNL     1       4.440   3.944  16.554  0.00  0.00    +0.000 A 
ATOM      9  C   UNL     1       5.513   4.120  15.674  0.00  0.00    +0.000 A 
ATOM     10  C   UNL     1       6.734   4.557  16.171  0.00  0.00    +0.000 A 
ATOM     11  C   UNL     1       6.899   4.819  17.525  0.00  0.00    +0.000 A 
ATOM     12  C   UNL     1       5.825   4.635  18.403  0.00  0.00    +0.000 A 
BRANCH  10  13
ATOM     13  O   UNL     1       7.813   4.725  15.356  0.00  0.00    +0.000 OA
ATOM     14  H   UNL     1       7.980   5.677  15.256  0.00  0.00    +0.000 HD
ENDBRANCH  10  13
BRANCH  12  15
ATOM     15  O   UNL     1       6.039   4.846  19.738  0.00  0.00    +0.000 OA
ATOM     16  H   UNL     1       6.158   3.990  20.179  0.00  0.00    +0.000 HD
ENDBRANCH  12  15
ENDBRANCH   5   7
BRANCH   1  17
ATOM     17  O   UNL     1       3.142   6.125  20.022  0.00  0.00    +0.000 OA
BRANCH  17  21
ATOM     18  C   UNL     1       0.967   9.486  18.830  0.00  0.00    +0.000 A 
ATOM     19  C   UNL     1       0.953   9.040  20.158  0.00  0.00    +0.000 A 
ATOM     20  C   UNL     1       1.679   7.903  20.532  0.00  0.00    +0.000 A 
ATOM     21  C   UNL     1       2.416   7.202  19.578  0.00  0.00    +0.000 A 
ATOM     22  C   UNL     1       2.459   7.656  18.261  0.00  0.00    +0.000 A 
ATOM     23  C   UNL     1       1.723   8.780  17.885  0.00  0.00    +0.000 A 
BRANCH  18  24
ATOM     24  C   UNL     1       0.199  10.715  18.411  0.00  0.00    +0.000 C 
BRANCH  24  26
ATOM     25  C   UNL     1      -1.882   9.943  17.147  0.00  0.00    +0.000 C 
ATOM     26  C   UNL     1      -1.324  10.543  18.431  0.00  0.00    +0.000 C 
ENDBRANCH  24  26
ENDBRANCH  18  24
ENDBRANCH  17  21
ENDBRANCH   1  17
TORSDOF 7
ENDMDL
MODEL 8
REMARK VINA RESULT:      -7.6      1.130      1.255
REMARK  Name = 
REMARK  8 active torsions:
REMARK  status: ('A' for Active; 'I' for Inactive)
REMARK    1  A    between atoms: C_1  and  C_2
REMARK    2  A    between atoms: C_2  and  C_3
REMARK    3  A    between atoms: C_3  and  C_4
REMARK    4  A    between atoms: C_7  and  O_8
REMARK    5  A    between atoms: O_8  and  C_9
REMARK    6  A    between atoms: C_13  and  C_14
REMARK    7  A    between atoms: C_17  and  O_18
REMARK    8  A    between atoms: C_20  and  O_21
REMARK                            x       y       z     vdW  Elec       q    Type
REMARK                         _______ _______ _______ _____ _____    ______ ____
ROOT
ATOM      1  C   UNL     1       6.580   5.901  18.103  0.00  0.00    +0.000 A 
ATOM      2  C   UNL     1       7.905   6.057  18.434  0.00  0.00    +0.000 A 
ATOM      3  N   UNL     1       8.015   5.595  19.708  0.00  0.00    +0.000 N 
ATOM      4  N   UNL     1       6.869   5.120  20.216  0.00  0.00    +0.000 NA
ATOM      5  C   UNL     1       5.974   5.241  19.212  0.00  0.00    +0.000 A 
ATOM      6  H   UNL     1       8.842   5.575  20.295  0.00  0.00    +0.000 HD
ENDROOT
BRANCH   5   7
ATOM      7  C   UNL     1       4.594   4.768  19.385  0.00  0.00    +0.000 A 
ATOM      8  C   UNL     1       3.552   5.716  19.428  0.00  0.00    +0.000 A 
ATOM      9  C   UNL     1       2.222   5.325  19.617  0.00  0.00    +0.000 A 
ATOM     10  C   UNL     1       1.926   3.976  19.765  0.00  0.00    +0.000 A 
ATOM     11  C   UNL     1       2.930   3.018  19.726  0.00  0.00    +0.000 A 
ATOM     12  C   UNL     1       4.260   3.414  19.543  0.00  0.00    +0.000 A 
BRANCH  10  13
ATOM     13  O   UNL     1       0.648   3.548  19.971  0.00  0.00    +0.000 OA
ATOM     14  H   UNL     1       0.679   2.684  20.415  0.00  0.00    +0.000 HD
ENDBRANCH  10  13
BRANCH  12  15
ATOM     15  O   UNL     1       5.230   2.450  19.569  0.00  0.00    +0.000 OA
ATOM     16  H   UNL     1       5.327   2.121  20.477  0.00  0.00    +0.000 HD
ENDBRANCH  12  15
ENDBRANCH   5   7
BRANCH   1  17
ATOM     17  O   UNL     1       5.986   6.252  16.939  0.00  0.00    +0.000 OA
BRANCH  17  21
ATOM     18  C   UNL     1       5.959   3.891  13.494  0.00  0.00    +0.000 A 
ATOM     19  C   UNL     1       4.894   3.868  14.404  0.00  0.00    +0.000 A 
ATOM     20  C   UNL     1       4.930   4.658  15.558  0.00  0.00    +0.000 A 
ATOM     21  C   UNL     1       6.036   5.468  15.813  0.00  0.00    +0.000 A 
ATOM     22  C   UNL     1       7.087   5.519  14.899  0.00  0.00    +0.000 A 
ATOM     23  C   UNL     1       7.057   4.720  13.755  0.00  0.00    +0.000 A 
BRANCH  18  24
ATOM     24  C   UNL     1       5.932   3.054  12.239  0.00  0.00    +0.000 C 
BRANCH  24  26
ATOM     25  C   UNL     1       3.647   3.012  11.099  0.00  0.00    +0.000 C 
ATOM     26  C   UNL     1       5.044   3.619  11.125  0.00  0.00    +0.000 C 
ENDBRANCH  24  26
ENDBRANCH  18  24
ENDBRANCH  17  21
ENDBRANCH   1  17
TORSDOF 7
ENDMDL
MODEL 9
REMARK VINA RESULT:      -7.6      3.548      7.111
REMARK  Name = 
REMARK  8 active torsions:
REMARK  status: ('A' for Active; 'I' for Inactive)
REMARK    1  A    between atoms: C_1  and  C_2
REMARK    2  A    between atoms: C_2  and  C_3
REMARK    3  A    between atoms: C_3  and  C_4
REMARK    4  A    between atoms: C_7  and  O_8
REMARK    5  A    between atoms: O_8  and  C_9
REMARK    6  A    between atoms: C_13  and  C_14
REMARK    7  A    between atoms: C_17  and  O_18
REMARK    8  A    between atoms: C_20  and  O_21
REMARK                            x       y       z     vdW  Elec       q    Type
REMARK                         _______ _______ _______ _____ _____    ______ ____
ROOT
ATOM      1  C   UNL     1       3.010   3.855  19.299  0.00  0.00    +0.000 A 
ATOM      2  C   UNL     1       2.111   2.895  19.698  0.00  0.00    +0.000 A 
ATOM      3  N   UNL     1       2.176   1.924  18.749  0.00  0.00    +0.000 N 
ATOM      4  N   UNL     1       3.073   2.166  17.782  0.00  0.00    +0.000 NA
ATOM      5  C   UNL     1       3.651   3.333  18.136  0.00  0.00    +0.000 A 
ATOM      6  H   UNL     1       1.635   1.068  18.695  0.00  0.00    +0.000 HD
ENDROOT
BRANCH   5   7
ATOM      7  C   UNL     1       4.738   3.900  17.327  0.00  0.00    +0.000 A 
ATOM      8  C   UNL     1       4.573   3.979  15.929  0.00  0.00    +0.000 A 
ATOM      9  C   UNL     1       5.585   4.484  15.106  0.00  0.00    +0.000 A 
ATOM     10  C   UNL     1       6.774   4.917  15.680  0.00  0.00    +0.000 A 
ATOM     11  C   UNL     1       6.965   4.854  17.054  0.00  0.00    +0.000 A 
ATOM     12  C   UNL     1       5.953   4.341  17.873  0.00  0.00    +0.000 A 
BRANCH  10  13
ATOM     13  O   UNL     1       7.796   5.399  14.918  0.00  0.00    +0.000 OA
ATOM     14  H   UNL     1       7.727   6.368  14.886  0.00  0.00    +0.000 HD
ENDBRANCH  10  13
BRANCH  12  15
ATOM     15  O   UNL     1       6.198   4.238  19.215  0.00  0.00    +0.000 OA
ATOM     16  H   UNL     1       6.873   3.557  19.363  0.00  0.00    +0.000 HD
ENDBRANCH  12  15
ENDBRANCH   5   7
BRANCH   1  17
ATOM     17  O   UNL     1       3.273   5.031  19.915  0.00  0.00    +0.000 OA
BRANCH  17  21
ATOM     18  C   UNL     1       1.725   8.737  18.772  0.00  0.00    +0.000 A 
ATOM     19  C   UNL     1       1.481   8.206  20.044  0.00  0.00    +0.000 A 
ATOM     20  C   UNL     1       2.000   6.955  20.401  0.00  0.00    +0.000 A 
ATOM     21  C   UNL     1       2.756   6.227  19.484  0.00  0.00    +0.000 A 
ATOM     22  C   UNL     1       3.027   6.762  18.225  0.00  0.00    +0.000 A 
ATOM     23  C   UNL     1       2.498   8.002  17.864  0.00  0.00    +0.000 A 
BRANCH  18  24
ATOM     24  C   UNL     1       1.183  10.088  18.373  0.00  0.00    +0.000 C 
BRANCH  24  26
ATOM     25  C   UNL     1      -0.452  11.956  18.973  0.00  0.00    +0.000 C 
ATOM     26  C   UNL     1       0.414  10.811  19.483  0.00  0.00    +0.000 C 
ENDBRANCH  24  26
ENDBRANCH  18  24
ENDBRANCH  17  21
ENDBRANCH   1  17
TORSDOF 7
ENDMDL
