MODEL 1
REMARK VINA RESULT:      -7.7      0.000      0.000
REMARK  Name = 
REMARK  2 active torsions:
REMARK  status: ('A' for Active; 'I' for Inactive)
REMARK    1  A    between atoms: N_15  and  N_16
REMARK    2  A    between atoms: C_17  and  C_19
REMARK                            x       y       z     vdW  Elec       q    Type
REMARK                         _______ _______ _______ _____ _____    ______ ____
ROOT
ATOM      1  O   UNL     1       2.447   9.838  17.381  0.00  0.00    +0.000 OA
ATOM      2  C   UNL     1       2.229   8.915  18.167  0.00  0.00    +0.000 C 
ATOM      3  C   UNL     1       2.948   7.629  18.037  0.00  0.00    +0.000 A 
ATOM      4  C   UNL     1       3.874   7.373  17.002  0.00  0.00    +0.000 A 
ATOM      5  C   UNL     1       4.556   6.135  16.899  0.00  0.00    +0.000 A 
ATOM      6  C   UNL     1       4.249   5.182  17.867  0.00  0.00    +0.000 A 
ATOM      7  C   UNL     1       3.341   5.451  18.862  0.00  0.00    +0.000 A 
ATOM      8  C   UNL     1       3.185   4.401  19.738  0.00  0.00    +0.000 A 
ATOM      9  C   UNL     1       2.328   4.496  20.829  0.00  0.00    +0.000 A 
ATOM     10  C   UNL     1       1.674   5.734  21.003  0.00  0.00    +0.000 A 
ATOM     11  C   UNL     1       1.866   6.805  20.103  0.00  0.00    +0.000 A 
ATOM     12  C   UNL     1       2.693   6.652  18.997  0.00  0.00    +0.000 A 
ATOM     13  C   UNL     1       1.298   8.145  20.353  0.00  0.00    +0.000 C 
ATOM     14  O   UNL     1       0.920   8.422  21.490  0.00  0.00    +0.000 OA
ATOM     15  N   UNL     1       1.354   9.038  19.266  0.00  0.00    +0.000 N 
ATOM     16  C   UNL     1       4.060   3.267  19.325  0.00  0.00    +0.000 C 
ATOM     17  C   UNL     1       4.797   3.803  18.046  0.00  0.00    +0.000 C 
ENDROOT
BRANCH  15  18
ATOM     18  N   UNL     1       0.857  10.362  19.470  0.00  0.00    +0.000 N 
ATOM     19  C   UNL     1      -0.363  10.764  18.919  0.00  0.00    +0.000 C 
ATOM     20  O   UNL     1      -1.130  10.010  18.319  0.00  0.00    +0.000 OA
ATOM     21  H   UNL     1       1.588  11.064  19.594  0.00  0.00    +0.000 HD
BRANCH  19  22
ATOM     22  C   UNL     1      -0.653  12.257  19.149  0.00  0.00    +0.000 C 
ATOM     23  F   UNL     1       0.429  12.904  19.680  0.00  0.00    +0.000 F 
ATOM     24  F   UNL     1      -0.959  12.918  17.999  0.00  0.00    +0.000 F 
ATOM     25  F   UNL     1      -1.682  12.476  20.013  0.00  0.00    +0.000 F 
ENDBRANCH  19  22
ENDBRANCH  15  18
TORSDOF 2
ENDMDL
MODEL 2
REMARK VINA RESULT:      -7.6      4.545      7.162
REMARK  Name = 
REMARK  2 active torsions:
REMARK  status: ('A' for Active; 'I' for Inactive)
REMARK    1  A    between atoms: N_15  and  N_16
REMARK    2  A    between atoms: C_17  and  C_19
REMARK                            x       y       z     vdW  Elec       q    Type
REMARK                         _______ _______ _______ _____ _____    ______ ____
ROOT
ATOM      1  O   UNL     1       1.725   5.433  21.052  0.00  0.00    +0.000 OA
ATOM      2  C   UNL     1       1.769   6.399  20.290  0.00  0.00    +0.000 C 
ATOM      3  C   UNL     1       1.260   7.720  20.718  0.00  0.00    +0.000 A 
ATOM      4  C   UNL     1       0.667   7.937  21.981  0.00  0.00    +0.000 A 
ATOM      5  C   UNL     1       0.190   9.213  22.373  0.00  0.00    +0.000 A 
ATOM      6  C   UNL     1       0.326  10.235  21.436  0.00  0.00    +0.000 A 
ATOM      7  C   UNL     1       0.902  10.000  20.212  0.00  0.00    +0.000 A 
ATOM      8  C   UNL     1       0.972  11.130  19.430  0.00  0.00    +0.000 A 
ATOM      9  C   UNL     1       1.549  11.096  18.166  0.00  0.00    +0.000 A 
ATOM     10  C   UNL     1       2.091   9.858  17.760  0.00  0.00    +0.000 A 
ATOM     11  C   UNL     1       2.026   8.717  18.588  0.00  0.00    +0.000 A 
ATOM     12  C   UNL     1       1.396   8.781  19.824  0.00  0.00    +0.000 A 
ATOM     13  C   UNL     1       2.711   7.457  18.233  0.00  0.00    +0.000 C 
ATOM     14  O   UNL     1       3.594   7.487  17.377  0.00  0.00    +0.000 OA
ATOM     15  N   UNL     1       2.360   6.338  19.011  0.00  0.00    +0.000 N 
ATOM     16  C   UNL     1       0.381  12.286  20.165  0.00  0.00    +0.000 C 
ATOM     17  C   UNL     1      -0.056  11.675  21.544  0.00  0.00    +0.000 C 
ENDROOT
BRANCH  15  18
ATOM     18  N   UNL     1       3.028   5.104  18.736  0.00  0.00    +0.000 N 
ATOM     19  C   UNL     1       2.408   4.106  17.980  0.00  0.00    +0.000 C 
ATOM     20  O   UNL     1       1.317   4.239  17.424  0.00  0.00    +0.000 OA
ATOM     21  H   UNL     1       3.692   4.823  19.459  0.00  0.00    +0.000 HD
BRANCH  19  22
ATOM     22  C   UNL     1       3.241   2.815  17.908  0.00  0.00    +0.000 C 
ATOM     23  F   UNL     1       2.521   1.780  17.377  0.00  0.00    +0.000 F 
ATOM     24  F   UNL     1       4.348   2.942  17.127  0.00  0.00    +0.000 F 
ATOM     25  F   UNL     1       3.670   2.386  19.127  0.00  0.00    +0.000 F 
ENDBRANCH  19  22
ENDBRANCH  15  18
TORSDOF 2
ENDMDL
MODEL 3
REMARK VINA RESULT:      -7.4      1.481      1.853
REMARK  Name = 
REMARK  2 active torsions:
REMARK  status: ('A' for Active; 'I' for Inactive)
REMARK    1  A    between atoms: N_15  and  N_16
REMARK    2  A    between atoms: C_17  and  C_19
REMARK                            x       y       z     vdW  Elec       q    Type
REMARK                         _______ _______ _______ _____ _____    ______ ____
ROOT
ATOM      1  O   UNL     1       3.643   8.253  17.146  0.00  0.00    +0.000 OA
ATOM      2  C   UNL     1       3.057   7.484  17.908  0.00  0.00    +0.000 C 
ATOM      3  C   UNL     1       3.296   6.026  17.838  0.00  0.00    +0.000 A 
ATOM      4  C   UNL     1       4.158   5.438  16.886  0.00  0.00    +0.000 A 
ATOM      5  C   UNL     1       4.376   4.039  16.840  0.00  0.00    +0.000 A 
ATOM      6  C   UNL     1       3.681   3.276  17.775  0.00  0.00    +0.000 A 
ATOM      7  C   UNL     1       2.844   3.868  18.688  0.00  0.00    +0.000 A 
ATOM      8  C   UNL     1       2.264   2.961  19.545  0.00  0.00    +0.000 A 
ATOM      9  C   UNL     1       1.407   3.376  20.559  0.00  0.00    +0.000 A 
ATOM     10  C   UNL     1       1.208   4.768  20.678  0.00  0.00    +0.000 A 
ATOM     11  C   UNL     1       1.831   5.681  19.801  0.00  0.00    +0.000 A 
ATOM     12  C   UNL     1       2.641   5.222  18.770  0.00  0.00    +0.000 A 
ATOM     13  C   UNL     1       1.742   7.142  20.004  0.00  0.00    +0.000 C 
ATOM     14  O   UNL     1       1.391   7.563  21.104  0.00  0.00    +0.000 OA
ATOM     15  N   UNL     1       2.191   7.930  18.928  0.00  0.00    +0.000 N 
ATOM     16  C   UNL     1       2.725   1.584  19.207  0.00  0.00    +0.000 C 
ATOM     17  C   UNL     1       3.703   1.799  17.997  0.00  0.00    +0.000 C 
ENDROOT
BRANCH  15  18
ATOM     18  N   UNL     1       2.167   9.349  19.092  0.00  0.00    +0.000 N 
ATOM     19  C   UNL     1       1.155  10.121  18.515  0.00  0.00    +0.000 C 
ATOM     20  O   UNL     1       0.181   9.652  17.924  0.00  0.00    +0.000 OA
ATOM     21  H   UNL     1       3.091   9.769  19.206  0.00  0.00    +0.000 HD
BRANCH  19  22
ATOM     22  C   UNL     1       1.382  11.631  18.702  0.00  0.00    +0.000 C 
ATOM     23  F   UNL     1       2.434  12.079  17.951  0.00  0.00    +0.000 F 
ATOM     24  F   UNL     1       0.308  12.378  18.326  0.00  0.00    +0.000 F 
ATOM     25  F   UNL     1       1.667  11.974  19.988  0.00  0.00    +0.000 F 
ENDBRANCH  19  22
ENDBRANCH  15  18
TORSDOF 2
ENDMDL
MODEL 4
REMARK VINA RESULT:      -7.4      6.010      7.794
REMARK  Name = 
REMARK  2 active torsions:
REMARK  status: ('A' for Active; 'I' for Inactive)
REMARK    1  A    between atoms: N_15  and  N_16
REMARK    2  A    between atoms: C_17  and  C_19
REMARK                            x       y       z     vdW  Elec       q    Type
REMARK                         _______ _______ _______ _____ _____    ______ ____
ROOT
ATOM      1  O   UNL     1       5.693   2.711  15.839  0.00  0.00    +0.000 OA
ATOM      2  C   UNL     1       5.157   3.756  16.207  0.00  0.00    +0.000 C 
ATOM      3  C   UNL     1       4.315   3.784  17.423  0.00  0.00    +0.000 A 
ATOM      4  C   UNL     1       4.047   2.630  18.193  0.00  0.00    +0.000 A 
ATOM      5  C   UNL     1       3.242   2.680  19.357  0.00  0.00    +0.000 A 
ATOM      6  C   UNL     1       2.718   3.927  19.690  0.00  0.00    +0.000 A 
ATOM      7  C   UNL     1       2.988   5.034  18.925  0.00  0.00    +0.000 A 
ATOM      8  C   UNL     1       2.405   6.178  19.420  0.00  0.00    +0.000 A 
ATOM      9  C   UNL     1       2.589   7.407  18.796  0.00  0.00    +0.000 A 
ATOM     10  C   UNL     1       3.434   7.413  17.665  0.00  0.00    +0.000 A 
ATOM     11  C   UNL     1       4.037   6.230  17.188  0.00  0.00    +0.000 A 
ATOM     12  C   UNL     1       3.788   5.014  17.811  0.00  0.00    +0.000 A 
ATOM     13  C   UNL     1       5.031   6.248  16.094  0.00  0.00    +0.000 C 
ATOM     14  O   UNL     1       5.569   7.315  15.805  0.00  0.00    +0.000 OA
ATOM     15  N   UNL     1       5.359   4.990  15.555  0.00  0.00    +0.000 N 
ATOM     16  C   UNL     1       1.637   5.856  20.657  0.00  0.00    +0.000 C 
ATOM     17  C   UNL     1       1.857   4.313  20.848  0.00  0.00    +0.000 C 
ENDROOT
BRANCH  15  18
ATOM     18  N   UNL     1       6.348   4.950  14.524  0.00  0.00    +0.000 N 
ATOM     19  C   UNL     1       6.055   4.412  13.269  0.00  0.00    +0.000 C 
ATOM     20  O   UNL     1       4.934   4.034  12.925  0.00  0.00    +0.000 OA
ATOM     21  H   UNL     1       7.305   4.875  14.872  0.00  0.00    +0.000 HD
BRANCH  19  22
ATOM     22  C   UNL     1       7.287   4.346  12.350  0.00  0.00    +0.000 C 
ATOM     23  F   UNL     1       7.083   5.033  11.185  0.00  0.00    +0.000 F 
ATOM     24  F   UNL     1       8.398   4.889  12.917  0.00  0.00    +0.000 F 
ATOM     25  F   UNL     1       7.614   3.076  11.983  0.00  0.00    +0.000 F 
ENDBRANCH  19  22
ENDBRANCH  15  18
TORSDOF 2
ENDMDL
MODEL 5
REMARK VINA RESULT:      -7.3      0.359      2.729
REMARK  Name = 
REMARK  2 active torsions:
REMARK  status: ('A' for Active; 'I' for Inactive)
REMARK    1  A    between atoms: N_15  and  N_16
REMARK    2  A    between atoms: C_17  and  C_19
REMARK                            x       y       z     vdW  Elec       q    Type
REMARK                         _______ _______ _______ _____ _____    ______ ____
ROOT
ATOM      1  O   UNL     1       0.562   8.175  21.297  0.00  0.00    +0.000 OA
ATOM      2  C   UNL     1       1.349   8.011  20.365  0.00  0.00    +0.000 C 
ATOM      3  C   UNL     1       1.930   6.677  20.095  0.00  0.00    +0.000 A 
ATOM      4  C   UNL     1       1.656   5.548  20.899  0.00  0.00    +0.000 A 
ATOM      5  C   UNL     1       2.220   4.279  20.619  0.00  0.00    +0.000 A 
ATOM      6  C   UNL     1       3.070   4.212  19.518  0.00  0.00    +0.000 A 
ATOM      7  C   UNL     1       3.326   5.323  18.754  0.00  0.00    +0.000 A 
ATOM      8  C   UNL     1       4.168   5.061  17.697  0.00  0.00    +0.000 A 
ATOM      9  C   UNL     1       4.520   6.057  16.794  0.00  0.00    +0.000 A 
ATOM     10  C   UNL     1       3.934   7.324  17.001  0.00  0.00    +0.000 A 
ATOM     11  C   UNL     1       3.056   7.564  18.080  0.00  0.00    +0.000 A 
ATOM     12  C   UNL     1       2.768   6.554  18.989  0.00  0.00    +0.000 A 
ATOM     13  C   UNL     1       2.329   8.843  18.224  0.00  0.00    +0.000 C 
ATOM     14  O   UNL     1       2.242   9.584  17.246  0.00  0.00    +0.000 OA
ATOM     15  N   UNL     1       1.691   9.039  19.463  0.00  0.00    +0.000 N 
ATOM     16  C   UNL     1       4.559   3.622  17.712  0.00  0.00    +0.000 C 
ATOM     17  C   UNL     1       3.800   3.036  18.956  0.00  0.00    +0.000 C 
ENDROOT
BRANCH  15  18
ATOM     18  N   UNL     1       0.938  10.241  19.636  0.00  0.00    +0.000 N 
ATOM     19  C   UNL     1      -0.249  10.452  18.931  0.00  0.00    +0.000 C 
ATOM     20  O   UNL     1      -0.779   9.610  18.205  0.00  0.00    +0.000 OA
ATOM     21  H   UNL     1       1.506  11.053  19.884  0.00  0.00    +0.000 HD
BRANCH  19  22
ATOM     22  C   UNL     1      -0.835  11.855  19.163  0.00  0.00    +0.000 C 
ATOM     23  F   UNL     1      -0.003  12.628  19.926  0.00  0.00    +0.000 F 
ATOM     24  F   UNL     1      -1.031  12.544  18.006  0.00  0.00    +0.000 F 
ATOM     25  F   UNL     1      -2.030  11.835  19.815  0.00  0.00    +0.000 F 
ENDBRANCH  19  22
ENDBRANCH  15  18
TORSDOF 2
ENDMDL
MODEL 6
REMARK VINA RESULT:      -7.2      1.132      3.032
REMARK  Name = 
REMARK  2 active torsions:
REMARK  status: ('A' for Active; 'I' for Inactive)
REMARK    1  A    between atoms: N_15  and  N_16
REMARK    2  A    between atoms: C_17  and  C_19
REMARK                            x       y       z     vdW  Elec       q    Type
REMARK                         _______ _______ _______ _____ _____    ______ ____
ROOT
ATOM      1  O   UNL     1       0.290   7.803  21.459  0.00  0.00    +0.000 OA
ATOM      2  C   UNL     1       1.103   7.791  20.535  0.00  0.00    +0.000 C 
ATOM      3  C   UNL     1       1.872   6.566  20.224  0.00  0.00    +0.000 A 
ATOM      4  C   UNL     1       1.753   5.377  20.979  0.00  0.00    +0.000 A 
ATOM      5  C   UNL     1       2.496   4.214  20.660  0.00  0.00    +0.000 A 
ATOM      6  C   UNL     1       3.359   4.313  19.571  0.00  0.00    +0.000 A 
ATOM      7  C   UNL     1       3.462   5.480  18.856  0.00  0.00    +0.000 A 
ATOM      8  C   UNL     1       4.345   5.383  17.804  0.00  0.00    +0.000 A 
ATOM      9  C   UNL     1       4.561   6.455  16.946  0.00  0.00    +0.000 A 
ATOM     10  C   UNL     1       3.797   7.616  17.191  0.00  0.00    +0.000 A 
ATOM     11  C   UNL     1       2.881   7.685  18.264  0.00  0.00    +0.000 A 
ATOM     12  C   UNL     1       2.731   6.608  19.128  0.00  0.00    +0.000 A 
ATOM     13  C   UNL     1       1.978   8.840  18.444  0.00  0.00    +0.000 C 
ATOM     14  O   UNL     1       1.797   9.600  17.495  0.00  0.00    +0.000 OA
ATOM     15  N   UNL     1       1.305   8.893  19.679  0.00  0.00    +0.000 N 
ATOM     16  C   UNL     1       4.937   4.015  17.769  0.00  0.00    +0.000 C 
ATOM     17  C   UNL     1       4.256   3.278  18.977  0.00  0.00    +0.000 C 
ENDROOT
BRANCH  15  18
ATOM     18  N   UNL     1       0.386   9.967  19.886  0.00  0.00    +0.000 N 
ATOM     19  C   UNL     1       0.602  10.914  20.891  0.00  0.00    +0.000 C 
ATOM     20  O   UNL     1       1.616  10.959  21.590  0.00  0.00    +0.000 OA
ATOM     21  H   UNL     1      -0.577   9.743  19.631  0.00  0.00    +0.000 HD
BRANCH  19  22
ATOM     22  C   UNL     1      -0.564  11.908  21.030  0.00  0.00    +0.000 C 
ATOM     23  F   UNL     1      -0.227  13.148  20.562  0.00  0.00    +0.000 F 
ATOM     24  F   UNL     1      -1.667  11.528  20.329  0.00  0.00    +0.000 F 
ATOM     25  F   UNL     1      -0.962  12.089  22.319  0.00  0.00    +0.000 F 
ENDBRANCH  19  22
ENDBRANCH  15  18
TORSDOF 2
ENDMDL
MODEL 7
REMARK VINA RESULT:      -7.2      4.563      6.618
REMARK  Name = 
REMARK  2 active torsions:
REMARK  status: ('A' for Active; 'I' for Inactive)
REMARK    1  A    between atoms: N_15  and  N_16
REMARK    2  A    between atoms: C_17  and  C_19
REMARK                            x       y       z     vdW  Elec       q    Type
REMARK                         _______ _______ _______ _____ _____    ______ ____
ROOT
ATOM      1  O   UNL     1       3.585   7.176  17.348  0.00  0.00    +0.000 OA
ATOM      2  C   UNL     1       2.927   7.316  18.379  0.00  0.00    +0.000 C 
ATOM      3  C   UNL     1       2.192   8.574  18.639  0.00  0.00    +0.000 A 
ATOM      4  C   UNL     1       2.235   9.679  17.760  0.00  0.00    +0.000 A 
ATOM      5  C   UNL     1       1.519  10.872  18.025  0.00  0.00    +0.000 A 
ATOM      6  C   UNL     1       0.784  10.898  19.208  0.00  0.00    +0.000 A 
ATOM      7  C   UNL     1       0.761   9.814  20.050  0.00  0.00    +0.000 A 
ATOM      8  C   UNL     1      -0.036  10.015  21.155  0.00  0.00    +0.000 A 
ATOM      9  C   UNL     1      -0.208   9.017  22.108  0.00  0.00    +0.000 A 
ATOM     10  C   UNL     1       0.440   7.790  21.852  0.00  0.00    +0.000 A 
ATOM     11  C   UNL     1       1.235   7.601  20.701  0.00  0.00    +0.000 A 
ATOM     12  C   UNL     1       1.422   8.639  19.798  0.00  0.00    +0.000 A 
ATOM     13  C   UNL     1       1.802   6.281  20.354  0.00  0.00    +0.000 C 
ATOM     14  O   UNL     1       1.331   5.279  20.889  0.00  0.00    +0.000 OA
ATOM     15  N   UNL     1       2.769   6.289  19.332  0.00  0.00    +0.000 N 
ATOM     16  C   UNL     1      -0.635  11.379  21.101  0.00  0.00    +0.000 C 
ATOM     17  C   UNL     1      -0.079  11.984  19.762  0.00  0.00    +0.000 C 
ENDROOT
BRANCH  15  18
ATOM     18  N   UNL     1       3.316   5.031  18.929  0.00  0.00    +0.000 N 
ATOM     19  C   UNL     1       2.591   4.164  18.107  0.00  0.00    +0.000 C 
ATOM     20  O   UNL     1       1.504   4.442  17.599  0.00  0.00    +0.000 OA
ATOM     21  H   UNL     1       3.969   4.629  19.603  0.00  0.00    +0.000 HD
BRANCH  19  22
ATOM     22  C   UNL     1       3.302   2.816  17.897  0.00  0.00    +0.000 C 
ATOM     23  F   UNL     1       3.760   2.298  19.077  0.00  0.00    +0.000 F 
ATOM     24  F   UNL     1       2.487   1.867  17.361  0.00  0.00    +0.000 F 
ATOM     25  F   UNL     1       4.388   2.905  17.081  0.00  0.00    +0.000 F 
ENDBRANCH  19  22
ENDBRANCH  15  18
TORSDOF 2
ENDMDL
MODEL 8
REMARK VINA RESULT:      -7.1      3.854      7.105
REMARK  Name = 
REMARK  2 active torsions:
REMARK  status: ('A' for Active; 'I' for Inactive)
REMARK    1  A    between atoms: N_15  and  N_16
REMARK    2  A    between atoms: C_17  and  C_19
REMARK                            x       y       z     vdW  Elec       q    Type
REMARK                         _______ _______ _______ _____ _____    ______ ____
ROOT
ATOM      1  O   UNL     1       2.225   6.907  21.059  0.00  0.00    +0.000 OA
ATOM      2  C   UNL     1       1.683   7.826  20.444  0.00  0.00    +0.000 C 
ATOM      3  C   UNL     1       0.826   8.802  21.151  0.00  0.00    +0.000 A 
ATOM      4  C   UNL     1       0.549   8.715  22.533  0.00  0.00    +0.000 A 
ATOM      5  C   UNL     1      -0.272   9.664  23.191  0.00  0.00    +0.000 A 
ATOM      6  C   UNL     1      -0.801  10.677  22.395  0.00  0.00    +0.000 A 
ATOM      7  C   UNL     1      -0.522  10.739  21.053  0.00  0.00    +0.000 A 
ATOM      8  C   UNL     1      -1.112  11.819  20.435  0.00  0.00    +0.000 A 
ATOM      9  C   UNL     1      -0.921  12.066  19.081  0.00  0.00    +0.000 A 
ATOM     10  C   UNL     1      -0.062  11.178  18.399  0.00  0.00    +0.000 A 
ATOM     11  C   UNL     1       0.549  10.089  19.058  0.00  0.00    +0.000 A 
ATOM     12  C   UNL     1       0.293   9.849  20.401  0.00  0.00    +0.000 A 
ATOM     13  C   UNL     1       1.557   9.240  18.389  0.00  0.00    +0.000 C 
ATOM     14  O   UNL     1       2.098   9.660  17.368  0.00  0.00    +0.000 OA
ATOM     15  N   UNL     1       1.893   8.054  19.069  0.00  0.00    +0.000 N 
ATOM     16  C   UNL     1      -1.896  12.602  21.434  0.00  0.00    +0.000 C 
ATOM     17  C   UNL     1      -1.677  11.824  22.780  0.00  0.00    +0.000 C 
ENDROOT
BRANCH  15  18
ATOM     18  N   UNL     1       2.895   7.219  18.485  0.00  0.00    +0.000 N 
ATOM     19  C   UNL     1       2.575   5.952  17.991  0.00  0.00    +0.000 C 
ATOM     20  O   UNL     1       1.429   5.506  17.926  0.00  0.00    +0.000 OA
ATOM     21  H   UNL     1       3.832   7.369  18.865  0.00  0.00    +0.000 HD
BRANCH  19  22
ATOM     22  C   UNL     1       3.815   5.168  17.524  0.00  0.00    +0.000 C 
ATOM     23  F   UNL     1       4.675   4.923  18.559  0.00  0.00    +0.000 F 
ATOM     24  F   UNL     1       3.503   3.952  16.998  0.00  0.00    +0.000 F 
ATOM     25  F   UNL     1       4.542   5.828  16.581  0.00  0.00    +0.000 F 
ENDBRANCH  19  22
ENDBRANCH  15  18
TORSDOF 2
ENDMDL
MODEL 9
REMARK VINA RESULT:      -7.1      5.984      7.548
REMARK  Name = 
REMARK  2 active torsions:
REMARK  status: ('A' for Active; 'I' for Inactive)
REMARK    1  A    between atoms: N_15  and  N_16
REMARK    2  A    between atoms: C_17  and  C_19
REMARK                            x       y       z     vdW  Elec       q    Type
REMARK                         _______ _______ _______ _____ _____    ______ ____
ROOT
ATOM      1  O   UNL     1       5.325   7.238  15.283  0.00  0.00    +0.000 OA
ATOM      2  C   UNL     1       5.198   6.292  16.061  0.00  0.00    +0.000 C 
ATOM      3  C   UNL     1       4.253   6.372  17.196  0.00  0.00    +0.000 A 
ATOM      4  C   UNL     1       3.489   7.527  17.473  0.00  0.00    +0.000 A 
ATOM      5  C   UNL     1       2.585   7.580  18.563  0.00  0.00    +0.000 A 
ATOM      6  C   UNL     1       2.505   6.435  19.353  0.00  0.00    +0.000 A 
ATOM      7  C   UNL     1       3.261   5.326  19.067  0.00  0.00    +0.000 A 
ATOM      8  C   UNL     1       3.032   4.286  19.940  0.00  0.00    +0.000 A 
ATOM      9  C   UNL     1       3.685   3.067  19.794  0.00  0.00    +0.000 A 
ATOM     10  C   UNL     1       4.550   2.951  18.685  0.00  0.00    +0.000 A 
ATOM     11  C   UNL     1       4.753   4.024  17.791  0.00  0.00    +0.000 A 
ATOM     12  C   UNL     1       4.119   5.242  18.001  0.00  0.00    +0.000 A 
ATOM     13  C   UNL     1       5.545   3.868  16.553  0.00  0.00    +0.000 C 
ATOM     14  O   UNL     1       5.769   2.733  16.136  0.00  0.00    +0.000 OA
ATOM     15  N   UNL     1       5.874   5.066  15.891  0.00  0.00    +0.000 N 
ATOM     16  C   UNL     1       2.019   4.696  20.954  0.00  0.00    +0.000 C 
ATOM     17  C   UNL     1       1.651   6.167  20.548  0.00  0.00    +0.000 C 
ENDROOT
BRANCH  15  18
ATOM     18  N   UNL     1       6.601   4.967  14.665  0.00  0.00    +0.000 N 
ATOM     19  C   UNL     1       6.026   4.379  13.535  0.00  0.00    +0.000 C 
ATOM     20  O   UNL     1       4.854   4.004  13.473  0.00  0.00    +0.000 OA
ATOM     21  H   UNL     1       7.612   4.893  14.788  0.00  0.00    +0.000 HD
BRANCH  19  22
ATOM     22  C   UNL     1       7.015   4.256  12.363  0.00  0.00    +0.000 C 
ATOM     23  F   UNL     1       8.160   4.968  12.594  0.00  0.00    +0.000 F 
ATOM     24  F   UNL     1       7.410   2.973  12.138  0.00  0.00    +0.000 F 
ATOM     25  F   UNL     1       6.514   4.724  11.187  0.00  0.00    +0.000 F 
ENDBRANCH  19  22
ENDBRANCH  15  18
TORSDOF 2
ENDMDL
