MODEL 1
REMARK VINA RESULT:      -8.4      0.000      0.000
REMARK  Name = 
REMARK  4 active torsions:
REMARK  status: ('A' for Active; 'I' for Inactive)
REMARK    1  A    between atoms: C_1  and  N_2
REMARK    2  A    between atoms: C_6  and  C_8
REMARK    3  A    between atoms: N_11  and  C_12
REMARK    4  A    between atoms: C_18  and  C_19
REMARK                            x       y       z     vdW  Elec       q    Type
REMARK                         _______ _______ _______ _____ _____    ______ ____
ROOT
ATOM      1  C   UNL     1       0.280  10.854  20.674  0.00  0.00    +0.000 A 
ATOM      2  N   UNL     1      -0.379  11.104  21.833  0.00  0.00    +0.000 NA
ATOM      3  C   UNL     1      -0.422  10.146  22.795  0.00  0.00    +0.000 A 
ATOM      4  C   UNL     1       0.168   8.889  22.718  0.00  0.00    +0.000 A 
ATOM      5  C   UNL     1       0.806   8.621  21.507  0.00  0.00    +0.000 A 
ATOM      6  N   UNL     1       1.501   7.523  21.040  0.00  0.00    +0.000 N 
ATOM      7  C   UNL     1       1.915   7.728  19.739  0.00  0.00    +0.000 A 
ATOM      8  C   UNL     1       1.450   8.969  19.375  0.00  0.00    +0.000 A 
ATOM      9  C   UNL     1       0.826   9.569  20.493  0.00  0.00    +0.000 A 
ATOM     10  H   UNL     1       1.663   6.681  21.570  0.00  0.00    +0.000 HD
ENDROOT
BRANCH   7  11
ATOM     11  C   UNL     1       2.665   6.799  18.906  0.00  0.00    +0.000 A 
ATOM     12  C   UNL     1       2.687   5.425  19.161  0.00  0.00    +0.000 A 
ATOM     13  C   UNL     1       3.442   4.575  18.347  0.00  0.00    +0.000 A 
ATOM     14  C   UNL     1       4.182   5.102  17.291  0.00  0.00    +0.000 A 
ATOM     15  F   UNL     1       4.895   4.281  16.511  0.00  0.00    +0.000 F 
ATOM     16  C   UNL     1       4.192   6.468  17.054  0.00  0.00    +0.000 A 
ATOM     17  F   UNL     1       4.926   6.985  16.059  0.00  0.00    +0.000 F 
ATOM     18  C   UNL     1       3.443   7.316  17.853  0.00  0.00    +0.000 A 
ENDBRANCH   7  11
BRANCH   1  22
ATOM     19  C   UNL     1       0.947  14.286  18.249  0.00  0.00    +0.000 C 
ATOM     20  C   UNL     1      -0.416  13.571  18.252  0.00  0.00    +0.000 C 
ATOM     21  C   UNL     1      -0.645  12.762  19.530  0.00  0.00    +0.000 C 
ATOM     22  N   UNL     1       0.448  11.811  19.661  0.00  0.00    +0.000 N 
ATOM     23  C   UNL     1       1.796  12.405  19.707  0.00  0.00    +0.000 C 
ATOM     24  C   UNL     1       2.035  13.212  18.429  0.00  0.00    +0.000 C 
BRANCH  19  30
ATOM     25  C   UNL     1       6.152  17.749  20.044  0.00  0.00    +0.000 C 
ATOM     26  N   UNL     1       4.773  17.617  19.581  0.00  0.00    +0.000 NA
ATOM     27  C   UNL     1       3.850  17.440  20.720  0.00  0.00    +0.000 C 
ATOM     28  C   UNL     1       2.390  17.267  20.262  0.00  0.00    +0.000 C 
ATOM     29  N   UNL     1       2.248  16.215  19.244  0.00  0.00    +0.000 N 
ATOM     30  C   UNL     1       1.151  15.384  19.311  0.00  0.00    +0.000 C 
ATOM     31  O   UNL     1       0.377  15.471  20.270  0.00  0.00    +0.000 OA
ATOM     32  C   UNL     1       3.209  16.302  18.148  0.00  0.00    +0.000 C 
ATOM     33  C   UNL     1       4.647  16.469  18.666  0.00  0.00    +0.000 C 
ENDBRANCH  19  30
ENDBRANCH   1  22
TORSDOF 3
ENDMDL
MODEL 2
REMARK VINA RESULT:      -8.3      0.557      1.188
REMARK  Name = 
REMARK  4 active torsions:
REMARK  status: ('A' for Active; 'I' for Inactive)
REMARK    1  A    between atoms: C_1  and  N_2
REMARK    2  A    between atoms: C_6  and  C_8
REMARK    3  A    between atoms: N_11  and  C_12
REMARK    4  A    between atoms: C_18  and  C_19
REMARK                            x       y       z     vdW  Elec       q    Type
REMARK                         _______ _______ _______ _____ _____    ______ ____
ROOT
ATOM      1  C   UNL     1       0.344  10.783  20.601  0.00  0.00    +0.000 A 
ATOM      2  N   UNL     1      -0.292  10.993  21.781  0.00  0.00    +0.000 NA
ATOM      3  C   UNL     1      -0.300  10.010  22.718  0.00  0.00    +0.000 A 
ATOM      4  C   UNL     1       0.305   8.764  22.594  0.00  0.00    +0.000 A 
ATOM      5  C   UNL     1       0.920   8.537  21.363  0.00  0.00    +0.000 A 
ATOM      6  N   UNL     1       1.620   7.462  20.852  0.00  0.00    +0.000 N 
ATOM      7  C   UNL     1       2.001   7.707  19.547  0.00  0.00    +0.000 A 
ATOM      8  C   UNL     1       1.511   8.949  19.227  0.00  0.00    +0.000 A 
ATOM      9  C   UNL     1       0.903   9.511  20.374  0.00  0.00    +0.000 A 
ATOM     10  H   UNL     1       1.805   6.609  21.356  0.00  0.00    +0.000 HD
ENDROOT
BRANCH   7  11
ATOM     11  C   UNL     1       2.746   6.811  18.675  0.00  0.00    +0.000 A 
ATOM     12  C   UNL     1       3.802   7.261  17.876  0.00  0.00    +0.000 A 
ATOM     13  C   UNL     1       4.472   6.367  17.036  0.00  0.00    +0.000 A 
ATOM     14  C   UNL     1       4.078   5.032  16.986  0.00  0.00    +0.000 A 
ATOM     15  F   UNL     1       4.731   4.181  16.185  0.00  0.00    +0.000 F 
ATOM     16  C   UNL     1       3.010   4.587  17.750  0.00  0.00    +0.000 A 
ATOM     17  F   UNL     1       2.606   3.311  17.684  0.00  0.00    +0.000 F 
ATOM     18  C   UNL     1       2.344   5.465  18.588  0.00  0.00    +0.000 A 
ENDBRANCH   7  11
BRANCH   1  22
ATOM     19  C   UNL     1       0.891  14.290  18.254  0.00  0.00    +0.000 C 
ATOM     20  C   UNL     1      -0.451  13.537  18.252  0.00  0.00    +0.000 C 
ATOM     21  C   UNL     1      -0.646  12.691  19.512  0.00  0.00    +0.000 C 
ATOM     22  N   UNL     1       0.475  11.768  19.610  0.00  0.00    +0.000 N 
ATOM     23  C   UNL     1       1.806  12.399  19.658  0.00  0.00    +0.000 C 
ATOM     24  C   UNL     1       2.010  13.243  18.398  0.00  0.00    +0.000 C 
BRANCH  19  30
ATOM     25  C   UNL     1       6.032  17.802  20.134  0.00  0.00    +0.000 C 
ATOM     26  N   UNL     1       4.656  17.657  19.666  0.00  0.00    +0.000 NA
ATOM     27  C   UNL     1       3.734  17.439  20.800  0.00  0.00    +0.000 C 
ATOM     28  C   UNL     1       2.278  17.250  20.335  0.00  0.00    +0.000 C 
ATOM     29  N   UNL     1       2.156  16.219  19.293  0.00  0.00    +0.000 N 
ATOM     30  C   UNL     1       1.074  15.367  19.341  0.00  0.00    +0.000 C 
ATOM     31  O   UNL     1       0.298  15.419  20.300  0.00  0.00    +0.000 OA
ATOM     32  C   UNL     1       3.117  16.347  18.202  0.00  0.00    +0.000 C 
ATOM     33  C   UNL     1       4.551  16.527  18.725  0.00  0.00    +0.000 C 
ENDBRANCH  19  30
ENDBRANCH   1  22
TORSDOF 3
ENDMDL
MODEL 3
REMARK VINA RESULT:      -8.3      1.021      1.512
REMARK  Name = 
REMARK  4 active torsions:
REMARK  status: ('A' for Active; 'I' for Inactive)
REMARK    1  A    between atoms: C_1  and  N_2
REMARK    2  A    between atoms: C_6  and  C_8
REMARK    3  A    between atoms: N_11  and  C_12
REMARK    4  A    between atoms: C_18  and  C_19
REMARK                            x       y       z     vdW  Elec       q    Type
REMARK                         _______ _______ _______ _____ _____    ______ ____
ROOT
ATOM      1  C   UNL     1       0.046  11.449  21.010  0.00  0.00    +0.000 A 
ATOM      2  N   UNL     1      -0.686  11.792  22.100  0.00  0.00    +0.000 NA
ATOM      3  C   UNL     1      -0.897  10.872  23.077  0.00  0.00    +0.000 A 
ATOM      4  C   UNL     1      -0.417   9.567  23.083  0.00  0.00    +0.000 A 
ATOM      5  C   UNL     1       0.297   9.206  21.941  0.00  0.00    +0.000 A 
ATOM      6  N   UNL     1       0.930   8.038  21.565  0.00  0.00    +0.000 N 
ATOM      7  C   UNL     1       1.471   8.164  20.301  0.00  0.00    +0.000 A 
ATOM      8  C   UNL     1       1.152   9.428  19.867  0.00  0.00    +0.000 A 
ATOM      9  C   UNL     1       0.489  10.116  20.910  0.00  0.00    +0.000 A 
ATOM     10  H   UNL     1       0.970   7.203  22.127  0.00  0.00    +0.000 HD
ENDROOT
BRANCH   7  11
ATOM     11  C   UNL     1       2.205   7.148  19.561  0.00  0.00    +0.000 A 
ATOM     12  C   UNL     1       2.806   7.416  18.327  0.00  0.00    +0.000 A 
ATOM     13  C   UNL     1       3.482   6.401  17.644  0.00  0.00    +0.000 A 
ATOM     14  C   UNL     1       3.543   5.120  18.187  0.00  0.00    +0.000 A 
ATOM     15  F   UNL     1       4.199   4.156  17.530  0.00  0.00    +0.000 F 
ATOM     16  C   UNL     1       2.921   4.839  19.394  0.00  0.00    +0.000 A 
ATOM     17  F   UNL     1       2.950   3.602  19.908  0.00  0.00    +0.000 F 
ATOM     18  C   UNL     1       2.254   5.841  20.079  0.00  0.00    +0.000 A 
ENDBRANCH   7  11
BRANCH   1  22
ATOM     19  C   UNL     1       1.285  14.708  18.572  0.00  0.00    +0.000 C 
ATOM     20  C   UNL     1      -0.166  14.197  18.533  0.00  0.00    +0.000 C 
ATOM     21  C   UNL     1      -0.554  13.450  19.812  0.00  0.00    +0.000 C 
ATOM     22  N   UNL     1       0.385  12.354  19.993  0.00  0.00    +0.000 N 
ATOM     23  C   UNL     1       1.802  12.749  20.081  0.00  0.00    +0.000 C 
ATOM     24  C   UNL     1       2.200  13.492  18.804  0.00  0.00    +0.000 C 
BRANCH  19  30
ATOM     25  C   UNL     1       6.762  17.876  20.080  0.00  0.00    +0.000 C 
ATOM     26  N   UNL     1       5.353  17.821  19.699  0.00  0.00    +0.000 NA
ATOM     27  C   UNL     1       4.490  17.681  20.890  0.00  0.00    +0.000 C 
ATOM     28  C   UNL     1       2.998  17.588  20.517  0.00  0.00    +0.000 C 
ATOM     29  N   UNL     1       2.742  16.556  19.502  0.00  0.00    +0.000 N 
ATOM     30  C   UNL     1       1.609  15.782  19.628  0.00  0.00    +0.000 C 
ATOM     31  O   UNL     1       0.898  15.900  20.632  0.00  0.00    +0.000 OA
ATOM     32  C   UNL     1       3.640  16.605  18.352  0.00  0.00    +0.000 C 
ATOM     33  C   UNL     1       5.112  16.690  18.784  0.00  0.00    +0.000 C 
ENDBRANCH  19  30
ENDBRANCH   1  22
TORSDOF 3
ENDMDL
MODEL 4
REMARK VINA RESULT:      -8.2      4.037      5.904
REMARK  Name = 
REMARK  4 active torsions:
REMARK  status: ('A' for Active; 'I' for Inactive)
REMARK    1  A    between atoms: C_1  and  N_2
REMARK    2  A    between atoms: C_6  and  C_8
REMARK    3  A    between atoms: N_11  and  C_12
REMARK    4  A    between atoms: C_18  and  C_19
REMARK                            x       y       z     vdW  Elec       q    Type
REMARK                         _______ _______ _______ _____ _____    ______ ____
ROOT
ATOM      1  C   UNL     1       2.178   6.678  19.730  0.00  0.00    +0.000 A 
ATOM      2  N   UNL     1       1.527   6.078  20.758  0.00  0.00    +0.000 NA
ATOM      3  C   UNL     1       1.741   4.760  21.004  0.00  0.00    +0.000 A 
ATOM      4  C   UNL     1       2.598   3.928  20.291  0.00  0.00    +0.000 A 
ATOM      5  C   UNL     1       3.231   4.538  19.208  0.00  0.00    +0.000 A 
ATOM      6  N   UNL     1       4.138   4.077  18.275  0.00  0.00    +0.000 N 
ATOM      7  C   UNL     1       4.441   5.067  17.362  0.00  0.00    +0.000 A 
ATOM      8  C   UNL     1       3.692   6.163  17.716  0.00  0.00    +0.000 A 
ATOM      9  C   UNL     1       2.993   5.873  18.911  0.00  0.00    +0.000 A 
ATOM     10  H   UNL     1       4.508   3.140  18.252  0.00  0.00    +0.000 HD
ENDROOT
BRANCH   7  11
ATOM     11  C   UNL     1       5.349   4.961  16.229  0.00  0.00    +0.000 A 
ATOM     12  C   UNL     1       6.631   5.517  16.250  0.00  0.00    +0.000 A 
ATOM     13  C   UNL     1       7.459   5.408  15.129  0.00  0.00    +0.000 A 
ATOM     14  C   UNL     1       6.998   4.757  13.987  0.00  0.00    +0.000 A 
ATOM     15  F   UNL     1       7.800   4.650  12.920  0.00  0.00    +0.000 F 
ATOM     16  C   UNL     1       5.716   4.233  13.947  0.00  0.00    +0.000 A 
ATOM     17  F   UNL     1       5.255   3.632  12.841  0.00  0.00    +0.000 F 
ATOM     18  C   UNL     1       4.891   4.333  15.056  0.00  0.00    +0.000 A 
ENDBRANCH   7  11
BRANCH   1  22
ATOM     19  C   UNL     1       1.081  10.653  18.683  0.00  0.00    +0.000 C 
ATOM     20  C   UNL     1       2.185   9.908  17.913  0.00  0.00    +0.000 C 
ATOM     21  C   UNL     1       2.057   8.388  18.037  0.00  0.00    +0.000 C 
ATOM     22  N   UNL     1       2.082   8.050  19.452  0.00  0.00    +0.000 N 
ATOM     23  C   UNL     1       1.034   8.687  20.269  0.00  0.00    +0.000 C 
ATOM     24  C   UNL     1       1.159  10.208  20.154  0.00  0.00    +0.000 C 
BRANCH  19  30
ATOM     25  C   UNL     1      -4.637  12.992  20.715  0.00  0.00    +0.000 C 
ATOM     26  N   UNL     1      -3.615  12.755  19.700  0.00  0.00    +0.000 NA
ATOM     27  C   UNL     1      -3.790  11.428  19.075  0.00  0.00    +0.000 C 
ATOM     28  C   UNL     1      -2.706  11.136  18.021  0.00  0.00    +0.000 C 
ATOM     29  N   UNL     1      -1.349  11.346  18.545  0.00  0.00    +0.000 N 
ATOM     30  C   UNL     1      -0.362  10.456  18.180  0.00  0.00    +0.000 C 
ATOM     31  O   UNL     1      -0.656   9.458  17.513  0.00  0.00    +0.000 OA
ATOM     32  C   UNL     1      -1.164  12.609  19.254  0.00  0.00    +0.000 C 
ATOM     33  C   UNL     1      -2.270  12.843  20.295  0.00  0.00    +0.000 C 
ENDBRANCH  19  30
ENDBRANCH   1  22
TORSDOF 3
ENDMDL
MODEL 5
REMARK VINA RESULT:      -7.9      1.389      1.520
REMARK  Name = 
REMARK  4 active torsions:
REMARK  status: ('A' for Active; 'I' for Inactive)
REMARK    1  A    between atoms: C_1  and  N_2
REMARK    2  A    between atoms: C_6  and  C_8
REMARK    3  A    between atoms: N_11  and  C_12
REMARK    4  A    between atoms: C_18  and  C_19
REMARK                            x       y       z     vdW  Elec       q    Type
REMARK                         _______ _______ _______ _____ _____    ______ ____
ROOT
ATOM      1  C   UNL     1       0.061  11.402  21.020  0.00  0.00    +0.000 A 
ATOM      2  N   UNL     1      -0.671  11.728  22.114  0.00  0.00    +0.000 NA
ATOM      3  C   UNL     1      -0.886  10.792  23.075  0.00  0.00    +0.000 A 
ATOM      4  C   UNL     1      -0.409   9.486  23.059  0.00  0.00    +0.000 A 
ATOM      5  C   UNL     1       0.305   9.143  21.911  0.00  0.00    +0.000 A 
ATOM      6  N   UNL     1       0.934   7.980  21.515  0.00  0.00    +0.000 N 
ATOM      7  C   UNL     1       1.477   8.126  20.254  0.00  0.00    +0.000 A 
ATOM      8  C   UNL     1       1.162   9.399  19.843  0.00  0.00    +0.000 A 
ATOM      9  C   UNL     1       0.500  10.069  20.897  0.00  0.00    +0.000 A 
ATOM     10  H   UNL     1       0.971   7.135  22.063  0.00  0.00    +0.000 HD
ENDROOT
BRANCH   7  11
ATOM     11  C   UNL     1       2.209   7.121  19.498  0.00  0.00    +0.000 A 
ATOM     12  C   UNL     1       2.258   5.781  19.896  0.00  0.00    +0.000 A 
ATOM     13  C   UNL     1       2.993   4.857  19.149  0.00  0.00    +0.000 A 
ATOM     14  C   UNL     1       3.688   5.275  18.017  0.00  0.00    +0.000 A 
ATOM     15  F   UNL     1       4.383   4.381  17.302  0.00  0.00    +0.000 F 
ATOM     16  C   UNL     1       3.672   6.607  17.635  0.00  0.00    +0.000 A 
ATOM     17  F   UNL     1       4.363   7.022  16.565  0.00  0.00    +0.000 F 
ATOM     18  C   UNL     1       2.942   7.529  18.368  0.00  0.00    +0.000 A 
ENDBRANCH   7  11
BRANCH   1  22
ATOM     19  C   UNL     1       1.655  14.487  18.562  0.00  0.00    +0.000 C 
ATOM     20  C   UNL     1       0.169  14.483  18.963  0.00  0.00    +0.000 C 
ATOM     21  C   UNL     1      -0.086  13.676  20.238  0.00  0.00    +0.000 C 
ATOM     22  N   UNL     1       0.403  12.324  20.018  0.00  0.00    +0.000 N 
ATOM     23  C   UNL     1       1.831  12.222  19.666  0.00  0.00    +0.000 C 
ATOM     24  C   UNL     1       2.094  13.022  18.389  0.00  0.00    +0.000 C 
BRANCH  19  30
ATOM     25  C   UNL     1       8.144  14.893  18.740  0.00  0.00    +0.000 C 
ATOM     26  N   UNL     1       6.804  15.474  18.720  0.00  0.00    +0.000 NA
ATOM     27  C   UNL     1       6.242  15.550  20.084  0.00  0.00    +0.000 C 
ATOM     28  C   UNL     1       4.814  16.129  20.091  0.00  0.00    +0.000 C 
ATOM     29  N   UNL     1       3.928  15.434  19.146  0.00  0.00    +0.000 N 
ATOM     30  C   UNL     1       2.628  15.187  19.530  0.00  0.00    +0.000 C 
ATOM     31  O   UNL     1       2.270  15.457  20.681  0.00  0.00    +0.000 OA
ATOM     32  C   UNL     1       4.490  15.256  17.811  0.00  0.00    +0.000 C 
ATOM     33  C   UNL     1       5.910  14.671  17.866  0.00  0.00    +0.000 C 
ENDBRANCH  19  30
ENDBRANCH   1  22
TORSDOF 3
ENDMDL
MODEL 6
REMARK VINA RESULT:      -7.6      3.630      5.609
REMARK  Name = 
REMARK  4 active torsions:
REMARK  status: ('A' for Active; 'I' for Inactive)
REMARK    1  A    between atoms: C_1  and  N_2
REMARK    2  A    between atoms: C_6  and  C_8
REMARK    3  A    between atoms: N_11  and  C_12
REMARK    4  A    between atoms: C_18  and  C_19
REMARK                            x       y       z     vdW  Elec       q    Type
REMARK                         _______ _______ _______ _____ _____    ______ ____
ROOT
ATOM      1  C   UNL     1       0.383  11.746  19.877  0.00  0.00    +0.000 A 
ATOM      2  N   UNL     1       0.734  12.927  19.309  0.00  0.00    +0.000 NA
ATOM      3  C   UNL     1       1.675  12.941  18.328  0.00  0.00    +0.000 A 
ATOM      4  C   UNL     1       2.337  11.828  17.821  0.00  0.00    +0.000 A 
ATOM      5  C   UNL     1       2.004  10.623  18.439  0.00  0.00    +0.000 A 
ATOM      6  N   UNL     1       2.419   9.322  18.234  0.00  0.00    +0.000 N 
ATOM      7  C   UNL     1       1.821   8.473  19.144  0.00  0.00    +0.000 A 
ATOM      8  C   UNL     1       1.035   9.260  19.950  0.00  0.00    +0.000 A 
ATOM      9  C   UNL     1       1.078  10.590  19.472  0.00  0.00    +0.000 A 
ATOM     10  H   UNL     1       3.083   9.038  17.532  0.00  0.00    +0.000 HD
ENDROOT
BRANCH   7  11
ATOM     11  C   UNL     1       2.013   7.034  19.250  0.00  0.00    +0.000 A 
ATOM     12  C   UNL     1       1.779   6.339  20.441  0.00  0.00    +0.000 A 
ATOM     13  C   UNL     1       2.000   4.960  20.500  0.00  0.00    +0.000 A 
ATOM     14  C   UNL     1       2.465   4.283  19.375  0.00  0.00    +0.000 A 
ATOM     15  F   UNL     1       2.666   2.961  19.438  0.00  0.00    +0.000 F 
ATOM     16  C   UNL     1       2.731   4.970  18.202  0.00  0.00    +0.000 A 
ATOM     17  F   UNL     1       3.208   4.331  17.125  0.00  0.00    +0.000 F 
ATOM     18  C   UNL     1       2.511   6.336  18.134  0.00  0.00    +0.000 A 
ENDBRANCH   7  11
BRANCH   1  22
ATOM     19  C   UNL     1      -2.434  12.146  23.041  0.00  0.00    +0.000 C 
ATOM     20  C   UNL     1      -1.398  11.008  23.042  0.00  0.00    +0.000 C 
ATOM     21  C   UNL     1      -0.173  11.335  22.185  0.00  0.00    +0.000 C 
ATOM     22  N   UNL     1      -0.634  11.625  20.836  0.00  0.00    +0.000 N 
ATOM     23  C   UNL     1      -1.603  12.730  20.728  0.00  0.00    +0.000 C 
ATOM     24  C   UNL     1      -2.834  12.408  21.578  0.00  0.00    +0.000 C 
BRANCH  19  30
ATOM     25  C   UNL     1      -5.591  17.713  24.201  0.00  0.00    +0.000 C 
ATOM     26  N   UNL     1      -4.788  16.563  24.608  0.00  0.00    +0.000 NA
ATOM     27  C   UNL     1      -3.350  16.818  24.386  0.00  0.00    +0.000 C 
ATOM     28  C   UNL     1      -2.479  15.610  24.777  0.00  0.00    +0.000 C 
ATOM     29  N   UNL     1      -2.942  14.364  24.148  0.00  0.00    +0.000 N 
ATOM     30  C   UNL     1      -1.995  13.477  23.683  0.00  0.00    +0.000 C 
ATOM     31  O   UNL     1      -0.801  13.788  23.711  0.00  0.00    +0.000 OA
ATOM     32  C   UNL     1      -4.377  14.125  24.265  0.00  0.00    +0.000 C 
ATOM     33  C   UNL     1      -5.194  15.361  23.856  0.00  0.00    +0.000 C 
ENDBRANCH  19  30
ENDBRANCH   1  22
TORSDOF 3
ENDMDL
MODEL 7
REMARK VINA RESULT:      -7.6      3.614      5.643
REMARK  Name = 
REMARK  4 active torsions:
REMARK  status: ('A' for Active; 'I' for Inactive)
REMARK    1  A    between atoms: C_1  and  N_2
REMARK    2  A    between atoms: C_6  and  C_8
REMARK    3  A    between atoms: N_11  and  C_12
REMARK    4  A    between atoms: C_18  and  C_19
REMARK                            x       y       z     vdW  Elec       q    Type
REMARK                         _______ _______ _______ _____ _____    ______ ____
ROOT
ATOM      1  C   UNL     1       0.679  11.306  19.721  0.00  0.00    +0.000 A 
ATOM      2  N   UNL     1       1.068  12.463  19.128  0.00  0.00    +0.000 NA
ATOM      3  C   UNL     1       1.988  12.424  18.130  0.00  0.00    +0.000 A 
ATOM      4  C   UNL     1       2.592  11.278  17.625  0.00  0.00    +0.000 A 
ATOM      5  C   UNL     1       2.222  10.096  18.267  0.00  0.00    +0.000 A 
ATOM      6  N   UNL     1       2.577   8.776  18.073  0.00  0.00    +0.000 N 
ATOM      7  C   UNL     1       1.963   7.965  19.007  0.00  0.00    +0.000 A 
ATOM      8  C   UNL     1       1.227   8.796  19.816  0.00  0.00    +0.000 A 
ATOM      9  C   UNL     1       1.316  10.117  19.319  0.00  0.00    +0.000 A 
ATOM     10  H   UNL     1       3.214   8.454  17.362  0.00  0.00    +0.000 HD
ENDROOT
BRANCH   7  11
ATOM     11  C   UNL     1       2.096   6.521  19.130  0.00  0.00    +0.000 A 
ATOM     12  C   UNL     1       2.256   5.693  18.015  0.00  0.00    +0.000 A 
ATOM     13  C   UNL     1       2.356   4.309  18.181  0.00  0.00    +0.000 A 
ATOM     14  C   UNL     1       2.283   3.756  19.458  0.00  0.00    +0.000 A 
ATOM     15  F   UNL     1       2.389   2.430  19.610  0.00  0.00    +0.000 F 
ATOM     16  C   UNL     1       2.091   4.568  20.565  0.00  0.00    +0.000 A 
ATOM     17  F   UNL     1       1.990   4.041  21.793  0.00  0.00    +0.000 F 
ATOM     18  C   UNL     1       1.995   5.941  20.408  0.00  0.00    +0.000 A 
ENDBRANCH   7  11
BRANCH   1  22
ATOM     19  C   UNL     1      -2.069  11.878  22.918  0.00  0.00    +0.000 C 
ATOM     20  C   UNL     1      -1.061  10.715  22.939  0.00  0.00    +0.000 C 
ATOM     21  C   UNL     1       0.155  10.984  22.050  0.00  0.00    +0.000 C 
ATOM     22  N   UNL     1      -0.324  11.241  20.701  0.00  0.00    +0.000 N 
ATOM     23  C   UNL     1      -1.268  12.366  20.573  0.00  0.00    +0.000 C 
ATOM     24  C   UNL     1      -2.490  12.102  21.455  0.00  0.00    +0.000 C 
BRANCH  19  30
ATOM     25  C   UNL     1      -5.193  17.362  24.488  0.00  0.00    +0.000 C 
ATOM     26  N   UNL     1      -4.318  16.232  24.787  0.00  0.00    +0.000 NA
ATOM     27  C   UNL     1      -2.926  16.523  24.391  0.00  0.00    +0.000 C 
ATOM     28  C   UNL     1      -1.984  15.335  24.666  0.00  0.00    +0.000 C 
ATOM     29  N   UNL     1      -2.490  14.080  24.091  0.00  0.00    +0.000 N 
ATOM     30  C   UNL     1      -1.588  13.217  23.508  0.00  0.00    +0.000 C 
ATOM     31  O   UNL     1      -0.406  13.558  23.391  0.00  0.00    +0.000 OA
ATOM     32  C   UNL     1      -3.894  13.806  24.383  0.00  0.00    +0.000 C 
ATOM     33  C   UNL     1      -4.785  15.022  24.085  0.00  0.00    +0.000 C 
ENDBRANCH  19  30
ENDBRANCH   1  22
TORSDOF 3
ENDMDL
MODEL 8
REMARK VINA RESULT:      -7.5      4.553      8.330
REMARK  Name = 
REMARK  4 active torsions:
REMARK  status: ('A' for Active; 'I' for Inactive)
REMARK    1  A    between atoms: C_1  and  N_2
REMARK    2  A    between atoms: C_6  and  C_8
REMARK    3  A    between atoms: N_11  and  C_12
REMARK    4  A    between atoms: C_18  and  C_19
REMARK                            x       y       z     vdW  Elec       q    Type
REMARK                         _______ _______ _______ _____ _____    ______ ____
ROOT
ATOM      1  C   UNL     1       0.358  15.665  18.792  0.00  0.00    +0.000 A 
ATOM      2  N   UNL     1      -0.569  16.572  18.394  0.00  0.00    +0.000 NA
ATOM      3  C   UNL     1      -0.170  17.682  17.722  0.00  0.00    +0.000 A 
ATOM      4  C   UNL     1       1.141  17.998  17.379  0.00  0.00    +0.000 A 
ATOM      5  C   UNL     1       2.094  17.086  17.829  0.00  0.00    +0.000 A 
ATOM      6  N   UNL     1       3.468  17.028  17.699  0.00  0.00    +0.000 N 
ATOM      7  C   UNL     1       3.974  15.931  18.368  0.00  0.00    +0.000 A 
ATOM      8  C   UNL     1       2.899  15.302  18.948  0.00  0.00    +0.000 A 
ATOM      9  C   UNL     1       1.713  15.966  18.555  0.00  0.00    +0.000 A 
ATOM     10  H   UNL     1       4.024  17.707  17.203  0.00  0.00    +0.000 HD
ENDROOT
BRANCH   7  11
ATOM     11  C   UNL     1       5.372  15.539  18.466  0.00  0.00    +0.000 A 
ATOM     12  C   UNL     1       6.290  16.249  19.246  0.00  0.00    +0.000 A 
ATOM     13  C   UNL     1       7.627  15.847  19.291  0.00  0.00    +0.000 A 
ATOM     14  C   UNL     1       8.047  14.746  18.548  0.00  0.00    +0.000 A 
ATOM     15  F   UNL     1       9.328  14.363  18.603  0.00  0.00    +0.000 F 
ATOM     16  C   UNL     1       7.150  14.058  17.746  0.00  0.00    +0.000 A 
ATOM     17  F   UNL     1       7.552  13.017  17.005  0.00  0.00    +0.000 F 
ATOM     18  C   UNL     1       5.821  14.447  17.700  0.00  0.00    +0.000 A 
ENDBRANCH   7  11
BRANCH   1  22
ATOM     19  C   UNL     1      -1.358  12.053  20.243  0.00  0.00    +0.000 C 
ATOM     20  C   UNL     1      -1.017  13.208  21.201  0.00  0.00    +0.000 C 
ATOM     21  C   UNL     1      -0.951  14.558  20.484  0.00  0.00    +0.000 C 
ATOM     22  N   UNL     1       0.032  14.452  19.417  0.00  0.00    +0.000 N 
ATOM     23  C   UNL     1      -0.231  13.395  18.424  0.00  0.00    +0.000 C 
ATOM     24  C   UNL     1      -0.292  12.040  19.133  0.00  0.00    +0.000 C 
BRANCH  19  30
ATOM     25  C   UNL     1      -3.548  10.112  14.435  0.00  0.00    +0.000 C 
ATOM     26  N   UNL     1      -3.571  10.129  15.895  0.00  0.00    +0.000 NA
ATOM     27  C   UNL     1      -4.369  11.266  16.397  0.00  0.00    +0.000 C 
ATOM     28  C   UNL     1      -4.385  11.328  17.936  0.00  0.00    +0.000 C 
ATOM     29  N   UNL     1      -3.032  11.284  18.508  0.00  0.00    +0.000 N 
ATOM     30  C   UNL     1      -2.754  12.087  19.593  0.00  0.00    +0.000 C 
ATOM     31  O   UNL     1      -3.604  12.891  19.990  0.00  0.00    +0.000 OA
ATOM     32  C   UNL     1      -2.181  10.229  17.965  0.00  0.00    +0.000 C 
ATOM     33  C   UNL     1      -2.199  10.219  16.428  0.00  0.00    +0.000 C 
ENDBRANCH  19  30
ENDBRANCH   1  22
TORSDOF 3
ENDMDL
MODEL 9
REMARK VINA RESULT:      -7.4      3.960      6.105
REMARK  Name = 
REMARK  4 active torsions:
REMARK  status: ('A' for Active; 'I' for Inactive)
REMARK    1  A    between atoms: C_1  and  N_2
REMARK    2  A    between atoms: C_6  and  C_8
REMARK    3  A    between atoms: N_11  and  C_12
REMARK    4  A    between atoms: C_18  and  C_19
REMARK                            x       y       z     vdW  Elec       q    Type
REMARK                         _______ _______ _______ _____ _____    ______ ____
ROOT
ATOM      1  C   UNL     1      -0.022  12.437  20.049  0.00  0.00    +0.000 A 
ATOM      2  N   UNL     1       0.228  13.692  19.600  0.00  0.00    +0.000 NA
ATOM      3  C   UNL     1       1.183  13.883  18.653  0.00  0.00    +0.000 A 
ATOM      4  C   UNL     1       1.958  12.889  18.067  0.00  0.00    +0.000 A 
ATOM      5  C   UNL     1       1.728  11.606  18.564  0.00  0.00    +0.000 A 
ATOM      6  N   UNL     1       2.268  10.373  18.256  0.00  0.00    +0.000 N 
ATOM      7  C   UNL     1       1.735   9.392  19.067  0.00  0.00    +0.000 A 
ATOM      8  C   UNL     1       0.860  10.025  19.917  0.00  0.00    +0.000 A 
ATOM      9  C   UNL     1       0.788  11.392  19.562  0.00  0.00    +0.000 A 
ATOM     10  H   UNL     1       2.972  10.218  17.551  0.00  0.00    +0.000 HD
ENDROOT
BRANCH   7  11
ATOM     11  C   UNL     1       2.060   7.973  19.049  0.00  0.00    +0.000 A 
ATOM     12  C   UNL     1       2.499   7.327  17.889  0.00  0.00    +0.000 A 
ATOM     13  C   UNL     1       2.777   5.958  17.915  0.00  0.00    +0.000 A 
ATOM     14  C   UNL     1       2.602   5.236  19.094  0.00  0.00    +0.000 A 
ATOM     15  F   UNL     1       2.878   3.926  19.112  0.00  0.00    +0.000 F 
ATOM     16  C   UNL     1       2.134   5.863  20.238  0.00  0.00    +0.000 A 
ATOM     17  F   UNL     1       1.935   5.169  21.367  0.00  0.00    +0.000 F 
ATOM     18  C   UNL     1       1.861   7.221  20.221  0.00  0.00    +0.000 A 
ENDBRANCH   7  11
BRANCH   1  22
ATOM     19  C   UNL     1      -2.990  12.313  23.095  0.00  0.00    +0.000 C 
ATOM     20  C   UNL     1      -1.785  11.356  23.124  0.00  0.00    +0.000 C 
ATOM     21  C   UNL     1      -0.596  11.893  22.325  0.00  0.00    +0.000 C 
ATOM     22  N   UNL     1      -1.044  12.133  20.962  0.00  0.00    +0.000 N 
ATOM     23  C   UNL     1      -2.173  13.071  20.828  0.00  0.00    +0.000 C 
ATOM     24  C   UNL     1      -3.369  12.538  21.621  0.00  0.00    +0.000 C 
BRANCH  19  30
ATOM     25  C   UNL     1      -6.766  17.595  23.479  0.00  0.00    +0.000 C 
ATOM     26  N   UNL     1      -5.964  16.523  24.063  0.00  0.00    +0.000 NA
ATOM     27  C   UNL     1      -4.537  16.901  24.116  0.00  0.00    +0.000 C 
ATOM     28  C   UNL     1      -3.661  15.776  24.699  0.00  0.00    +0.000 C 
ATOM     29  N   UNL     1      -3.886  14.489  24.025  0.00  0.00    +0.000 N 
ATOM     30  C   UNL     1      -2.797  13.683  23.774  0.00  0.00    +0.000 C 
ATOM     31  O   UNL     1      -1.661  14.097  24.024  0.00  0.00    +0.000 OA
ATOM     32  C   UNL     1      -5.292  14.127  23.869  0.00  0.00    +0.000 C 
ATOM     33  C   UNL     1      -6.114  15.284  23.279  0.00  0.00    +0.000 C 
ENDBRANCH  19  30
ENDBRANCH   1  22
TORSDOF 3
ENDMDL
