MODEL 1
REMARK VINA RESULT:      -8.9      0.000      0.000
REMARK  Name = 
REMARK  5 active torsions:
REMARK  status: ('A' for Active; 'I' for Inactive)
REMARK    1  A    between atoms: C_2  and  C_3
REMARK    2  A    between atoms: C_3  and  S_4
REMARK    3  A    between atoms: S_4  and  C_5
REMARK    4  A    between atoms: C_11  and  C_12
REMARK    5  A    between atoms: N_23  and  C_24
REMARK                            x       y       z     vdW  Elec       q    Type
REMARK                         _______ _______ _______ _____ _____    ______ ____
ROOT
ATOM      1  S   UNL     1       2.521   6.576  17.561  0.00  0.00    +0.000 S 
ENDROOT
BRANCH   1   2
ATOM      2  C   UNL     1       4.136   5.952  17.729  0.00  0.00    +0.000 A 
ATOM      3  C   UNL     1       4.587   5.968  19.148  0.00  0.00    +0.000 A 
ATOM      4  C   UNL     1       5.810   5.493  19.416  0.00  0.00    +0.000 A 
ATOM      5  C   UNL     1       6.605   5.018  18.352  0.00  0.00    +0.000 A 
ATOM      6  N   UNL     1       7.803   4.480  18.325  0.00  0.00    +0.000 NA
ATOM      7  N   UNL     1       8.102   4.209  17.011  0.00  0.00    +0.000 NA
ATOM      8  C   UNL     1       7.088   4.614  16.259  0.00  0.00    +0.000 A 
ATOM      9  N   UNL     1       6.085   5.095  17.074  0.00  0.00    +0.000 N 
ATOM     10  N   UNL     1       4.822   5.536  16.717  0.00  0.00    +0.000 NA
BRANCH   8  11
ATOM     11  C   UNL     1       7.020   4.563  14.804  0.00  0.00    +0.000 A 
ATOM     12  C   UNL     1       6.151   3.700  14.146  0.00  0.00    +0.000 A 
ATOM     13  C   UNL     1       6.142   3.703  12.754  0.00  0.00    +0.000 A 
ATOM     14  C   UNL     1       7.001   4.554  12.066  0.00  0.00    +0.000 A 
ATOM     15  C   UNL     1       7.844   5.369  12.802  0.00  0.00    +0.000 A 
ATOM     16  N   UNL     1       7.871   5.388  14.147  0.00  0.00    +0.000 NA
ENDBRANCH   8  11
ENDBRANCH   1   2
BRANCH   1  17
ATOM     17  C   UNL     1       2.235   7.584  19.059  0.00  0.00    +0.000 C 
BRANCH  17  19
ATOM     18  O   UNL     1       1.936   9.478  17.561  0.00  0.00    +0.000 OA
ATOM     19  C   UNL     1       1.656   8.954  18.644  0.00  0.00    +0.000 C 
ATOM     20  N   UNL     1       0.812   9.619  19.524  0.00  0.00    +0.000 N 
ATOM     21  C   UNL     1       0.373   9.157  20.849  0.00  0.00    +0.000 C 
ATOM     22  C   UNL     1       0.629  10.225  21.937  0.00  0.00    +0.000 C 
ATOM     23  N   UNL     1       0.117  11.543  21.521  0.00  0.00    +0.000 N 
ATOM     24  C   UNL     1       0.592  12.007  20.206  0.00  0.00    +0.000 C 
ATOM     25  C   UNL     1       0.279  10.939  19.141  0.00  0.00    +0.000 C 
BRANCH  23  26
ATOM     26  C   UNL     1      -0.796  12.267  22.260  0.00  0.00    +0.000 A 
ATOM     27  C   UNL     1      -2.002  11.700  22.708  0.00  0.00    +0.000 A 
ATOM     28  C   UNL     1      -2.939  12.435  23.445  0.00  0.00    +0.000 A 
ATOM     29  C   UNL     1      -2.689  13.764  23.760  0.00  0.00    +0.000 A 
ATOM     30  C   UNL     1      -1.500  14.351  23.344  0.00  0.00    +0.000 A 
ATOM     31  C   UNL     1      -0.572  13.608  22.606  0.00  0.00    +0.000 A 
ENDBRANCH  23  26
ENDBRANCH  17  19
ENDBRANCH   1  17
TORSDOF 5
ENDMDL
MODEL 2
REMARK VINA RESULT:      -8.4      2.018      2.979
REMARK  Name = 
REMARK  5 active torsions:
REMARK  status: ('A' for Active; 'I' for Inactive)
REMARK    1  A    between atoms: C_2  and  C_3
REMARK    2  A    between atoms: C_3  and  S_4
REMARK    3  A    between atoms: S_4  and  C_5
REMARK    4  A    between atoms: C_11  and  C_12
REMARK    5  A    between atoms: N_23  and  C_24
REMARK                            x       y       z     vdW  Elec       q    Type
REMARK                         _______ _______ _______ _____ _____    ______ ____
ROOT
ATOM      1  S   UNL     1       2.048   7.749  20.021  0.00  0.00    +0.000 S 
ENDROOT
BRANCH   1   2
ATOM      2  C   UNL     1       2.280   6.060  19.676  0.00  0.00    +0.000 A 
ATOM      3  C   UNL     1       1.361   5.203  20.476  0.00  0.00    +0.000 A 
ATOM      4  C   UNL     1       1.425   3.879  20.287  0.00  0.00    +0.000 A 
ATOM      5  C   UNL     1       2.357   3.367  19.361  0.00  0.00    +0.000 A 
ATOM      6  N   UNL     1       2.611   2.143  18.959  0.00  0.00    +0.000 NA
ATOM      7  N   UNL     1       3.633   2.215  18.043  0.00  0.00    +0.000 NA
ATOM      8  C   UNL     1       4.000   3.483  17.924  0.00  0.00    +0.000 A 
ATOM      9  N   UNL     1       3.182   4.266  18.711  0.00  0.00    +0.000 N 
ATOM     10  N   UNL     1       3.155   5.646  18.820  0.00  0.00    +0.000 NA
BRANCH   8  11
ATOM     11  C   UNL     1       5.086   3.992  17.097  0.00  0.00    +0.000 A 
ATOM     12  C   UNL     1       6.298   4.388  17.650  0.00  0.00    +0.000 A 
ATOM     13  C   UNL     1       7.291   4.867  16.798  0.00  0.00    +0.000 A 
ATOM     14  C   UNL     1       7.040   4.946  15.432  0.00  0.00    +0.000 A 
ATOM     15  C   UNL     1       5.799   4.545  14.970  0.00  0.00    +0.000 A 
ATOM     16  N   UNL     1       4.824   4.075  15.769  0.00  0.00    +0.000 NA
ENDBRANCH   8  11
ENDBRANCH   1   2
BRANCH   1  17
ATOM     17  C   UNL     1       1.507   8.494  18.442  0.00  0.00    +0.000 C 
BRANCH  17  19
ATOM     18  O   UNL     1       2.277  10.753  17.968  0.00  0.00    +0.000 OA
ATOM     19  C   UNL     1       1.489  10.031  18.588  0.00  0.00    +0.000 C 
ATOM     20  N   UNL     1       0.571  10.612  19.453  0.00  0.00    +0.000 N 
ATOM     21  C   UNL     1      -0.435   9.918  20.271  0.00  0.00    +0.000 C 
ATOM     22  C   UNL     1      -0.350  10.341  21.755  0.00  0.00    +0.000 C 
ATOM     23  N   UNL     1      -0.321  11.808  21.891  0.00  0.00    +0.000 N 
ATOM     24  C   UNL     1       0.714  12.486  21.091  0.00  0.00    +0.000 C 
ATOM     25  C   UNL     1       0.569  12.077  19.613  0.00  0.00    +0.000 C 
BRANCH  23  26
ATOM     26  C   UNL     1      -1.233  12.515  22.647  0.00  0.00    +0.000 A 
ATOM     27  C   UNL     1      -0.978  13.828  23.080  0.00  0.00    +0.000 A 
ATOM     28  C   UNL     1      -1.895  14.544  23.860  0.00  0.00    +0.000 A 
ATOM     29  C   UNL     1      -3.101  13.962  24.226  0.00  0.00    +0.000 A 
ATOM     30  C   UNL     1      -3.390  12.670  23.804  0.00  0.00    +0.000 A 
ATOM     31  C   UNL     1      -2.466  11.963  23.027  0.00  0.00    +0.000 A 
ENDBRANCH  23  26
ENDBRANCH  17  19
ENDBRANCH   1  17
TORSDOF 5
ENDMDL
MODEL 3
REMARK VINA RESULT:      -8.3      2.627      3.892
REMARK  Name = 
REMARK  5 active torsions:
REMARK  status: ('A' for Active; 'I' for Inactive)
REMARK    1  A    between atoms: C_2  and  C_3
REMARK    2  A    between atoms: C_3  and  S_4
REMARK    3  A    between atoms: S_4  and  C_5
REMARK    4  A    between atoms: C_11  and  C_12
REMARK    5  A    between atoms: N_23  and  C_24
REMARK                            x       y       z     vdW  Elec       q    Type
REMARK                         _______ _______ _______ _____ _____    ______ ____
ROOT
ATOM      1  S   UNL     1       4.084   1.641  18.417  0.00  0.00    +0.000 S 
ENDROOT
BRANCH   1   2
ATOM      2  C   UNL     1       4.961   3.125  18.186  0.00  0.00    +0.000 A 
ATOM      3  C   UNL     1       5.017   3.932  19.436  0.00  0.00    +0.000 A 
ATOM      4  C   UNL     1       5.684   5.092  19.397  0.00  0.00    +0.000 A 
ATOM      5  C   UNL     1       6.283   5.494  18.185  0.00  0.00    +0.000 A 
ATOM      6  N   UNL     1       7.009   6.542  17.871  0.00  0.00    +0.000 NA
ATOM      7  N   UNL     1       7.326   6.438  16.537  0.00  0.00    +0.000 NA
ATOM      8  C   UNL     1       6.763   5.337  16.058  0.00  0.00    +0.000 A 
ATOM      9  N   UNL     1       6.124   4.673  17.084  0.00  0.00    +0.000 N 
ATOM     10  N   UNL     1       5.485   3.446  17.049  0.00  0.00    +0.000 NA
BRANCH   8  11
ATOM     11  C   UNL     1       6.805   4.880  14.675  0.00  0.00    +0.000 A 
ATOM     12  C   UNL     1       5.937   3.900  14.206  0.00  0.00    +0.000 A 
ATOM     13  C   UNL     1       6.036   3.511  12.873  0.00  0.00    +0.000 A 
ATOM     14  C   UNL     1       6.997   4.099  12.058  0.00  0.00    +0.000 A 
ATOM     15  C   UNL     1       7.830   5.055  12.612  0.00  0.00    +0.000 A 
ATOM     16  N   UNL     1       7.754   5.453  13.895  0.00  0.00    +0.000 NA
ENDBRANCH   8  11
ENDBRANCH   1   2
BRANCH   1  17
ATOM     17  C   UNL     1       2.352   2.144  18.711  0.00  0.00    +0.000 C 
BRANCH  17  19
ATOM     18  O   UNL     1       2.172   3.446  16.662  0.00  0.00    +0.000 OA
ATOM     19  C   UNL     1       2.048   3.417  17.891  0.00  0.00    +0.000 C 
ATOM     20  N   UNL     1       1.642   4.564  18.560  0.00  0.00    +0.000 N 
ATOM     21  C   UNL     1       1.443   4.720  20.009  0.00  0.00    +0.000 C 
ATOM     22  C   UNL     1       2.218   5.938  20.560  0.00  0.00    +0.000 C 
ATOM     23  N   UNL     1       1.964   7.143  19.750  0.00  0.00    +0.000 N 
ATOM     24  C   UNL     1       2.199   6.981  18.305  0.00  0.00    +0.000 C 
ATOM     25  C   UNL     1       1.376   5.788  17.783  0.00  0.00    +0.000 C 
BRANCH  23  26
ATOM     26  C   UNL     1       1.472   8.320  20.278  0.00  0.00    +0.000 A 
ATOM     27  C   UNL     1       1.206   8.461  21.651  0.00  0.00    +0.000 A 
ATOM     28  C   UNL     1       0.692   9.647  22.190  0.00  0.00    +0.000 A 
ATOM     29  C   UNL     1       0.435  10.732  21.363  0.00  0.00    +0.000 A 
ATOM     30  C   UNL     1       0.699  10.630  20.002  0.00  0.00    +0.000 A 
ATOM     31  C   UNL     1       1.210   9.439  19.474  0.00  0.00    +0.000 A 
ENDBRANCH  23  26
ENDBRANCH  17  19
ENDBRANCH   1  17
TORSDOF 5
ENDMDL
MODEL 4
REMARK VINA RESULT:      -8.2      2.752      3.606
REMARK  Name = 
REMARK  5 active torsions:
REMARK  status: ('A' for Active; 'I' for Inactive)
REMARK    1  A    between atoms: C_2  and  C_3
REMARK    2  A    between atoms: C_3  and  S_4
REMARK    3  A    between atoms: S_4  and  C_5
REMARK    4  A    between atoms: C_11  and  C_12
REMARK    5  A    between atoms: N_23  and  C_24
REMARK                            x       y       z     vdW  Elec       q    Type
REMARK                         _______ _______ _______ _____ _____    ______ ____
ROOT
ATOM      1  S   UNL     1       1.086   7.193  21.016  0.00  0.00    +0.000 S 
ENDROOT
BRANCH   1   2
ATOM      2  C   UNL     1       1.855   5.779  20.356  0.00  0.00    +0.000 A 
ATOM      3  C   UNL     1       1.004   4.566  20.514  0.00  0.00    +0.000 A 
ATOM      4  C   UNL     1       1.474   3.411  20.026  0.00  0.00    +0.000 A 
ATOM      5  C   UNL     1       2.741   3.398  19.405  0.00  0.00    +0.000 A 
ATOM      6  N   UNL     1       3.421   2.438  18.823  0.00  0.00    +0.000 NA
ATOM      7  N   UNL     1       4.610   2.978  18.395  0.00  0.00    +0.000 NA
ATOM      8  C   UNL     1       4.642   4.255  18.750  0.00  0.00    +0.000 A 
ATOM      9  N   UNL     1       3.448   4.585  19.358  0.00  0.00    +0.000 N 
ATOM     10  N   UNL     1       3.021   5.824  19.803  0.00  0.00    +0.000 NA
BRANCH   8  11
ATOM     11  C   UNL     1       5.746   5.182  18.539  0.00  0.00    +0.000 A 
ATOM     12  C   UNL     1       5.734   6.103  17.497  0.00  0.00    +0.000 A 
ATOM     13  C   UNL     1       6.825   6.956  17.354  0.00  0.00    +0.000 A 
ATOM     14  C   UNL     1       7.892   6.857  18.242  0.00  0.00    +0.000 A 
ATOM     15  C   UNL     1       7.827   5.901  19.240  0.00  0.00    +0.000 A 
ATOM     16  N   UNL     1       6.784   5.067  19.404  0.00  0.00    +0.000 NA
ENDBRANCH   8  11
ENDBRANCH   1   2
BRANCH   1  17
ATOM     17  C   UNL     1       1.889   8.610  20.187  0.00  0.00    +0.000 C 
BRANCH  17  19
ATOM     18  O   UNL     1       0.863   9.716  18.277  0.00  0.00    +0.000 OA
ATOM     19  C   UNL     1       0.810   9.464  19.486  0.00  0.00    +0.000 C 
ATOM     20  N   UNL     1      -0.236   9.976  20.242  0.00  0.00    +0.000 N 
ATOM     21  C   UNL     1      -0.461   9.787  21.683  0.00  0.00    +0.000 C 
ATOM     22  C   UNL     1      -0.663  11.137  22.408  0.00  0.00    +0.000 C 
ATOM     23  N   UNL     1      -1.660  11.972  21.712  0.00  0.00    +0.000 N 
ATOM     24  C   UNL     1      -1.403  12.179  20.276  0.00  0.00    +0.000 C 
ATOM     25  C   UNL     1      -1.252  10.813  19.580  0.00  0.00    +0.000 C 
BRANCH  23  26
ATOM     26  C   UNL     1      -2.792  12.467  22.326  0.00  0.00    +0.000 A 
ATOM     27  C   UNL     1      -3.086  12.189  23.672  0.00  0.00    +0.000 A 
ATOM     28  C   UNL     1      -4.242  12.676  24.296  0.00  0.00    +0.000 A 
ATOM     29  C   UNL     1      -5.137  13.464  23.584  0.00  0.00    +0.000 A 
ATOM     30  C   UNL     1      -4.869  13.768  22.255  0.00  0.00    +0.000 A 
ATOM     31  C   UNL     1      -3.713  13.274  21.641  0.00  0.00    +0.000 A 
ENDBRANCH  23  26
ENDBRANCH  17  19
ENDBRANCH   1  17
TORSDOF 5
ENDMDL
MODEL 5
REMARK VINA RESULT:      -8.2      4.527     10.080
REMARK  Name = 
REMARK  5 active torsions:
REMARK  status: ('A' for Active; 'I' for Inactive)
REMARK    1  A    between atoms: C_2  and  C_3
REMARK    2  A    between atoms: C_3  and  S_4
REMARK    3  A    between atoms: S_4  and  C_5
REMARK    4  A    between atoms: C_11  and  C_12
REMARK    5  A    between atoms: N_23  and  C_24
REMARK                            x       y       z     vdW  Elec       q    Type
REMARK                         _______ _______ _______ _____ _____    ______ ____
ROOT
ATOM      1  S   UNL     1       0.739  13.617  20.084  0.00  0.00    +0.000 S 
ENDROOT
BRANCH   1   2
ATOM      2  C   UNL     1      -0.963  13.263  20.149  0.00  0.00    +0.000 A 
ATOM      3  C   UNL     1      -1.588  13.789  21.394  0.00  0.00    +0.000 A 
ATOM      4  C   UNL     1      -2.903  13.599  21.557  0.00  0.00    +0.000 A 
ATOM      5  C   UNL     1      -3.621  12.909  20.558  0.00  0.00    +0.000 A 
ATOM      6  N   UNL     1      -4.895  12.614  20.441  0.00  0.00    +0.000 NA
ATOM      7  N   UNL     1      -5.048  11.915  19.267  0.00  0.00    +0.000 NA
ATOM      8  C   UNL     1      -3.856  11.776  18.704  0.00  0.00    +0.000 A 
ATOM      9  N   UNL     1      -2.916  12.436  19.467  0.00  0.00    +0.000 N 
ATOM     10  N   UNL     1      -1.569  12.620  19.206  0.00  0.00    +0.000 NA
BRANCH   8  11
ATOM     11  C   UNL     1      -3.563  11.052  17.474  0.00  0.00    +0.000 A 
ATOM     12  C   UNL     1      -2.727   9.941  17.465  0.00  0.00    +0.000 A 
ATOM     13  C   UNL     1      -2.490   9.300  16.252  0.00  0.00    +0.000 A 
ATOM     14  C   UNL     1      -3.081   9.790  15.092  0.00  0.00    +0.000 A 
ATOM     15  C   UNL     1      -3.887  10.911  15.191  0.00  0.00    +0.000 A 
ATOM     16  N   UNL     1      -4.136  11.547  16.350  0.00  0.00    +0.000 NA
ENDBRANCH   8  11
ENDBRANCH   1   2
BRANCH   1  17
ATOM     17  C   UNL     1       1.539  12.052  19.581  0.00  0.00    +0.000 C 
BRANCH  17  19
ATOM     18  O   UNL     1       0.932  11.188  21.774  0.00  0.00    +0.000 OA
ATOM     19  C   UNL     1       1.155  10.942  20.584  0.00  0.00    +0.000 C 
ATOM     20  N   UNL     1       1.077   9.631  20.134  0.00  0.00    +0.000 N 
ATOM     21  C   UNL     1       1.310   9.150  18.764  0.00  0.00    +0.000 C 
ATOM     22  C   UNL     1       2.334   7.992  18.736  0.00  0.00    +0.000 C 
ATOM     23  N   UNL     1       1.993   6.954  19.726  0.00  0.00    +0.000 N 
ATOM     24  C   UNL     1       1.795   7.447  21.100  0.00  0.00    +0.000 C 
ATOM     25  C   UNL     1       0.736   8.566  21.095  0.00  0.00    +0.000 C 
BRANCH  23  26
ATOM     26  C   UNL     1       1.797   5.629  19.394  0.00  0.00    +0.000 A 
ATOM     27  C   UNL     1       2.137   5.124  18.127  0.00  0.00    +0.000 A 
ATOM     28  C   UNL     1       1.926   3.784  17.780  0.00  0.00    +0.000 A 
ATOM     29  C   UNL     1       1.370   2.906  18.702  0.00  0.00    +0.000 A 
ATOM     30  C   UNL     1       1.036   3.370  19.968  0.00  0.00    +0.000 A 
ATOM     31  C   UNL     1       1.248   4.712  20.303  0.00  0.00    +0.000 A 
ENDBRANCH  23  26
ENDBRANCH  17  19
ENDBRANCH   1  17
TORSDOF 5
ENDMDL
MODEL 6
REMARK VINA RESULT:      -8.1      2.649      3.503
REMARK  Name = 
REMARK  5 active torsions:
REMARK  status: ('A' for Active; 'I' for Inactive)
REMARK    1  A    between atoms: C_2  and  C_3
REMARK    2  A    between atoms: C_3  and  S_4
REMARK    3  A    between atoms: S_4  and  C_5
REMARK    4  A    between atoms: C_11  and  C_12
REMARK    5  A    between atoms: N_23  and  C_24
REMARK                            x       y       z     vdW  Elec       q    Type
REMARK                         _______ _______ _______ _____ _____    ______ ____
ROOT
ATOM      1  S   UNL     1       1.182   6.521  20.986  0.00  0.00    +0.000 S 
ENDROOT
BRANCH   1   2
ATOM      2  C   UNL     1       1.954   5.386  19.918  0.00  0.00    +0.000 A 
ATOM      3  C   UNL     1       1.091   4.201  19.657  0.00  0.00    +0.000 A 
ATOM      4  C   UNL     1       1.563   3.260  18.830  0.00  0.00    +0.000 A 
ATOM      5  C   UNL     1       2.843   3.429  18.263  0.00  0.00    +0.000 A 
ATOM      6  N   UNL     1       3.529   2.700  17.414  0.00  0.00    +0.000 NA
ATOM      7  N   UNL     1       4.732   3.332  17.208  0.00  0.00    +0.000 NA
ATOM      8  C   UNL     1       4.766   4.424  17.959  0.00  0.00    +0.000 A 
ATOM      9  N   UNL     1       3.560   4.557  18.617  0.00  0.00    +0.000 N 
ATOM     10  N   UNL     1       3.133   5.591  19.432  0.00  0.00    +0.000 NA
BRANCH   8  11
ATOM     11  C   UNL     1       5.881   5.353  18.081  0.00  0.00    +0.000 A 
ATOM     12  C   UNL     1       6.004   6.457  17.245  0.00  0.00    +0.000 A 
ATOM     13  C   UNL     1       7.098   7.301  17.418  0.00  0.00    +0.000 A 
ATOM     14  C   UNL     1       8.035   7.012  18.405  0.00  0.00    +0.000 A 
ATOM     15  C   UNL     1       7.842   5.883  19.181  0.00  0.00    +0.000 A 
ATOM     16  N   UNL     1       6.793   5.053  19.039  0.00  0.00    +0.000 NA
ENDBRANCH   8  11
ENDBRANCH   1   2
BRANCH   1  17
ATOM     17  C   UNL     1       1.995   8.124  20.657  0.00  0.00    +0.000 C 
BRANCH  17  19
ATOM     18  O   UNL     1       1.218   9.246  18.642  0.00  0.00    +0.000 OA
ATOM     19  C   UNL     1       1.036   9.021  19.843  0.00  0.00    +0.000 C 
ATOM     20  N   UNL     1      -0.048   9.601  20.488  0.00  0.00    +0.000 N 
ATOM     21  C   UNL     1      -0.420   9.452  21.902  0.00  0.00    +0.000 C 
ATOM     22  C   UNL     1      -0.618  10.825  22.585  0.00  0.00    +0.000 C 
ATOM     23  N   UNL     1      -1.496  11.697  21.785  0.00  0.00    +0.000 N 
ATOM     24  C   UNL     1      -1.092  11.863  20.378  0.00  0.00    +0.000 C 
ATOM     25  C   UNL     1      -0.950  10.478  19.719  0.00  0.00    +0.000 C 
BRANCH  23  26
ATOM     26  C   UNL     1      -2.653  12.263  22.280  0.00  0.00    +0.000 A 
ATOM     27  C   UNL     1      -3.560  12.942  21.448  0.00  0.00    +0.000 A 
ATOM     28  C   UNL     1      -4.728  13.531  21.947  0.00  0.00    +0.000 A 
ATOM     29  C   UNL     1      -5.024  13.450  23.302  0.00  0.00    +0.000 A 
ATOM     30  C   UNL     1      -4.155  12.774  24.150  0.00  0.00    +0.000 A 
ATOM     31  C   UNL     1      -2.989  12.191  23.640  0.00  0.00    +0.000 A 
ENDBRANCH  23  26
ENDBRANCH  17  19
ENDBRANCH   1  17
TORSDOF 5
ENDMDL
MODEL 7
REMARK VINA RESULT:      -8.1      3.105      4.271
REMARK  Name = 
REMARK  5 active torsions:
REMARK  status: ('A' for Active; 'I' for Inactive)
REMARK    1  A    between atoms: C_2  and  C_3
REMARK    2  A    between atoms: C_3  and  S_4
REMARK    3  A    between atoms: S_4  and  C_5
REMARK    4  A    between atoms: C_11  and  C_12
REMARK    5  A    between atoms: N_23  and  C_24
REMARK                            x       y       z     vdW  Elec       q    Type
REMARK                         _______ _______ _______ _____ _____    ______ ____
ROOT
ATOM      1  S   UNL     1       1.875   8.417  19.026  0.00  0.00    +0.000 S 
ENDROOT
BRANCH   1   2
ATOM      2  C   UNL     1       2.325   6.789  19.440  0.00  0.00    +0.000 A 
ATOM      3  C   UNL     1       1.551   6.284  20.608  0.00  0.00    +0.000 A 
ATOM      4  C   UNL     1       1.789   5.031  21.016  0.00  0.00    +0.000 A 
ATOM      5  C   UNL     1       2.758   4.265  20.335  0.00  0.00    +0.000 A 
ATOM      6  N   UNL     1       3.166   3.027  20.493  0.00  0.00    +0.000 NA
ATOM      7  N   UNL     1       4.145   2.794  19.557  0.00  0.00    +0.000 NA
ATOM      8  C   UNL     1       4.334   3.908  18.862  0.00  0.00    +0.000 A 
ATOM      9  N   UNL     1       3.436   4.864  19.290  0.00  0.00    +0.000 N 
ATOM     10  N   UNL     1       3.225   6.135  18.784  0.00  0.00    +0.000 NA
BRANCH   8  11
ATOM     11  C   UNL     1       5.319   4.110  17.808  0.00  0.00    +0.000 A 
ATOM     12  C   UNL     1       4.986   3.980  16.465  0.00  0.00    +0.000 A 
ATOM     13  C   UNL     1       5.980   4.186  15.513  0.00  0.00    +0.000 A 
ATOM     14  C   UNL     1       7.270   4.502  15.927  0.00  0.00    +0.000 A 
ATOM     15  C   UNL     1       7.516   4.596  17.285  0.00  0.00    +0.000 A 
ATOM     16  N   UNL     1       6.574   4.406  18.227  0.00  0.00    +0.000 NA
ENDBRANCH   8  11
ENDBRANCH   1   2
BRANCH   1  17
ATOM     17  C   UNL     1       1.182   9.131  20.560  0.00  0.00    +0.000 C 
BRANCH  17  19
ATOM     18  O   UNL     1      -1.124   9.618  19.954  0.00  0.00    +0.000 OA
ATOM     19  C   UNL     1       0.003  10.061  20.198  0.00  0.00    +0.000 C 
ATOM     20  N   UNL     1       0.226  11.430  20.131  0.00  0.00    +0.000 N 
ATOM     21  C   UNL     1       1.492  12.134  20.384  0.00  0.00    +0.000 C 
ATOM     22  C   UNL     1       1.861  13.077  19.215  0.00  0.00    +0.000 C 
ATOM     23  N   UNL     1       0.721  13.932  18.840  0.00  0.00    +0.000 N 
ATOM     24  C   UNL     1      -0.532  13.210  18.558  0.00  0.00    +0.000 C 
ATOM     25  C   UNL     1      -0.891  12.317  19.761  0.00  0.00    +0.000 C 
BRANCH  23  26
ATOM     26  C   UNL     1       0.784  15.311  18.822  0.00  0.00    +0.000 A 
ATOM     27  C   UNL     1       2.003  15.998  18.948  0.00  0.00    +0.000 A 
ATOM     28  C   UNL     1       2.071  17.397  18.946  0.00  0.00    +0.000 A 
ATOM     29  C   UNL     1       0.912  18.149  18.813  0.00  0.00    +0.000 A 
ATOM     30  C   UNL     1      -0.309  17.501  18.673  0.00  0.00    +0.000 A 
ATOM     31  C   UNL     1      -0.366  16.102  18.679  0.00  0.00    +0.000 A 
ENDBRANCH  23  26
ENDBRANCH  17  19
ENDBRANCH   1  17
TORSDOF 5
ENDMDL
MODEL 8
REMARK VINA RESULT:      -8.1      1.932      3.112
REMARK  Name = 
REMARK  5 active torsions:
REMARK  status: ('A' for Active; 'I' for Inactive)
REMARK    1  A    between atoms: C_2  and  C_3
REMARK    2  A    between atoms: C_3  and  S_4
REMARK    3  A    between atoms: S_4  and  C_5
REMARK    4  A    between atoms: C_11  and  C_12
REMARK    5  A    between atoms: N_23  and  C_24
REMARK                            x       y       z     vdW  Elec       q    Type
REMARK                         _______ _______ _______ _____ _____    ______ ____
ROOT
ATOM      1  S   UNL     1       2.096   9.126  18.238  0.00  0.00    +0.000 S 
ENDROOT
BRANCH   1   2
ATOM      2  C   UNL     1       2.446   7.534  18.847  0.00  0.00    +0.000 A 
ATOM      3  C   UNL     1       1.696   7.248  20.102  0.00  0.00    +0.000 A 
ATOM      4  C   UNL     1       1.863   6.044  20.663  0.00  0.00    +0.000 A 
ATOM      5  C   UNL     1       2.737   5.122  20.052  0.00  0.00    +0.000 A 
ATOM      6  N   UNL     1       3.060   3.886  20.357  0.00  0.00    +0.000 NA
ATOM      7  N   UNL     1       3.972   3.457  19.422  0.00  0.00    +0.000 NA
ATOM      8  C   UNL     1       4.206   4.453  18.578  0.00  0.00    +0.000 A 
ATOM      9  N   UNL     1       3.404   5.525  18.910  0.00  0.00    +0.000 N 
ATOM     10  N   UNL     1       3.262   6.732  18.248  0.00  0.00    +0.000 NA
BRANCH   8  11
ATOM     11  C   UNL     1       5.150   4.438  17.468  0.00  0.00    +0.000 A 
ATOM     12  C   UNL     1       4.740   4.165  16.168  0.00  0.00    +0.000 A 
ATOM     13  C   UNL     1       5.698   4.166  15.157  0.00  0.00    +0.000 A 
ATOM     14  C   UNL     1       7.027   4.427  15.474  0.00  0.00    +0.000 A 
ATOM     15  C   UNL     1       7.348   4.673  16.797  0.00  0.00    +0.000 A 
ATOM     16  N   UNL     1       6.443   4.682  17.793  0.00  0.00    +0.000 NA
ENDBRANCH   8  11
ENDBRANCH   1   2
BRANCH   1  17
ATOM     17  C   UNL     1       0.700   9.733  19.250  0.00  0.00    +0.000 C 
BRANCH  17  19
ATOM     18  O   UNL     1       1.608  11.927  18.716  0.00  0.00    +0.000 OA
ATOM     19  C   UNL     1       0.796  11.270  19.375  0.00  0.00    +0.000 C 
ATOM     20  N   UNL     1      -0.044  11.923  20.267  0.00  0.00    +0.000 N 
ATOM     21  C   UNL     1      -1.064  11.311  21.133  0.00  0.00    +0.000 C 
ATOM     22  C   UNL     1      -0.890  11.743  22.607  0.00  0.00    +0.000 C 
ATOM     23  N   UNL     1      -0.752  13.206  22.722  0.00  0.00    +0.000 N 
ATOM     24  C   UNL     1       0.295  13.800  21.873  0.00  0.00    +0.000 C 
ATOM     25  C   UNL     1       0.063  13.386  20.407  0.00  0.00    +0.000 C 
BRANCH  23  26
ATOM     26  C   UNL     1      -1.582  13.984  23.503  0.00  0.00    +0.000 A 
ATOM     27  C   UNL     1      -2.979  13.844  23.466  0.00  0.00    +0.000 A 
ATOM     28  C   UNL     1      -3.827  14.642  24.245  0.00  0.00    +0.000 A 
ATOM     29  C   UNL     1      -3.292  15.604  25.092  0.00  0.00    +0.000 A 
ATOM     30  C   UNL     1      -1.913  15.759  25.163  0.00  0.00    +0.000 A 
ATOM     31  C   UNL     1      -1.076  14.958  24.377  0.00  0.00    +0.000 A 
ENDBRANCH  23  26
ENDBRANCH  17  19
ENDBRANCH   1  17
TORSDOF 5
ENDMDL
MODEL 9
REMARK VINA RESULT:      -8.0      3.238      4.537
REMARK  Name = 
REMARK  5 active torsions:
REMARK  status: ('A' for Active; 'I' for Inactive)
REMARK    1  A    between atoms: C_2  and  C_3
REMARK    2  A    between atoms: C_3  and  S_4
REMARK    3  A    between atoms: S_4  and  C_5
REMARK    4  A    between atoms: C_11  and  C_12
REMARK    5  A    between atoms: N_23  and  C_24
REMARK                            x       y       z     vdW  Elec       q    Type
REMARK                         _______ _______ _______ _____ _____    ______ ____
ROOT
ATOM      1  S   UNL     1       1.946   8.805  18.799  0.00  0.00    +0.000 S 
ENDROOT
BRANCH   1   2
ATOM      2  C   UNL     1       2.312   7.177  19.289  0.00  0.00    +0.000 A 
ATOM      3  C   UNL     1       1.501   6.762  20.468  0.00  0.00    +0.000 A 
ATOM      4  C   UNL     1       1.674   5.518  20.932  0.00  0.00    +0.000 A 
ATOM      5  C   UNL     1       2.611   4.677  20.298  0.00  0.00    +0.000 A 
ATOM      6  N   UNL     1       2.955   3.428  20.514  0.00  0.00    +0.000 NA
ATOM      7  N   UNL     1       3.932   3.107  19.601  0.00  0.00    +0.000 NA
ATOM      8  C   UNL     1       4.182   4.179  18.862  0.00  0.00    +0.000 A 
ATOM      9  N   UNL     1       3.329   5.196  19.236  0.00  0.00    +0.000 N 
ATOM     10  N   UNL     1       3.186   6.452  18.673  0.00  0.00    +0.000 NA
BRANCH   8  11
ATOM     11  C   UNL     1       5.187   4.287  17.812  0.00  0.00    +0.000 A 
ATOM     12  C   UNL     1       6.499   4.652  18.095  0.00  0.00    +0.000 A 
ATOM     13  C   UNL     1       7.405   4.737  17.042  0.00  0.00    +0.000 A 
ATOM     14  C   UNL     1       6.975   4.469  15.746  0.00  0.00    +0.000 A 
ATOM     15  C   UNL     1       5.648   4.128  15.554  0.00  0.00    +0.000 A 
ATOM     16  N   UNL     1       4.752   4.034  16.553  0.00  0.00    +0.000 NA
ENDBRANCH   8  11
ENDBRANCH   1   2
BRANCH   1  17
ATOM     17  C   UNL     1       0.553   9.328  19.861  0.00  0.00    +0.000 C 
BRANCH  17  19
ATOM     18  O   UNL     1       1.242  10.473  21.895  0.00  0.00    +0.000 OA
ATOM     19  C   UNL     1       0.982  10.558  20.690  0.00  0.00    +0.000 C 
ATOM     20  N   UNL     1       1.057  11.795  20.064  0.00  0.00    +0.000 N 
ATOM     21  C   UNL     1       0.783  12.088  18.650  0.00  0.00    +0.000 C 
ATOM     22  C   UNL     1      -0.230  13.246  18.496  0.00  0.00    +0.000 C 
ATOM     23  N   UNL     1       0.154  14.404  19.324  0.00  0.00    +0.000 N 
ATOM     24  C   UNL     1       0.395  14.100  20.745  0.00  0.00    +0.000 C 
ATOM     25  C   UNL     1       1.441  12.975  20.859  0.00  0.00    +0.000 C 
BRANCH  23  26
ATOM     26  C   UNL     1       0.352  15.669  18.808  0.00  0.00    +0.000 A 
ATOM     27  C   UNL     1       1.636  16.151  18.501  0.00  0.00    +0.000 A 
ATOM     28  C   UNL     1       1.843  17.439  17.992  0.00  0.00    +0.000 A 
ATOM     29  C   UNL     1       0.762  18.283  17.772  0.00  0.00    +0.000 A 
ATOM     30  C   UNL     1      -0.522  17.832  18.052  0.00  0.00    +0.000 A 
ATOM     31  C   UNL     1      -0.717  16.544  18.563  0.00  0.00    +0.000 A 
ENDBRANCH  23  26
ENDBRANCH  17  19
ENDBRANCH   1  17
TORSDOF 5
ENDMDL
