MODEL 1
REMARK VINA RESULT:      -7.6      0.000      0.000
REMARK  Name = 
REMARK  9 active torsions:
REMARK  status: ('A' for Active; 'I' for Inactive)
REMARK    1  A    between atoms: C_1  and  O_2
REMARK    2  A    between atoms: O_2  and  C_3
REMARK    3  A    between atoms: C_3  and  C_5
REMARK    4  A    between atoms: C_8  and  O_9
REMARK    5  A    between atoms: O_9  and  C_10
REMARK    6  A    between atoms: C_10  and  C_11
REMARK    7  A    between atoms: C_11  and  O_12
REMARK    8  A    between atoms: C_11  and  C_13
REMARK    9  A    between atoms: C_13  and  N_14
REMARK                            x       y       z     vdW  Elec       q    Type
REMARK                         _______ _______ _______ _____ _____    ______ ____
ROOT
ATOM      1  C   UNL     1       5.525   4.584  17.459  0.00  0.00    +0.000 C 
ENDROOT
BRANCH   1   2
ATOM      2  O   UNL     1       6.466   4.043  18.413  0.00  0.00    +0.000 OA
ATOM      3  H   UNL     1       7.130   3.526  17.920  0.00  0.00    +0.000 HD
ENDBRANCH   1   2
BRANCH   1   4
ATOM      4  C   UNL     1       5.043   6.007  17.940  0.00  0.00    +0.000 C 
BRANCH   4   5
ATOM      5  O   UNL     1       3.772   6.416  17.406  0.00  0.00    +0.000 OA
BRANCH   5   9
ATOM      6  C   UNL     1       1.290   8.996  19.678  0.00  0.00    +0.000 A 
ATOM      7  C   UNL     1       1.692   9.278  18.368  0.00  0.00    +0.000 A 
ATOM      8  C   UNL     1       2.517   8.389  17.654  0.00  0.00    +0.000 A 
ATOM      9  C   UNL     1       2.982   7.203  18.229  0.00  0.00    +0.000 A 
ATOM     10  C   UNL     1       2.569   6.909  19.535  0.00  0.00    +0.000 A 
ATOM     11  C   UNL     1       1.728   7.796  20.257  0.00  0.00    +0.000 A 
BRANCH   6  12
ATOM     12  C   UNL     1       0.400   9.983  20.371  0.00  0.00    +0.000 C 
ATOM     13  O   UNL     1      -0.808  10.037  20.182  0.00  0.00    +0.000 OA
BRANCH  12  15
ATOM     14  C   UNL     1       1.221  12.150  20.779  0.00  0.00    +0.000 C 
ATOM     15  O   UNL     1       1.089  10.788  21.225  0.00  0.00    +0.000 OA
ENDBRANCH  12  15
ENDBRANCH   6  12
ENDBRANCH   5   9
ENDBRANCH   4   5
ENDBRANCH   1   4
BRANCH   1  16
ATOM     16  C   UNL     1       4.514   3.439  17.067  0.00  0.00    +0.000 C 
BRANCH  16  17
ATOM     17  N   UNL     1       3.246   3.427  17.792  0.00  0.00    +0.000 N 
ATOM     18  N   UNL     1       2.151   3.598  17.033  0.00  0.00    +0.000 NA
ATOM     19  N   UNL     1       1.082   3.553  17.788  0.00  0.00    +0.000 NA
ATOM     20  C   UNL     1       1.492   3.301  19.051  0.00  0.00    +0.000 A 
ATOM     21  C   UNL     1       0.704   3.136  20.200  0.00  0.00    +0.000 A 
ATOM     22  C   UNL     1       1.319   2.856  21.411  0.00  0.00    +0.000 A 
ATOM     23  C   UNL     1       2.710   2.747  21.473  0.00  0.00    +0.000 A 
ATOM     24  C   UNL     1       3.535   2.913  20.332  0.00  0.00    +0.000 A 
ATOM     25  C   UNL     1       2.889   3.189  19.114  0.00  0.00    +0.000 A 
ENDBRANCH  16  17
ENDBRANCH   1  16
TORSDOF 8
ENDMDL
MODEL 2
REMARK VINA RESULT:      -7.5      1.192      1.851
REMARK  Name = 
REMARK  9 active torsions:
REMARK  status: ('A' for Active; 'I' for Inactive)
REMARK    1  A    between atoms: C_1  and  O_2
REMARK    2  A    between atoms: O_2  and  C_3
REMARK    3  A    between atoms: C_3  and  C_5
REMARK    4  A    between atoms: C_8  and  O_9
REMARK    5  A    between atoms: O_9  and  C_10
REMARK    6  A    between atoms: C_10  and  C_11
REMARK    7  A    between atoms: C_11  and  O_12
REMARK    8  A    between atoms: C_11  and  C_13
REMARK    9  A    between atoms: C_13  and  N_14
REMARK                            x       y       z     vdW  Elec       q    Type
REMARK                         _______ _______ _______ _____ _____    ______ ____
ROOT
ATOM      1  C   UNL     1       5.485   4.782  16.929  0.00  0.00    +0.000 C 
ENDROOT
BRANCH   1   2
ATOM      2  O   UNL     1       6.757   4.307  17.425  0.00  0.00    +0.000 OA
ATOM      3  H   UNL     1       6.589   3.513  17.968  0.00  0.00    +0.000 HD
ENDBRANCH   1   2
BRANCH   1   4
ATOM      4  C   UNL     1       5.213   6.236  17.479  0.00  0.00    +0.000 C 
BRANCH   4   5
ATOM      5  O   UNL     1       3.963   6.807  17.058  0.00  0.00    +0.000 OA
BRANCH   5   9
ATOM      6  C   UNL     1       1.346   8.524  19.918  0.00  0.00    +0.000 A 
ATOM      7  C   UNL     1       1.601   9.101  18.669  0.00  0.00    +0.000 A 
ATOM      8  C   UNL     1       2.478   8.492  17.752  0.00  0.00    +0.000 A 
ATOM      9  C   UNL     1       3.143   7.301  18.059  0.00  0.00    +0.000 A 
ATOM     10  C   UNL     1       2.878   6.712  19.302  0.00  0.00    +0.000 A 
ATOM     11  C   UNL     1       1.986   7.315  20.227  0.00  0.00    +0.000 A 
BRANCH   6  12
ATOM     12  C   UNL     1       0.389   9.223  20.837  0.00  0.00    +0.000 C 
ATOM     13  O   UNL     1      -0.406  10.069  20.450  0.00  0.00    +0.000 OA
BRANCH  12  15
ATOM     14  C   UNL     1      -0.086   9.679  23.095  0.00  0.00    +0.000 C 
ATOM     15  O   UNL     1       0.509   8.801  22.124  0.00  0.00    +0.000 OA
ENDBRANCH  12  15
ENDBRANCH   6  12
ENDBRANCH   5   9
ENDBRANCH   4   5
ENDBRANCH   1   4
BRANCH   1  16
ATOM     16  C   UNL     1       4.435   3.615  17.076  0.00  0.00    +0.000 C 
BRANCH  16  17
ATOM     17  N   UNL     1       4.095   3.227  18.444  0.00  0.00    +0.000 N 
ATOM     18  N   UNL     1       5.139   2.881  19.215  0.00  0.00    +0.000 NA
ATOM     19  N   UNL     1       4.713   2.570  20.414  0.00  0.00    +0.000 NA
ATOM     20  C   UNL     1       3.375   2.764  20.429  0.00  0.00    +0.000 A 
ATOM     21  C   UNL     1       2.488   2.590  21.502  0.00  0.00    +0.000 A 
ATOM     22  C   UNL     1       1.141   2.868  21.320  0.00  0.00    +0.000 A 
ATOM     23  C   UNL     1       0.686   3.310  20.077  0.00  0.00    +0.000 A 
ATOM     24  C   UNL     1       1.556   3.491  18.971  0.00  0.00    +0.000 A 
ATOM     25  C   UNL     1       2.917   3.210  19.181  0.00  0.00    +0.000 A 
ENDBRANCH  16  17
ENDBRANCH   1  16
TORSDOF 8
ENDMDL
MODEL 3
REMARK VINA RESULT:      -7.4      1.312      2.163
REMARK  Name = 
REMARK  9 active torsions:
REMARK  status: ('A' for Active; 'I' for Inactive)
REMARK    1  A    between atoms: C_1  and  O_2
REMARK    2  A    between atoms: O_2  and  C_3
REMARK    3  A    between atoms: C_3  and  C_5
REMARK    4  A    between atoms: C_8  and  O_9
REMARK    5  A    between atoms: O_9  and  C_10
REMARK    6  A    between atoms: C_10  and  C_11
REMARK    7  A    between atoms: C_11  and  O_12
REMARK    8  A    between atoms: C_11  and  C_13
REMARK    9  A    between atoms: C_13  and  N_14
REMARK                            x       y       z     vdW  Elec       q    Type
REMARK                         _______ _______ _______ _____ _____    ______ ____
ROOT
ATOM      1  C   UNL     1       5.543   5.485  17.816  0.00  0.00    +0.000 C 
ENDROOT
BRANCH   1   2
ATOM      2  O   UNL     1       6.202   5.556  19.100  0.00  0.00    +0.000 OA
ATOM      3  H   UNL     1       7.060   6.002  18.972  0.00  0.00    +0.000 HD
ENDBRANCH   1   2
BRANCH   1   4
ATOM      4  C   UNL     1       4.690   6.792  17.586  0.00  0.00    +0.000 C 
BRANCH   4   5
ATOM      5  O   UNL     1       3.268   6.581  17.581  0.00  0.00    +0.000 OA
BRANCH   5   9
ATOM      6  C   UNL     1       1.024   9.254  19.990  0.00  0.00    +0.000 A 
ATOM      7  C   UNL     1       1.600   8.078  20.482  0.00  0.00    +0.000 A 
ATOM      8  C   UNL     1       2.337   7.222  19.642  0.00  0.00    +0.000 A 
ATOM      9  C   UNL     1       2.506   7.502  18.283  0.00  0.00    +0.000 A 
ATOM     10  C   UNL     1       1.945   8.687  17.789  0.00  0.00    +0.000 A 
ATOM     11  C   UNL     1       1.210   9.560  18.633  0.00  0.00    +0.000 A 
BRANCH   6  12
ATOM     12  C   UNL     1       0.264  10.124  20.946  0.00  0.00    +0.000 C 
ATOM     13  O   UNL     1      -0.752  10.729  20.630  0.00  0.00    +0.000 OA
BRANCH  12  15
ATOM     14  C   UNL     1       0.016   9.571  23.218  0.00  0.00    +0.000 C 
ATOM     15  O   UNL     1       0.830  10.148  22.182  0.00  0.00    +0.000 OA
ENDBRANCH  12  15
ENDBRANCH   6  12
ENDBRANCH   5   9
ENDBRANCH   4   5
ENDBRANCH   1   4
BRANCH   1  16
ATOM     16  C   UNL     1       4.931   4.040  17.659  0.00  0.00    +0.000 C 
BRANCH  16  17
ATOM     17  N   UNL     1       4.365   3.449  18.870  0.00  0.00    +0.000 N 
ATOM     18  N   UNL     1       5.256   2.871  19.693  0.00  0.00    +0.000 NA
ATOM     19  N   UNL     1       4.636   2.393  20.743  0.00  0.00    +0.000 NA
ATOM     20  C   UNL     1       3.328   2.710  20.618  0.00  0.00    +0.000 A 
ATOM     21  C   UNL     1       2.281   2.435  21.510  0.00  0.00    +0.000 A 
ATOM     22  C   UNL     1       1.000   2.871  21.209  0.00  0.00    +0.000 A 
ATOM     23  C   UNL     1       0.766   3.570  20.024  0.00  0.00    +0.000 A 
ATOM     24  C   UNL     1       1.801   3.860  19.098  0.00  0.00    +0.000 A 
ATOM     25  C   UNL     1       3.093   3.416  19.428  0.00  0.00    +0.000 A 
ENDBRANCH  16  17
ENDBRANCH   1  16
TORSDOF 8
ENDMDL
MODEL 4
REMARK VINA RESULT:      -7.3      3.085      6.150
REMARK  Name = 
REMARK  9 active torsions:
REMARK  status: ('A' for Active; 'I' for Inactive)
REMARK    1  A    between atoms: C_1  and  O_2
REMARK    2  A    between atoms: O_2  and  C_3
REMARK    3  A    between atoms: C_3  and  C_5
REMARK    4  A    between atoms: C_8  and  O_9
REMARK    5  A    between atoms: O_9  and  C_10
REMARK    6  A    between atoms: C_10  and  C_11
REMARK    7  A    between atoms: C_11  and  O_12
REMARK    8  A    between atoms: C_11  and  C_13
REMARK    9  A    between atoms: C_13  and  N_14
REMARK                            x       y       z     vdW  Elec       q    Type
REMARK                         _______ _______ _______ _____ _____    ______ ____
ROOT
ATOM      1  C   UNL     1       1.113   3.903  20.319  0.00  0.00    +0.000 C 
ENDROOT
BRANCH   1   2
ATOM      2  O   UNL     1       0.900   2.850  21.285  0.00  0.00    +0.000 OA
ATOM      3  H   UNL     1       0.946   1.997  20.813  0.00  0.00    +0.000 HD
ENDBRANCH   1   2
BRANCH   1   4
ATOM      4  C   UNL     1       1.487   3.272  18.922  0.00  0.00    +0.000 C 
BRANCH   4   5
ATOM      5  O   UNL     1       2.784   2.653  18.877  0.00  0.00    +0.000 OA
BRANCH   5   9
ATOM      6  C   UNL     1       5.806   5.081  17.160  0.00  0.00    +0.000 A 
ATOM      7  C   UNL     1       4.735   4.559  16.427  0.00  0.00    +0.000 A 
ATOM      8  C   UNL     1       3.755   3.757  17.043  0.00  0.00    +0.000 A 
ATOM      9  C   UNL     1       3.823   3.436  18.402  0.00  0.00    +0.000 A 
ATOM     10  C   UNL     1       4.886   3.970  19.142  0.00  0.00    +0.000 A 
ATOM     11  C   UNL     1       5.872   4.788  18.530  0.00  0.00    +0.000 A 
BRANCH   6  12
ATOM     12  C   UNL     1       6.804   5.937  16.440  0.00  0.00    +0.000 C 
ATOM     13  O   UNL     1       7.632   5.482  15.662  0.00  0.00    +0.000 OA
BRANCH  12  15
ATOM     14  C   UNL     1       7.717   7.780  17.581  0.00  0.00    +0.000 C 
ATOM     15  O   UNL     1       6.669   7.256  16.747  0.00  0.00    +0.000 OA
ENDBRANCH  12  15
ENDBRANCH   6  12
ENDBRANCH   5   9
ENDBRANCH   4   5
ENDBRANCH   1   4
BRANCH   1  16
ATOM     16  C   UNL     1       1.990   5.023  20.999  0.00  0.00    +0.000 C 
BRANCH  16  17
ATOM     17  N   UNL     1       1.697   6.398  20.603  0.00  0.00    +0.000 N 
ATOM     18  N   UNL     1       1.015   7.120  21.507  0.00  0.00    +0.000 NA
ATOM     19  N   UNL     1       0.826   8.332  21.048  0.00  0.00    +0.000 NA
ATOM     20  C   UNL     1       1.440   8.407  19.846  0.00  0.00    +0.000 A 
ATOM     21  C   UNL     1       1.534   9.514  18.990  0.00  0.00    +0.000 A 
ATOM     22  C   UNL     1       2.235   9.395  17.799  0.00  0.00    +0.000 A 
ATOM     23  C   UNL     1       2.831   8.178  17.465  0.00  0.00    +0.000 A 
ATOM     24  C   UNL     1       2.751   7.038  18.306  0.00  0.00    +0.000 A 
ATOM     25  C   UNL     1       2.042   7.185  19.511  0.00  0.00    +0.000 A 
ENDBRANCH  16  17
ENDBRANCH   1  16
TORSDOF 8
ENDMDL
MODEL 5
REMARK VINA RESULT:      -7.3      1.475      2.361
REMARK  Name = 
REMARK  9 active torsions:
REMARK  status: ('A' for Active; 'I' for Inactive)
REMARK    1  A    between atoms: C_1  and  O_2
REMARK    2  A    between atoms: O_2  and  C_3
REMARK    3  A    between atoms: C_3  and  C_5
REMARK    4  A    between atoms: C_8  and  O_9
REMARK    5  A    between atoms: O_9  and  C_10
REMARK    6  A    between atoms: C_10  and  C_11
REMARK    7  A    between atoms: C_11  and  O_12
REMARK    8  A    between atoms: C_11  and  C_13
REMARK    9  A    between atoms: C_13  and  N_14
REMARK                            x       y       z     vdW  Elec       q    Type
REMARK                         _______ _______ _______ _____ _____    ______ ____
ROOT
ATOM      1  C   UNL     1       4.811   6.176  16.919  0.00  0.00    +0.000 C 
ENDROOT
BRANCH   1   2
ATOM      2  O   UNL     1       6.244   6.197  17.105  0.00  0.00    +0.000 OA
ATOM      3  H   UNL     1       6.642   5.614  16.431  0.00  0.00    +0.000 HD
ENDBRANCH   1   2
BRANCH   1   4
ATOM      4  C   UNL     1       4.139   7.239  17.872  0.00  0.00    +0.000 C 
BRANCH   4   5
ATOM      5  O   UNL     1       2.704   7.296  17.782  0.00  0.00    +0.000 OA
BRANCH   5   9
ATOM      6  C   UNL     1       0.827   9.304  21.010  0.00  0.00    +0.000 A 
ATOM      7  C   UNL     1       1.431   8.049  21.136  0.00  0.00    +0.000 A 
ATOM      8  C   UNL     1       2.043   7.422  20.034  0.00  0.00    +0.000 A 
ATOM      9  C   UNL     1       2.054   8.018  18.769  0.00  0.00    +0.000 A 
ATOM     10  C   UNL     1       1.464   9.282  18.642  0.00  0.00    +0.000 A 
ATOM     11  C   UNL     1       0.855   9.925  19.752  0.00  0.00    +0.000 A 
BRANCH   6  12
ATOM     12  C   UNL     1       0.207   9.916  22.230  0.00  0.00    +0.000 C 
ATOM     13  O   UNL     1       0.636   9.725  23.360  0.00  0.00    +0.000 OA
BRANCH  12  15
ATOM     14  C   UNL     1      -0.789  12.035  22.457  0.00  0.00    +0.000 C 
ATOM     15  O   UNL     1      -0.863  10.700  21.927  0.00  0.00    +0.000 OA
ENDBRANCH  12  15
ENDBRANCH   6  12
ENDBRANCH   5   9
ENDBRANCH   4   5
ENDBRANCH   1   4
BRANCH   1  16
ATOM     16  C   UNL     1       4.344   4.671  16.874  0.00  0.00    +0.000 C 
BRANCH  16  17
ATOM     17  N   UNL     1       4.110   4.032  18.167  0.00  0.00    +0.000 N 
ATOM     18  N   UNL     1       5.216   3.626  18.812  0.00  0.00    +0.000 NA
ATOM     19  N   UNL     1       4.883   3.087  19.958  0.00  0.00    +0.000 NA
ATOM     20  C   UNL     1       3.540   3.190  20.075  0.00  0.00    +0.000 A 
ATOM     21  C   UNL     1       2.730   2.780  21.145  0.00  0.00    +0.000 A 
ATOM     22  C   UNL     1       1.363   2.999  21.085  0.00  0.00    +0.000 A 
ATOM     23  C   UNL     1       0.809   3.618  19.963  0.00  0.00    +0.000 A 
ATOM     24  C   UNL     1       1.598   4.041  18.863  0.00  0.00    +0.000 A 
ATOM     25  C   UNL     1       2.983   3.815  18.949  0.00  0.00    +0.000 A 
ENDBRANCH  16  17
ENDBRANCH   1  16
TORSDOF 8
ENDMDL
MODEL 6
REMARK VINA RESULT:      -7.3      1.543      2.058
REMARK  Name = 
REMARK  9 active torsions:
REMARK  status: ('A' for Active; 'I' for Inactive)
REMARK    1  A    between atoms: C_1  and  O_2
REMARK    2  A    between atoms: O_2  and  C_3
REMARK    3  A    between atoms: C_3  and  C_5
REMARK    4  A    between atoms: C_8  and  O_9
REMARK    5  A    between atoms: O_9  and  C_10
REMARK    6  A    between atoms: C_10  and  C_11
REMARK    7  A    between atoms: C_11  and  O_12
REMARK    8  A    between atoms: C_11  and  C_13
REMARK    9  A    between atoms: C_13  and  N_14
REMARK                            x       y       z     vdW  Elec       q    Type
REMARK                         _______ _______ _______ _____ _____    ______ ____
ROOT
ATOM      1  C   UNL     1       5.320   5.985  16.224  0.00  0.00    +0.000 C 
ENDROOT
BRANCH   1   2
ATOM      2  O   UNL     1       6.752   6.147  16.119  0.00  0.00    +0.000 OA
ATOM      3  H   UNL     1       7.017   5.893  15.214  0.00  0.00    +0.000 HD
ENDBRANCH   1   2
BRANCH   1   4
ATOM      4  C   UNL     1       4.746   7.021  17.267  0.00  0.00    +0.000 C 
BRANCH   4   5
ATOM      5  O   UNL     1       3.346   7.311  17.108  0.00  0.00    +0.000 OA
BRANCH   5   9
ATOM      6  C   UNL     1       1.110   8.656  20.450  0.00  0.00    +0.000 A 
ATOM      7  C   UNL     1       1.195   9.368  19.249  0.00  0.00    +0.000 A 
ATOM      8  C   UNL     1       1.951   8.879  18.167  0.00  0.00    +0.000 A 
ATOM      9  C   UNL     1       2.660   7.677  18.255  0.00  0.00    +0.000 A 
ATOM     10  C   UNL     1       2.564   6.954  19.451  0.00  0.00    +0.000 A 
ATOM     11  C   UNL     1       1.795   7.435  20.542  0.00  0.00    +0.000 A 
BRANCH   6  12
ATOM     12  C   UNL     1       0.276   9.232  21.555  0.00  0.00    +0.000 C 
ATOM     13  O   UNL     1      -0.654   8.626  22.070  0.00  0.00    +0.000 OA
BRANCH  12  15
ATOM     14  C   UNL     1      -0.395  11.397  22.181  0.00  0.00    +0.000 C 
ATOM     15  O   UNL     1       0.680  10.481  21.909  0.00  0.00    +0.000 OA
ENDBRANCH  12  15
ENDBRANCH   6  12
ENDBRANCH   5   9
ENDBRANCH   4   5
ENDBRANCH   1   4
BRANCH   1  16
ATOM     16  C   UNL     1       5.007   4.442  16.309  0.00  0.00    +0.000 C 
BRANCH  16  17
ATOM     17  N   UNL     1       4.564   3.947  17.612  0.00  0.00    +0.000 N 
ATOM     18  N   UNL     1       5.536   3.800  18.527  0.00  0.00    +0.000 NA
ATOM     19  N   UNL     1       5.019   3.369  19.650  0.00  0.00    +0.000 NA
ATOM     20  C   UNL     1       3.682   3.282  19.470  0.00  0.00    +0.000 A 
ATOM     21  C   UNL     1       2.706   2.895  20.401  0.00  0.00    +0.000 A 
ATOM     22  C   UNL     1       1.372   2.895  20.026  0.00  0.00    +0.000 A 
ATOM     23  C   UNL     1       1.016   3.274  18.730  0.00  0.00    +0.000 A 
ATOM     24  C   UNL     1       1.977   3.665  17.763  0.00  0.00    +0.000 A 
ATOM     25  C   UNL     1       3.323   3.665  18.169  0.00  0.00    +0.000 A 
ENDBRANCH  16  17
ENDBRANCH   1  16
TORSDOF 8
ENDMDL
MODEL 7
REMARK VINA RESULT:      -7.2      1.240      2.153
REMARK  Name = 
REMARK  9 active torsions:
REMARK  status: ('A' for Active; 'I' for Inactive)
REMARK    1  A    between atoms: C_1  and  O_2
REMARK    2  A    between atoms: O_2  and  C_3
REMARK    3  A    between atoms: C_3  and  C_5
REMARK    4  A    between atoms: C_8  and  O_9
REMARK    5  A    between atoms: O_9  and  C_10
REMARK    6  A    between atoms: C_10  and  C_11
REMARK    7  A    between atoms: C_11  and  O_12
REMARK    8  A    between atoms: C_11  and  C_13
REMARK    9  A    between atoms: C_13  and  N_14
REMARK                            x       y       z     vdW  Elec       q    Type
REMARK                         _______ _______ _______ _____ _____    ______ ____
ROOT
ATOM      1  C   UNL     1       5.304   5.588  17.587  0.00  0.00    +0.000 C 
ENDROOT
BRANCH   1   2
ATOM      2  O   UNL     1       6.035   5.688  18.829  0.00  0.00    +0.000 OA
ATOM      3  H   UNL     1       5.522   6.257  19.433  0.00  0.00    +0.000 HD
ENDBRANCH   1   2
BRANCH   1   4
ATOM      4  C   UNL     1       4.382   6.856  17.412  0.00  0.00    +0.000 C 
BRANCH   4   5
ATOM      5  O   UNL     1       2.993   6.627  17.704  0.00  0.00    +0.000 OA
BRANCH   5   9
ATOM      6  C   UNL     1       1.026   9.587  20.017  0.00  0.00    +0.000 A 
ATOM      7  C   UNL     1       1.459   8.366  20.544  0.00  0.00    +0.000 A 
ATOM      8  C   UNL     1       2.108   7.414  19.735  0.00  0.00    +0.000 A 
ATOM      9  C   UNL     1       2.328   7.642  18.373  0.00  0.00    +0.000 A 
ATOM     10  C   UNL     1       1.911   8.871  17.845  0.00  0.00    +0.000 A 
ATOM     11  C   UNL     1       1.265   9.839  18.657  0.00  0.00    +0.000 A 
BRANCH   6  12
ATOM     12  C   UNL     1       0.354  10.557  20.941  0.00  0.00    +0.000 C 
ATOM     13  O   UNL     1       0.721  10.740  22.094  0.00  0.00    +0.000 OA
BRANCH  12  15
ATOM     14  C   UNL     1      -0.567  12.633  20.328  0.00  0.00    +0.000 C 
ATOM     15  O   UNL     1      -0.687  11.200  20.346  0.00  0.00    +0.000 OA
ENDBRANCH  12  15
ENDBRANCH   6  12
ENDBRANCH   5   9
ENDBRANCH   4   5
ENDBRANCH   1   4
BRANCH   1  16
ATOM     16  C   UNL     1       4.747   4.117  17.464  0.00  0.00    +0.000 C 
BRANCH  16  17
ATOM     17  N   UNL     1       4.294   3.497  18.707  0.00  0.00    +0.000 N 
ATOM     18  N   UNL     1       5.255   2.900  19.430  0.00  0.00    +0.000 NA
ATOM     19  N   UNL     1       4.734   2.397  20.522  0.00  0.00    +0.000 NA
ATOM     20  C   UNL     1       3.421   2.717  20.525  0.00  0.00    +0.000 A 
ATOM     21  C   UNL     1       2.460   2.420  21.503  0.00  0.00    +0.000 A 
ATOM     22  C   UNL     1       1.157   2.863  21.332  0.00  0.00    +0.000 A 
ATOM     23  C   UNL     1       0.817   3.590  20.190  0.00  0.00    +0.000 A 
ATOM     24  C   UNL     1       1.762   3.902  19.180  0.00  0.00    +0.000 A 
ATOM     25  C   UNL     1       3.079   3.450  19.379  0.00  0.00    +0.000 A 
ENDBRANCH  16  17
ENDBRANCH   1  16
TORSDOF 8
ENDMDL
MODEL 8
REMARK VINA RESULT:      -7.2      0.897      1.035
REMARK  Name = 
REMARK  9 active torsions:
REMARK  status: ('A' for Active; 'I' for Inactive)
REMARK    1  A    between atoms: C_1  and  O_2
REMARK    2  A    between atoms: O_2  and  C_3
REMARK    3  A    between atoms: C_3  and  C_5
REMARK    4  A    between atoms: C_8  and  O_9
REMARK    5  A    between atoms: O_9  and  C_10
REMARK    6  A    between atoms: C_10  and  C_11
REMARK    7  A    between atoms: C_11  and  O_12
REMARK    8  A    between atoms: C_11  and  C_13
REMARK    9  A    between atoms: C_13  and  N_14
REMARK                            x       y       z     vdW  Elec       q    Type
REMARK                         _______ _______ _______ _____ _____    ______ ____
ROOT
ATOM      1  C   UNL     1       5.713   5.416  18.079  0.00  0.00    +0.000 C 
ENDROOT
BRANCH   1   2
ATOM      2  O   UNL     1       5.902   5.496  19.510  0.00  0.00    +0.000 OA
ATOM      3  H   UNL     1       6.054   4.592  19.843  0.00  0.00    +0.000 HD
ENDBRANCH   1   2
BRANCH   1   4
ATOM      4  C   UNL     1       4.977   6.715  17.569  0.00  0.00    +0.000 C 
BRANCH   4   5
ATOM      5  O   UNL     1       3.548   6.587  17.465  0.00  0.00    +0.000 OA
BRANCH   5   9
ATOM      6  C   UNL     1       1.163   8.977  20.029  0.00  0.00    +0.000 A 
ATOM      7  C   UNL     1       1.475   9.339  18.714  0.00  0.00    +0.000 A 
ATOM      8  C   UNL     1       2.271   8.511  17.901  0.00  0.00    +0.000 A 
ATOM      9  C   UNL     1       2.797   7.307  18.379  0.00  0.00    +0.000 A 
ATOM     10  C   UNL     1       2.474   6.933  19.690  0.00  0.00    +0.000 A 
ATOM     11  C   UNL     1       1.663   7.758  20.512  0.00  0.00    +0.000 A 
BRANCH   6  12
ATOM     12  C   UNL     1       0.299   9.903  20.832  0.00  0.00    +0.000 C 
ATOM     13  O   UNL     1      -0.682  10.466  20.366  0.00  0.00    +0.000 OA
BRANCH  12  15
ATOM     14  C   UNL     1      -0.287   9.800  23.107  0.00  0.00    +0.000 C 
ATOM     15  O   UNL     1       0.730  10.027  22.116  0.00  0.00    +0.000 OA
ENDBRANCH  12  15
ENDBRANCH   6  12
ENDBRANCH   5   9
ENDBRANCH   4   5
ENDBRANCH   1   4
BRANCH   1  16
ATOM     16  C   UNL     1       5.200   3.966  17.734  0.00  0.00    +0.000 C 
BRANCH  16  17
ATOM     17  N   UNL     1       3.805   3.683  18.066  0.00  0.00    +0.000 N 
ATOM     18  N   UNL     1       2.984   3.548  17.012  0.00  0.00    +0.000 NA
ATOM     19  N   UNL     1       1.772   3.283  17.431  0.00  0.00    +0.000 NA
ATOM     20  C   UNL     1       1.822   3.198  18.780  0.00  0.00    +0.000 A 
ATOM     21  C   UNL     1       0.778   2.903  19.668  0.00  0.00    +0.000 A 
ATOM     22  C   UNL     1       1.041   2.838  21.028  0.00  0.00    +0.000 A 
ATOM     23  C   UNL     1       2.336   3.070  21.495  0.00  0.00    +0.000 A 
ATOM     24  C   UNL     1       3.413   3.376  20.625  0.00  0.00    +0.000 A 
ATOM     25  C   UNL     1       3.124   3.429  19.250  0.00  0.00    +0.000 A 
ENDBRANCH  16  17
ENDBRANCH   1  16
TORSDOF 8
ENDMDL
MODEL 9
REMARK VINA RESULT:      -7.1      1.540      2.230
REMARK  Name = 
REMARK  9 active torsions:
REMARK  status: ('A' for Active; 'I' for Inactive)
REMARK    1  A    between atoms: C_1  and  O_2
REMARK    2  A    between atoms: O_2  and  C_3
REMARK    3  A    between atoms: C_3  and  C_5
REMARK    4  A    between atoms: C_8  and  O_9
REMARK    5  A    between atoms: O_9  and  C_10
REMARK    6  A    between atoms: C_10  and  C_11
REMARK    7  A    between atoms: C_11  and  O_12
REMARK    8  A    between atoms: C_11  and  C_13
REMARK    9  A    between atoms: C_13  and  N_14
REMARK                            x       y       z     vdW  Elec       q    Type
REMARK                         _______ _______ _______ _____ _____    ______ ____
ROOT
ATOM      1  C   UNL     1       4.874   5.808  17.121  0.00  0.00    +0.000 C 
ENDROOT
BRANCH   1   2
ATOM      2  O   UNL     1       6.044   5.858  17.967  0.00  0.00    +0.000 OA
ATOM      3  H   UNL     1       6.123   4.998  18.421  0.00  0.00    +0.000 HD
ENDBRANCH   1   2
BRANCH   1   4
ATOM      4  C   UNL     1       3.915   7.010  17.473  0.00  0.00    +0.000 C 
BRANCH   4   5
ATOM      5  O   UNL     1       3.138   6.821  18.669  0.00  0.00    +0.000 OA
BRANCH   5   9
ATOM      6  C   UNL     1       0.358   9.951  19.344  0.00  0.00    +0.000 A 
ATOM      7  C   UNL     1       0.882   9.650  18.082  0.00  0.00    +0.000 A 
ATOM      8  C   UNL     1       1.803   8.600  17.908  0.00  0.00    +0.000 A 
ATOM      9  C   UNL     1       2.245   7.831  18.988  0.00  0.00    +0.000 A 
ATOM     10  C   UNL     1       1.710   8.118  20.251  0.00  0.00    +0.000 A 
ATOM     11  C   UNL     1       0.773   9.168  20.432  0.00  0.00    +0.000 A 
BRANCH   6  12
ATOM     12  C   UNL     1      -0.629  11.074  19.450  0.00  0.00    +0.000 C 
ATOM     13  O   UNL     1      -1.085  11.459  20.518  0.00  0.00    +0.000 OA
BRANCH  12  15
ATOM     14  C   UNL     1      -2.350  11.668  17.960  0.00  0.00    +0.000 C 
ATOM     15  O   UNL     1      -0.939  11.605  18.236  0.00  0.00    +0.000 OA
ENDBRANCH  12  15
ENDBRANCH   6  12
ENDBRANCH   5   9
ENDBRANCH   4   5
ENDBRANCH   1   4
BRANCH   1  16
ATOM     16  C   UNL     1       4.370   4.314  17.071  0.00  0.00    +0.000 C 
BRANCH  16  17
ATOM     17  N   UNL     1       4.097   3.685  18.362  0.00  0.00    +0.000 N 
ATOM     18  N   UNL     1       5.172   3.178  18.988  0.00  0.00    +0.000 NA
ATOM     19  N   UNL     1       4.807   2.659  20.134  0.00  0.00    +0.000 NA
ATOM     20  C   UNL     1       3.480   2.877  20.270  0.00  0.00    +0.000 A 
ATOM     21  C   UNL     1       2.651   2.527  21.346  0.00  0.00    +0.000 A 
ATOM     22  C   UNL     1       1.307   2.864  21.306  0.00  0.00    +0.000 A 
ATOM     23  C   UNL     1       0.795   3.540  20.198  0.00  0.00    +0.000 A 
ATOM     24  C   UNL     1       1.604   3.904  19.091  0.00  0.00    +0.000 A 
ATOM     25  C   UNL     1       2.965   3.559  19.157  0.00  0.00    +0.000 A 
ENDBRANCH  16  17
ENDBRANCH   1  16
TORSDOF 8
ENDMDL
