MODEL 1
REMARK VINA RESULT:      -7.9      0.000      0.000
REMARK  Name = 
REMARK  5 active torsions:
REMARK  status: ('A' for Active; 'I' for Inactive)
REMARK    1  A    between atoms: C_1  and  S_2
REMARK    2  A    between atoms: S_2  and  N_5
REMARK    3  A    between atoms: N_5  and  C_6
REMARK    4  A    between atoms: C_11  and  O_12
REMARK    5  A    between atoms: O_12  and  C_13
REMARK                            x       y       z     vdW  Elec       q    Type
REMARK                         _______ _______ _______ _____ _____    ______ ____
ROOT
ATOM      1  C   UNL     1       6.418   4.321  17.362  0.00  0.00    +0.000 A 
ATOM      2  C   UNL     1       7.650   4.843  17.756  0.00  0.00    +0.000 A 
ATOM      3  C   UNL     1       7.754   5.408  19.015  0.00  0.00    +0.000 A 
ATOM      4  N   UNL     1       6.718   5.526  19.866  0.00  0.00    +0.000 NA
ATOM      5  C   UNL     1       5.538   5.002  19.461  0.00  0.00    +0.000 A 
ATOM      6  C   UNL     1       5.352   4.322  18.264  0.00  0.00    +0.000 A 
ENDROOT
BRANCH   1   7
ATOM      7  N   UNL     1       6.289   3.808  16.038  0.00  0.00    +0.000 N 
ATOM      8  H   UNL     1       6.637   2.866  15.864  0.00  0.00    +0.000 HD
BRANCH   7  10
ATOM      9  C   UNL     1       5.832   3.809  13.386  0.00  0.00    +0.000 C 
ATOM     10  S   UNL     1       6.402   4.841  14.720  0.00  0.00    +0.000 S 
ATOM     11  O   UNL     1       7.788   5.179  14.485  0.00  0.00    +0.000 OA
ATOM     12  O   UNL     1       5.397   5.863  14.929  0.00  0.00    +0.000 OA
ENDBRANCH   7  10
ENDBRANCH   1   7
BRANCH   6  13
ATOM     13  O   UNL     1       4.190   3.639  17.947  0.00  0.00    +0.000 OA
BRANCH  13  14
ATOM     14  C   UNL     1       3.316   3.369  18.990  0.00  0.00    +0.000 A 
ATOM     15  C   UNL     1       3.725   2.635  20.114  0.00  0.00    +0.000 A 
ATOM     16  C   UNL     1       2.901   2.550  21.235  0.00  0.00    +0.000 A 
ATOM     17  C   UNL     1       1.634   3.126  21.212  0.00  0.00    +0.000 A 
ATOM     18  C   UNL     1       1.174   3.754  20.052  0.00  0.00    +0.000 A 
ATOM     19  C   UNL     1       2.010   3.869  18.937  0.00  0.00    +0.000 A 
ATOM     20 CL   UNL     1       1.407   4.658  17.527  0.00  0.00    +0.000 Cl
ENDBRANCH  13  14
ENDBRANCH   6  13
TORSDOF 4
ENDMDL
MODEL 2
REMARK VINA RESULT:      -7.9      1.157      1.437
REMARK  Name = 
REMARK  5 active torsions:
REMARK  status: ('A' for Active; 'I' for Inactive)
REMARK    1  A    between atoms: C_1  and  S_2
REMARK    2  A    between atoms: S_2  and  N_5
REMARK    3  A    between atoms: N_5  and  C_6
REMARK    4  A    between atoms: C_11  and  O_12
REMARK    5  A    between atoms: O_12  and  C_13
REMARK                            x       y       z     vdW  Elec       q    Type
REMARK                         _______ _______ _______ _____ _____    ______ ____
ROOT
ATOM      1  C   UNL     1       6.430   4.360  17.310  0.00  0.00    +0.000 A 
ATOM      2  C   UNL     1       7.725   4.594  17.773  0.00  0.00    +0.000 A 
ATOM      3  C   UNL     1       7.886   5.146  19.031  0.00  0.00    +0.000 A 
ATOM      4  N   UNL     1       6.858   5.516  19.818  0.00  0.00    +0.000 NA
ATOM      5  C   UNL     1       5.614   5.267  19.348  0.00  0.00    +0.000 A 
ATOM      6  C   UNL     1       5.344   4.623  18.147  0.00  0.00    +0.000 A 
ENDROOT
BRANCH   1   7
ATOM      7  N   UNL     1       6.261   3.863  15.985  0.00  0.00    +0.000 N 
ATOM      8  H   UNL     1       6.564   2.908  15.800  0.00  0.00    +0.000 HD
BRANCH   7  10
ATOM      9  C   UNL     1       5.878   3.867  13.321  0.00  0.00    +0.000 C 
ATOM     10  S   UNL     1       6.404   4.900  14.672  0.00  0.00    +0.000 S 
ATOM     11  O   UNL     1       7.794   5.247  14.476  0.00  0.00    +0.000 OA
ATOM     12  O   UNL     1       5.386   5.915  14.855  0.00  0.00    +0.000 OA
ENDBRANCH   7  10
ENDBRANCH   1   7
BRANCH   6  13
ATOM     13  O   UNL     1       4.076   4.217  17.767  0.00  0.00    +0.000 OA
BRANCH  13  14
ATOM     14  C   UNL     1       3.163   3.977  18.783  0.00  0.00    +0.000 A 
ATOM     15  C   UNL     1       2.515   5.031  19.447  0.00  0.00    +0.000 A 
ATOM     16  C   UNL     1       1.457   4.768  20.316  0.00  0.00    +0.000 A 
ATOM     17  C   UNL     1       1.093   3.453  20.590  0.00  0.00    +0.000 A 
ATOM     18  C   UNL     1       1.812   2.397  20.026  0.00  0.00    +0.000 A 
ATOM     19  C   UNL     1       2.853   2.657  19.128  0.00  0.00    +0.000 A 
ATOM     20 CL   UNL     1       3.711   1.325  18.448  0.00  0.00    +0.000 Cl
ENDBRANCH  13  14
ENDBRANCH   6  13
TORSDOF 4
ENDMDL
MODEL 3
REMARK VINA RESULT:      -7.8      0.869      1.081
REMARK  Name = 
REMARK  5 active torsions:
REMARK  status: ('A' for Active; 'I' for Inactive)
REMARK    1  A    between atoms: C_1  and  S_2
REMARK    2  A    between atoms: S_2  and  N_5
REMARK    3  A    between atoms: N_5  and  C_6
REMARK    4  A    between atoms: C_11  and  O_12
REMARK    5  A    between atoms: O_12  and  C_13
REMARK                            x       y       z     vdW  Elec       q    Type
REMARK                         _______ _______ _______ _____ _____    ______ ____
ROOT
ATOM      1  C   UNL     1       6.379   4.233  17.349  0.00  0.00    +0.000 A 
ATOM      2  C   UNL     1       7.611   4.776  17.716  0.00  0.00    +0.000 A 
ATOM      3  C   UNL     1       7.724   5.373  18.959  0.00  0.00    +0.000 A 
ATOM      4  N   UNL     1       6.697   5.501  19.820  0.00  0.00    +0.000 NA
ATOM      5  C   UNL     1       5.518   4.955  19.442  0.00  0.00    +0.000 A 
ATOM      6  C   UNL     1       5.324   4.245  18.264  0.00  0.00    +0.000 A 
ENDROOT
BRANCH   1   7
ATOM      7  N   UNL     1       6.240   3.687  16.040  0.00  0.00    +0.000 N 
ATOM      8  H   UNL     1       6.673   2.782  15.860  0.00  0.00    +0.000 HD
BRANCH   7  10
ATOM      9  C   UNL     1       5.248   6.085  15.326  0.00  0.00    +0.000 C 
ATOM     10  S   UNL     1       6.184   4.704  14.706  0.00  0.00    +0.000 S 
ATOM     11  O   UNL     1       5.431   4.073  13.645  0.00  0.00    +0.000 OA
ATOM     12  O   UNL     1       7.542   5.166  14.501  0.00  0.00    +0.000 OA
ENDBRANCH   7  10
ENDBRANCH   1   7
BRANCH   6  13
ATOM     13  O   UNL     1       4.166   3.542  17.978  0.00  0.00    +0.000 OA
BRANCH  13  14
ATOM     14  C   UNL     1       3.288   3.324  19.029  0.00  0.00    +0.000 A 
ATOM     15  C   UNL     1       3.677   2.601  20.168  0.00  0.00    +0.000 A 
ATOM     16  C   UNL     1       2.855   2.568  21.293  0.00  0.00    +0.000 A 
ATOM     17  C   UNL     1       1.608   3.185  21.262  0.00  0.00    +0.000 A 
ATOM     18  C   UNL     1       1.165   3.803  20.090  0.00  0.00    +0.000 A 
ATOM     19  C   UNL     1       1.999   3.866  18.970  0.00  0.00    +0.000 A 
ATOM     20 CL   UNL     1       1.416   4.645  17.546  0.00  0.00    +0.000 Cl
ENDBRANCH  13  14
ENDBRANCH   6  13
TORSDOF 4
ENDMDL
MODEL 4
REMARK VINA RESULT:      -7.2      1.599      2.050
REMARK  Name = 
REMARK  5 active torsions:
REMARK  status: ('A' for Active; 'I' for Inactive)
REMARK    1  A    between atoms: C_1  and  S_2
REMARK    2  A    between atoms: S_2  and  N_5
REMARK    3  A    between atoms: N_5  and  C_6
REMARK    4  A    between atoms: C_11  and  O_12
REMARK    5  A    between atoms: O_12  and  C_13
REMARK                            x       y       z     vdW  Elec       q    Type
REMARK                         _______ _______ _______ _____ _____    ______ ____
ROOT
ATOM      1  C   UNL     1       6.668   4.358  17.256  0.00  0.00    +0.000 A 
ATOM      2  C   UNL     1       7.715   5.146  17.735  0.00  0.00    +0.000 A 
ATOM      3  C   UNL     1       7.571   5.755  18.969  0.00  0.00    +0.000 A 
ATOM      4  N   UNL     1       6.455   5.667  19.717  0.00  0.00    +0.000 NA
ATOM      5  C   UNL     1       5.461   4.887  19.233  0.00  0.00    +0.000 A 
ATOM      6  C   UNL     1       5.543   4.150  18.058  0.00  0.00    +0.000 A 
ENDROOT
BRANCH   1   7
ATOM      7  N   UNL     1       6.783   3.793  15.953  0.00  0.00    +0.000 N 
ATOM      8  H   UNL     1       7.488   3.070  15.815  0.00  0.00    +0.000 HD
BRANCH   7  10
ATOM      9  C   UNL     1       5.326   5.933  15.219  0.00  0.00    +0.000 C 
ATOM     10  S   UNL     1       6.489   4.738  14.597  0.00  0.00    +0.000 S 
ATOM     11  O   UNL     1       5.837   3.941  13.582  0.00  0.00    +0.000 OA
ATOM     12  O   UNL     1       7.725   5.444  14.330  0.00  0.00    +0.000 OA
ENDBRANCH   7  10
ENDBRANCH   1   7
BRANCH   6  13
ATOM     13  O   UNL     1       4.593   3.221  17.671  0.00  0.00    +0.000 OA
BRANCH  13  14
ATOM     14  C   UNL     1       3.379   3.248  18.343  0.00  0.00    +0.000 A 
ATOM     15  C   UNL     1       2.283   3.968  17.843  0.00  0.00    +0.000 A 
ATOM     16  C   UNL     1       1.022   3.816  18.419  0.00  0.00    +0.000 A 
ATOM     17  C   UNL     1       0.864   3.012  19.544  0.00  0.00    +0.000 A 
ATOM     18  C   UNL     1       1.975   2.389  20.119  0.00  0.00    +0.000 A 
ATOM     19  C   UNL     1       3.235   2.512  19.525  0.00  0.00    +0.000 A 
ATOM     20 CL   UNL     1       4.578   1.721  20.262  0.00  0.00    +0.000 Cl
ENDBRANCH  13  14
ENDBRANCH   6  13
TORSDOF 4
ENDMDL
MODEL 5
REMARK VINA RESULT:      -7.0      1.579      1.877
REMARK  Name = 
REMARK  5 active torsions:
REMARK  status: ('A' for Active; 'I' for Inactive)
REMARK    1  A    between atoms: C_1  and  S_2
REMARK    2  A    between atoms: S_2  and  N_5
REMARK    3  A    between atoms: N_5  and  C_6
REMARK    4  A    between atoms: C_11  and  O_12
REMARK    5  A    between atoms: O_12  and  C_13
REMARK                            x       y       z     vdW  Elec       q    Type
REMARK                         _______ _______ _______ _____ _____    ______ ____
ROOT
ATOM      1  C   UNL     1       5.970   5.482  17.103  0.00  0.00    +0.000 A 
ATOM      2  C   UNL     1       7.279   5.823  17.444  0.00  0.00    +0.000 A 
ATOM      3  C   UNL     1       7.652   5.758  18.774  0.00  0.00    +0.000 A 
ATOM      4  N   UNL     1       6.808   5.427  19.769  0.00  0.00    +0.000 NA
ATOM      5  C   UNL     1       5.548   5.091  19.408  0.00  0.00    +0.000 A 
ATOM      6  C   UNL     1       5.100   5.022  18.095  0.00  0.00    +0.000 A 
ENDROOT
BRANCH   1   7
ATOM      7  N   UNL     1       5.562   5.622  15.745  0.00  0.00    +0.000 N 
ATOM      8  H   UNL     1       4.695   6.126  15.565  0.00  0.00    +0.000 HD
BRANCH   7  10
ATOM      9  C   UNL     1       7.406   4.989  13.890  0.00  0.00    +0.000 C 
ATOM     10  S   UNL     1       5.898   4.408  14.636  0.00  0.00    +0.000 S 
ATOM     11  O   UNL     1       4.865   4.372  13.625  0.00  0.00    +0.000 OA
ATOM     12  O   UNL     1       6.234   3.236  15.419  0.00  0.00    +0.000 OA
ENDBRANCH   7  10
ENDBRANCH   1   7
BRANCH   6  13
ATOM     13  O   UNL     1       3.868   4.504  17.734  0.00  0.00    +0.000 OA
BRANCH  13  14
ATOM     14  C   UNL     1       3.012   4.145  18.765  0.00  0.00    +0.000 A 
ATOM     15  C   UNL     1       2.380   5.112  19.561  0.00  0.00    +0.000 A 
ATOM     16  C   UNL     1       1.373   4.740  20.451  0.00  0.00    +0.000 A 
ATOM     17  C   UNL     1       1.048   3.397  20.611  0.00  0.00    +0.000 A 
ATOM     18  C   UNL     1       1.758   2.419  19.911  0.00  0.00    +0.000 A 
ATOM     19  C   UNL     1       2.746   2.790  18.993  0.00  0.00    +0.000 A 
ATOM     20 CL   UNL     1       3.594   1.552  18.144  0.00  0.00    +0.000 Cl
ENDBRANCH  13  14
ENDBRANCH   6  13
TORSDOF 4
ENDMDL
MODEL 6
REMARK VINA RESULT:      -7.0      3.539      6.098
REMARK  Name = 
REMARK  5 active torsions:
REMARK  status: ('A' for Active; 'I' for Inactive)
REMARK    1  A    between atoms: C_1  and  S_2
REMARK    2  A    between atoms: S_2  and  N_5
REMARK    3  A    between atoms: N_5  and  C_6
REMARK    4  A    between atoms: C_11  and  O_12
REMARK    5  A    between atoms: O_12  and  C_13
REMARK                            x       y       z     vdW  Elec       q    Type
REMARK                         _______ _______ _______ _____ _____    ______ ____
ROOT
ATOM      1  C   UNL     1       3.142   5.875  19.634  0.00  0.00    +0.000 A 
ATOM      2  C   UNL     1       2.236   6.933  19.719  0.00  0.00    +0.000 A 
ATOM      3  C   UNL     1       2.249   7.893  18.723  0.00  0.00    +0.000 A 
ATOM      4  N   UNL     1       3.120   7.890  17.697  0.00  0.00    +0.000 NA
ATOM      5  C   UNL     1       3.980   6.847  17.635  0.00  0.00    +0.000 A 
ATOM      6  C   UNL     1       3.981   5.778  18.522  0.00  0.00    +0.000 A 
ENDROOT
BRANCH   1   7
ATOM      7  N   UNL     1       3.183   4.927  20.698  0.00  0.00    +0.000 N 
ATOM      8  H   UNL     1       4.100   4.634  21.030  0.00  0.00    +0.000 HD
BRANCH   7  10
ATOM      9  C   UNL     1       2.590   2.498  19.702  0.00  0.00    +0.000 C 
ATOM     10  S   UNL     1       1.994   3.748  20.820  0.00  0.00    +0.000 S 
ATOM     11  O   UNL     1       0.742   4.265  20.314  0.00  0.00    +0.000 OA
ATOM     12  O   UNL     1       2.106   3.210  22.161  0.00  0.00    +0.000 OA
ENDBRANCH   7  10
ENDBRANCH   1   7
BRANCH   6  13
ATOM     13  O   UNL     1       4.743   4.636  18.340  0.00  0.00    +0.000 OA
BRANCH  13  14
ATOM     14  C   UNL     1       5.452   4.537  17.152  0.00  0.00    +0.000 A 
ATOM     15  C   UNL     1       4.840   4.085  15.972  0.00  0.00    +0.000 A 
ATOM     16  C   UNL     1       5.508   4.186  14.752  0.00  0.00    +0.000 A 
ATOM     17  C   UNL     1       6.815   4.662  14.712  0.00  0.00    +0.000 A 
ATOM     18  C   UNL     1       7.471   4.999  15.899  0.00  0.00    +0.000 A 
ATOM     19  C   UNL     1       6.795   4.930  17.120  0.00  0.00    +0.000 A 
ATOM     20 CL   UNL     1       7.639   5.362  18.560  0.00  0.00    +0.000 Cl
ENDBRANCH  13  14
ENDBRANCH   6  13
TORSDOF 4
ENDMDL
MODEL 7
REMARK VINA RESULT:      -6.9      1.469      1.692
REMARK  Name = 
REMARK  5 active torsions:
REMARK  status: ('A' for Active; 'I' for Inactive)
REMARK    1  A    between atoms: C_1  and  S_2
REMARK    2  A    between atoms: S_2  and  N_5
REMARK    3  A    between atoms: N_5  and  C_6
REMARK    4  A    between atoms: C_11  and  O_12
REMARK    5  A    between atoms: O_12  and  C_13
REMARK                            x       y       z     vdW  Elec       q    Type
REMARK                         _______ _______ _______ _____ _____    ______ ____
ROOT
ATOM      1  C   UNL     1       6.166   5.756  17.259  0.00  0.00    +0.000 A 
ATOM      2  C   UNL     1       7.468   6.065  17.651  0.00  0.00    +0.000 A 
ATOM      3  C   UNL     1       7.823   5.869  18.974  0.00  0.00    +0.000 A 
ATOM      4  N   UNL     1       6.966   5.440  19.919  0.00  0.00    +0.000 NA
ATOM      5  C   UNL     1       5.713   5.137  19.508  0.00  0.00    +0.000 A 
ATOM      6  C   UNL     1       5.284   5.198  18.188  0.00  0.00    +0.000 A 
ENDROOT
BRANCH   1   7
ATOM      7  N   UNL     1       5.776   6.029  15.916  0.00  0.00    +0.000 N 
ATOM      8  H   UNL     1       4.862   6.454  15.769  0.00  0.00    +0.000 HD
BRANCH   7  10
ATOM      9  C   UNL     1       6.395   3.443  15.497  0.00  0.00    +0.000 C 
ATOM     10  S   UNL     1       6.275   5.017  14.673  0.00  0.00    +0.000 S 
ATOM     11  O   UNL     1       7.593   5.408  14.226  0.00  0.00    +0.000 OA
ATOM     12  O   UNL     1       5.156   4.934  13.756  0.00  0.00    +0.000 OA
ENDBRANCH   7  10
ENDBRANCH   1   7
BRANCH   6  13
ATOM     13  O   UNL     1       4.059   4.716  17.760  0.00  0.00    +0.000 OA
BRANCH  13  14
ATOM     14  C   UNL     1       3.145   4.364  18.743  0.00  0.00    +0.000 A 
ATOM     15  C   UNL     1       2.557   5.332  19.573  0.00  0.00    +0.000 A 
ATOM     16  C   UNL     1       1.496   4.987  20.410  0.00  0.00    +0.000 A 
ATOM     17  C   UNL     1       1.070   3.664  20.483  0.00  0.00    +0.000 A 
ATOM     18  C   UNL     1       1.731   2.676  19.750  0.00  0.00    +0.000 A 
ATOM     19  C   UNL     1       2.774   3.022  18.886  0.00  0.00    +0.000 A 
ATOM     20 CL   UNL     1       3.559   1.773  17.993  0.00  0.00    +0.000 Cl
ENDBRANCH  13  14
ENDBRANCH   6  13
TORSDOF 4
ENDMDL
MODEL 8
REMARK VINA RESULT:      -6.8      3.110      5.461
REMARK  Name = 
REMARK  5 active torsions:
REMARK  status: ('A' for Active; 'I' for Inactive)
REMARK    1  A    between atoms: C_1  and  S_2
REMARK    2  A    between atoms: S_2  and  N_5
REMARK    3  A    between atoms: N_5  and  C_6
REMARK    4  A    between atoms: C_11  and  O_12
REMARK    5  A    between atoms: O_12  and  C_13
REMARK                            x       y       z     vdW  Elec       q    Type
REMARK                         _______ _______ _______ _____ _____    ______ ____
ROOT
ATOM      1  C   UNL     1       3.061   4.845  20.045  0.00  0.00    +0.000 A 
ATOM      2  C   UNL     1       1.791   4.567  20.550  0.00  0.00    +0.000 A 
ATOM      3  C   UNL     1       1.435   3.245  20.749  0.00  0.00    +0.000 A 
ATOM      4  N   UNL     1       2.230   2.205  20.436  0.00  0.00    +0.000 NA
ATOM      5  C   UNL     1       3.460   2.505  19.957  0.00  0.00    +0.000 A 
ATOM      6  C   UNL     1       3.955   3.795  19.819  0.00  0.00    +0.000 A 
ENDROOT
BRANCH   1   7
ATOM      7  N   UNL     1       3.401   6.201  19.768  0.00  0.00    +0.000 N 
ATOM      8  H   UNL     1       3.485   6.835  20.561  0.00  0.00    +0.000 HD
BRANCH   7  10
ATOM      9  C   UNL     1       1.933   8.312  18.974  0.00  0.00    +0.000 C 
ATOM     10  S   UNL     1       2.868   6.931  18.353  0.00  0.00    +0.000 S 
ATOM     11  O   UNL     1       1.970   6.039  17.654  0.00  0.00    +0.000 OA
ATOM     12  O   UNL     1       4.052   7.470  17.715  0.00  0.00    +0.000 OA
ENDBRANCH   7  10
ENDBRANCH   1   7
BRANCH   6  13
ATOM     13  O   UNL     1       5.272   4.078  19.500  0.00  0.00    +0.000 OA
BRANCH  13  14
ATOM     14  C   UNL     1       5.556   4.318  18.163  0.00  0.00    +0.000 A 
ATOM     15  C   UNL     1       4.727   3.829  17.141  0.00  0.00    +0.000 A 
ATOM     16  C   UNL     1       4.913   4.251  15.825  0.00  0.00    +0.000 A 
ATOM     17  C   UNL     1       5.973   5.096  15.509  0.00  0.00    +0.000 A 
ATOM     18  C   UNL     1       6.872   5.489  16.502  0.00  0.00    +0.000 A 
ATOM     19  C   UNL     1       6.671   5.095  17.829  0.00  0.00    +0.000 A 
ATOM     20 CL   UNL     1       7.801   5.608  19.026  0.00  0.00    +0.000 Cl
ENDBRANCH  13  14
ENDBRANCH   6  13
TORSDOF 4
ENDMDL
MODEL 9
REMARK VINA RESULT:      -6.8      1.241      1.348
REMARK  Name = 
REMARK  5 active torsions:
REMARK  status: ('A' for Active; 'I' for Inactive)
REMARK    1  A    between atoms: C_1  and  S_2
REMARK    2  A    between atoms: S_2  and  N_5
REMARK    3  A    between atoms: N_5  and  C_6
REMARK    4  A    between atoms: C_11  and  O_12
REMARK    5  A    between atoms: O_12  and  C_13
REMARK                            x       y       z     vdW  Elec       q    Type
REMARK                         _______ _______ _______ _____ _____    ______ ____
ROOT
ATOM      1  C   UNL     1       6.288   5.609  17.184  0.00  0.00    +0.000 A 
ATOM      2  C   UNL     1       7.512   6.040  17.695  0.00  0.00    +0.000 A 
ATOM      3  C   UNL     1       7.741   5.912  19.054  0.00  0.00    +0.000 A 
ATOM      4  N   UNL     1       6.829   5.437  19.921  0.00  0.00    +0.000 NA
ATOM      5  C   UNL     1       5.654   5.016  19.396  0.00  0.00    +0.000 A 
ATOM      6  C   UNL     1       5.363   5.003  18.038  0.00  0.00    +0.000 A 
ENDROOT
BRANCH   1   7
ATOM      7  N   UNL     1       6.020   5.810  15.799  0.00  0.00    +0.000 N 
ATOM      8  H   UNL     1       5.128   6.235  15.550  0.00  0.00    +0.000 HD
BRANCH   7  10
ATOM      9  C   UNL     1       5.212   4.522  13.578  0.00  0.00    +0.000 C 
ATOM     10  S   UNL     1       6.610   4.724  14.662  0.00  0.00    +0.000 S 
ATOM     11  O   UNL     1       6.890   3.457  15.299  0.00  0.00    +0.000 OA
ATOM     12  O   UNL     1       7.625   5.442  13.918  0.00  0.00    +0.000 OA
ENDBRANCH   7  10
ENDBRANCH   1   7
BRANCH   6  13
ATOM     13  O   UNL     1       4.233   4.405  17.505  0.00  0.00    +0.000 OA
BRANCH  13  14
ATOM     14  C   UNL     1       3.225   4.065  18.394  0.00  0.00    +0.000 A 
ATOM     15  C   UNL     1       3.078   2.750  18.865  0.00  0.00    +0.000 A 
ATOM     16  C   UNL     1       2.195   2.472  19.907  0.00  0.00    +0.000 A 
ATOM     17  C   UNL     1       1.396   3.484  20.430  0.00  0.00    +0.000 A 
ATOM     18  C   UNL     1       1.450   4.769  19.884  0.00  0.00    +0.000 A 
ATOM     19  C   UNL     1       2.357   5.060  18.860  0.00  0.00    +0.000 A 
ATOM     20 CL   UNL     1       2.398   6.660  18.219  0.00  0.00    +0.000 Cl
ENDBRANCH  13  14
ENDBRANCH   6  13
TORSDOF 4
ENDMDL
