MODEL 1
REMARK VINA RESULT:      -8.6      0.000      0.000
REMARK  Name = 
REMARK  4 active torsions:
REMARK  status: ('A' for Active; 'I' for Inactive)
REMARK    1  A    between atoms: C_2  and  C_20
REMARK    2  A    between atoms: N_3  and  N_4
REMARK    3  A    between atoms: C_14  and  C_15
REMARK    4  A    between atoms: C_23  and  N_24
REMARK                            x       y       z     vdW  Elec       q    Type
REMARK                         _______ _______ _______ _____ _____    ______ ____
ROOT
ATOM      1  N   UNL     1       3.966   5.697  18.582  0.00  0.00    +0.000 N 
ATOM      2  C   UNL     1       4.953   6.246  17.755  0.00  0.00    +0.000 C 
ATOM      3  O   UNL     1       5.423   7.371  17.842  0.00  0.00    +0.000 OA
ATOM      4  C   UNL     1       5.356   5.355  16.656  0.00  0.00    +0.000 A 
ATOM      5  C   UNL     1       5.894   5.896  15.484  0.00  0.00    +0.000 A 
ATOM      6  C   UNL     1       6.229   5.052  14.428  0.00  0.00    +0.000 A 
ATOM      7  C   UNL     1       6.025   3.679  14.558  0.00  0.00    +0.000 A 
ATOM      8  C   UNL     1       5.465   3.153  15.729  0.00  0.00    +0.000 A 
ATOM      9  C   UNL     1       5.090   3.991  16.785  0.00  0.00    +0.000 A 
ATOM     10  N   UNL     1       4.588   3.452  17.961  0.00  0.00    +0.000 N 
ATOM     11  C   UNL     1       4.181   4.330  19.056  0.00  0.00    +0.000 C 
ATOM     12  H   UNL     1       4.045   2.603  17.863  0.00  0.00    +0.000 HD
ENDROOT
BRANCH  11  13
ATOM     13  C   UNL     1       2.958   3.816  19.762  0.00  0.00    +0.000 A 
ATOM     14  C   UNL     1       2.770   3.133  20.950  0.00  0.00    +0.000 A 
ATOM     15  C   UNL     1       1.381   2.948  21.092  0.00  0.00    +0.000 A 
ATOM     16  C   UNL     1       0.800   3.530  19.985  0.00  0.00    +0.000 A 
ATOM     17  O   UNL     1       1.753   4.045  19.170  0.00  0.00    +0.000 OA
ENDBRANCH  11  13
BRANCH   1  20
ATOM     18  O   UNL     1       2.036   7.495  17.737  0.00  0.00    +0.000 OA
ATOM     19  C   UNL     1       2.351   7.460  18.925  0.00  0.00    +0.000 C 
ATOM     20  N   UNL     1       3.301   6.603  19.473  0.00  0.00    +0.000 N 
ATOM     21  H   UNL     1       3.393   6.456  20.474  0.00  0.00    +0.000 HD
BRANCH  19  22
ATOM     22  C   UNL     1       1.642   8.369  19.842  0.00  0.00    +0.000 A 
ATOM     23  C   UNL     1       1.398   8.048  21.182  0.00  0.00    +0.000 A 
ATOM     24  C   UNL     1       0.589   8.889  21.954  0.00  0.00    +0.000 A 
ATOM     25  C   UNL     1       0.038  10.048  21.383  0.00  0.00    +0.000 A 
ATOM     26  C   UNL     1       0.295  10.383  20.050  0.00  0.00    +0.000 A 
ATOM     27  C   UNL     1       1.098   9.537  19.284  0.00  0.00    +0.000 A 
BRANCH  25  28
ATOM     28  N   UNL     1      -0.845  10.909  22.184  0.00  0.00    +0.000 N 
ATOM     29  O   UNL     1      -1.528  11.748  21.579  0.00  0.00    +0.000 OA
ATOM     30  O   UNL     1      -0.853  10.747  23.412  0.00  0.00    +0.000 OA
ENDBRANCH  25  28
ENDBRANCH  19  22
ENDBRANCH   1  20
TORSDOF 4
ENDMDL
MODEL 2
REMARK VINA RESULT:      -8.5      0.621      1.209
REMARK  Name = 
REMARK  4 active torsions:
REMARK  status: ('A' for Active; 'I' for Inactive)
REMARK    1  A    between atoms: C_2  and  C_20
REMARK    2  A    between atoms: N_3  and  N_4
REMARK    3  A    between atoms: C_14  and  C_15
REMARK    4  A    between atoms: C_23  and  N_24
REMARK                            x       y       z     vdW  Elec       q    Type
REMARK                         _______ _______ _______ _____ _____    ______ ____
ROOT
ATOM      1  N   UNL     1       3.941   5.697  18.358  0.00  0.00    +0.000 N 
ATOM      2  C   UNL     1       5.004   6.241  17.628  0.00  0.00    +0.000 C 
ATOM      3  O   UNL     1       5.498   7.348  17.789  0.00  0.00    +0.000 OA
ATOM      4  C   UNL     1       5.463   5.375  16.532  0.00  0.00    +0.000 A 
ATOM      5  C   UNL     1       6.105   5.936  15.423  0.00  0.00    +0.000 A 
ATOM      6  C   UNL     1       6.496   5.117  14.367  0.00  0.00    +0.000 A 
ATOM      7  C   UNL     1       6.243   3.747  14.433  0.00  0.00    +0.000 A 
ATOM      8  C   UNL     1       5.579   3.201  15.539  0.00  0.00    +0.000 A 
ATOM      9  C   UNL     1       5.149   4.016  16.592  0.00  0.00    +0.000 A 
ATOM     10  N   UNL     1       4.543   3.455  17.707  0.00  0.00    +0.000 N 
ATOM     11  C   UNL     1       4.079   4.309  18.799  0.00  0.00    +0.000 C 
ATOM     12  H   UNL     1       3.985   2.627  17.539  0.00  0.00    +0.000 HD
ENDROOT
BRANCH  11  13
ATOM     13  C   UNL     1       2.791   3.811  19.392  0.00  0.00    +0.000 A 
ATOM     14  C   UNL     1       1.642   3.275  18.840  0.00  0.00    +0.000 A 
ATOM     15  C   UNL     1       0.783   2.974  19.914  0.00  0.00    +0.000 A 
ATOM     16  C   UNL     1       1.456   3.341  21.061  0.00  0.00    +0.000 A 
ATOM     17  O   UNL     1       2.668   3.861  20.748  0.00  0.00    +0.000 OA
ENDBRANCH  11  13
BRANCH   1  20
ATOM     18  O   UNL     1       2.075   7.528  17.441  0.00  0.00    +0.000 OA
ATOM     19  C   UNL     1       2.325   7.469  18.644  0.00  0.00    +0.000 C 
ATOM     20  N   UNL     1       3.236   6.594  19.228  0.00  0.00    +0.000 N 
ATOM     21  H   UNL     1       3.272   6.429  20.229  0.00  0.00    +0.000 HD
BRANCH  19  22
ATOM     22  C   UNL     1       1.575   8.370  19.537  0.00  0.00    +0.000 A 
ATOM     23  C   UNL     1       1.105   9.621  19.124  0.00  0.00    +0.000 A 
ATOM     24  C   UNL     1       0.535  10.486  20.065  0.00  0.00    +0.000 A 
ATOM     25  C   UNL     1       0.431  10.089  21.408  0.00  0.00    +0.000 A 
ATOM     26  C   UNL     1       0.882   8.832  21.821  0.00  0.00    +0.000 A 
ATOM     27  C   UNL     1       1.454   7.976  20.879  0.00  0.00    +0.000 A 
BRANCH  25  28
ATOM     28  N   UNL     1      -0.131  11.015  22.403  0.00  0.00    +0.000 N 
ATOM     29  O   UNL     1      -0.067  12.228  22.155  0.00  0.00    +0.000 OA
ATOM     30  O   UNL     1      -0.633  10.530  23.426  0.00  0.00    +0.000 OA
ENDBRANCH  25  28
ENDBRANCH  19  22
ENDBRANCH   1  20
TORSDOF 4
ENDMDL
MODEL 3
REMARK VINA RESULT:      -7.5      3.420      9.616
REMARK  Name = 
REMARK  4 active torsions:
REMARK  status: ('A' for Active; 'I' for Inactive)
REMARK    1  A    between atoms: C_2  and  C_20
REMARK    2  A    between atoms: N_3  and  N_4
REMARK    3  A    between atoms: C_14  and  C_15
REMARK    4  A    between atoms: C_23  and  N_24
REMARK                            x       y       z     vdW  Elec       q    Type
REMARK                         _______ _______ _______ _____ _____    ______ ____
ROOT
ATOM      1  N   UNL     1      -1.359  11.648  20.171  0.00  0.00    +0.000 N 
ATOM      2  C   UNL     1      -1.095  12.304  21.379  0.00  0.00    +0.000 C 
ATOM      3  O   UNL     1       0.006  12.475  21.882  0.00  0.00    +0.000 OA
ATOM      4  C   UNL     1      -2.311  12.731  22.088  0.00  0.00    +0.000 A 
ATOM      5  C   UNL     1      -2.282  12.905  23.476  0.00  0.00    +0.000 A 
ATOM      6  C   UNL     1      -3.448  13.263  24.149  0.00  0.00    +0.000 A 
ATOM      7  C   UNL     1      -4.626  13.447  23.426  0.00  0.00    +0.000 A 
ATOM      8  C   UNL     1      -4.646  13.249  22.040  0.00  0.00    +0.000 A 
ATOM      9  C   UNL     1      -3.492  12.854  21.354  0.00  0.00    +0.000 A 
ATOM     10  N   UNL     1      -3.512  12.715  19.974  0.00  0.00    +0.000 N 
ATOM     11  C   UNL     1      -2.310  12.286  19.261  0.00  0.00    +0.000 C 
ATOM     12  H   UNL     1      -4.387  12.402  19.572  0.00  0.00    +0.000 HD
ENDROOT
BRANCH  11  13
ATOM     13  C   UNL     1      -2.634  11.376  18.110  0.00  0.00    +0.000 A 
ATOM     14  C   UNL     1      -3.501  10.307  17.967  0.00  0.00    +0.000 A 
ATOM     15  C   UNL     1      -3.379   9.868  16.635  0.00  0.00    +0.000 A 
ATOM     16  C   UNL     1      -2.448  10.693  16.040  0.00  0.00    +0.000 A 
ATOM     17  O   UNL     1      -1.985  11.600  16.935  0.00  0.00    +0.000 OA
ENDBRANCH  11  13
BRANCH   1  20
ATOM     18  O   UNL     1      -0.523   9.165  21.071  0.00  0.00    +0.000 OA
ATOM     19  C   UNL     1       0.059   9.693  20.125  0.00  0.00    +0.000 C 
ATOM     20  N   UNL     1      -0.265  10.932  19.580  0.00  0.00    +0.000 N 
ATOM     21  H   UNL     1       0.094  11.247  18.684  0.00  0.00    +0.000 HD
BRANCH  19  22
ATOM     22  C   UNL     1       1.160   8.940  19.500  0.00  0.00    +0.000 A 
ATOM     23  C   UNL     1       1.655   9.245  18.227  0.00  0.00    +0.000 A 
ATOM     24  C   UNL     1       2.596   8.396  17.633  0.00  0.00    +0.000 A 
ATOM     25  C   UNL     1       3.041   7.255  18.320  0.00  0.00    +0.000 A 
ATOM     26  C   UNL     1       2.563   6.956  19.600  0.00  0.00    +0.000 A 
ATOM     27  C   UNL     1       1.621   7.804  20.184  0.00  0.00    +0.000 A 
BRANCH  25  28
ATOM     28  N   UNL     1       3.999   6.342  17.678  0.00  0.00    +0.000 N 
ATOM     29  O   UNL     1       4.015   5.165  18.066  0.00  0.00    +0.000 OA
ATOM     30  O   UNL     1       4.731   6.803  16.791  0.00  0.00    +0.000 OA
ENDBRANCH  25  28
ENDBRANCH  19  22
ENDBRANCH   1  20
TORSDOF 4
ENDMDL
MODEL 4
REMARK VINA RESULT:      -7.5      3.288      9.958
REMARK  Name = 
REMARK  4 active torsions:
REMARK  status: ('A' for Active; 'I' for Inactive)
REMARK    1  A    between atoms: C_2  and  C_20
REMARK    2  A    between atoms: N_3  and  N_4
REMARK    3  A    between atoms: C_14  and  C_15
REMARK    4  A    between atoms: C_23  and  N_24
REMARK                            x       y       z     vdW  Elec       q    Type
REMARK                         _______ _______ _______ _____ _____    ______ ____
ROOT
ATOM      1  N   UNL     1      -0.148  12.023  21.735  0.00  0.00    +0.000 N 
ATOM      2  C   UNL     1      -0.984  11.631  22.787  0.00  0.00    +0.000 C 
ATOM      3  O   UNL     1      -0.920  10.579  23.406  0.00  0.00    +0.000 OA
ATOM      4  C   UNL     1      -2.063  12.592  23.063  0.00  0.00    +0.000 A 
ATOM      5  C   UNL     1      -3.245  12.155  23.670  0.00  0.00    +0.000 A 
ATOM      6  C   UNL     1      -4.282  13.059  23.886  0.00  0.00    +0.000 A 
ATOM      7  C   UNL     1      -4.123  14.389  23.497  0.00  0.00    +0.000 A 
ATOM      8  C   UNL     1      -2.942  14.808  22.871  0.00  0.00    +0.000 A 
ATOM      9  C   UNL     1      -1.906  13.904  22.614  0.00  0.00    +0.000 A 
ATOM     10  N   UNL     1      -0.720  14.345  22.044  0.00  0.00    +0.000 N 
ATOM     11  C   UNL     1       0.356  13.396  21.761  0.00  0.00    +0.000 C 
ATOM     12  H   UNL     1      -0.801  15.113  21.390  0.00  0.00    +0.000 HD
ENDROOT
BRANCH  11  13
ATOM     13  C   UNL     1       1.069  13.722  20.479  0.00  0.00    +0.000 A 
ATOM     14  C   UNL     1       0.661  14.306  19.294  0.00  0.00    +0.000 A 
ATOM     15  C   UNL     1       1.798  14.367  18.465  0.00  0.00    +0.000 A 
ATOM     16  C   UNL     1       2.835  13.819  19.190  0.00  0.00    +0.000 A 
ATOM     17  O   UNL     1       2.394  13.415  20.407  0.00  0.00    +0.000 OA
ENDBRANCH  11  13
BRANCH   1  20
ATOM     18  O   UNL     1      -0.780  10.522  19.493  0.00  0.00    +0.000 OA
ATOM     19  C   UNL     1       0.289  10.327  20.070  0.00  0.00    +0.000 C 
ATOM     20  N   UNL     1       0.722  11.015  21.200  0.00  0.00    +0.000 N 
ATOM     21  H   UNL     1       1.682  10.978  21.529  0.00  0.00    +0.000 HD
BRANCH  19  22
ATOM     22  C   UNL     1       1.194   9.315  19.498  0.00  0.00    +0.000 A 
ATOM     23  C   UNL     1       1.634   9.361  18.171  0.00  0.00    +0.000 A 
ATOM     24  C   UNL     1       2.367   8.288  17.652  0.00  0.00    +0.000 A 
ATOM     25  C   UNL     1       2.663   7.183  18.467  0.00  0.00    +0.000 A 
ATOM     26  C   UNL     1       2.241   7.142  19.800  0.00  0.00    +0.000 A 
ATOM     27  C   UNL     1       1.506   8.212  20.309  0.00  0.00    +0.000 A 
BRANCH  25  28
ATOM     28  N   UNL     1       3.399   6.039  17.908  0.00  0.00    +0.000 N 
ATOM     29  O   UNL     1       4.570   6.232  17.552  0.00  0.00    +0.000 OA
ATOM     30  O   UNL     1       2.806   4.954  17.827  0.00  0.00    +0.000 OA
ENDBRANCH  25  28
ENDBRANCH  19  22
ENDBRANCH   1  20
TORSDOF 4
ENDMDL
MODEL 5
REMARK VINA RESULT:      -7.4      3.273      9.456
REMARK  Name = 
REMARK  4 active torsions:
REMARK  status: ('A' for Active; 'I' for Inactive)
REMARK    1  A    between atoms: C_2  and  C_20
REMARK    2  A    between atoms: N_3  and  N_4
REMARK    3  A    between atoms: C_14  and  C_15
REMARK    4  A    between atoms: C_23  and  N_24
REMARK                            x       y       z     vdW  Elec       q    Type
REMARK                         _______ _______ _______ _____ _____    ______ ____
ROOT
ATOM      1  N   UNL     1      -0.668  11.904  20.039  0.00  0.00    +0.000 N 
ATOM      2  C   UNL     1      -0.242  12.671  21.129  0.00  0.00    +0.000 C 
ATOM      3  O   UNL     1       0.911  12.794  21.519  0.00  0.00    +0.000 OA
ATOM      4  C   UNL     1      -1.348  13.294  21.872  0.00  0.00    +0.000 A 
ATOM      5  C   UNL     1      -1.180  13.627  23.220  0.00  0.00    +0.000 A 
ATOM      6  C   UNL     1      -2.246  14.173  23.931  0.00  0.00    +0.000 A 
ATOM      7  C   UNL     1      -3.464  14.381  23.286  0.00  0.00    +0.000 A 
ATOM      8  C   UNL     1      -3.625  14.022  21.942  0.00  0.00    +0.000 A 
ATOM      9  C   UNL     1      -2.575  13.440  21.223  0.00  0.00    +0.000 A 
ATOM     10  N   UNL     1      -2.731  13.141  19.878  0.00  0.00    +0.000 N 
ATOM     11  C   UNL     1      -1.639  12.518  19.133  0.00  0.00    +0.000 C 
ATOM     12  H   UNL     1      -3.662  12.867  19.589  0.00  0.00    +0.000 HD
ENDROOT
BRANCH  11  13
ATOM     13  C   UNL     1      -2.142  11.512  18.136  0.00  0.00    +0.000 A 
ATOM     14  C   UNL     1      -2.174  11.488  16.753  0.00  0.00    +0.000 A 
ATOM     15  C   UNL     1      -2.749  10.256  16.387  0.00  0.00    +0.000 A 
ATOM     16  C   UNL     1      -3.034   9.597  17.565  0.00  0.00    +0.000 A 
ATOM     17  O   UNL     1      -2.678  10.361  18.627  0.00  0.00    +0.000 OA
ENDBRANCH  11  13
BRANCH   1  20
ATOM     18  O   UNL     1      -0.204   9.343  20.988  0.00  0.00    +0.000 OA
ATOM     19  C   UNL     1       0.444   9.759  20.029  0.00  0.00    +0.000 C 
ATOM     20  N   UNL     1       0.303  11.021  19.459  0.00  0.00    +0.000 N 
ATOM     21  H   UNL     1       0.700  11.261  18.555  0.00  0.00    +0.000 HD
BRANCH  19  22
ATOM     22  C   UNL     1       1.417   8.838  19.416  0.00  0.00    +0.000 A 
ATOM     23  C   UNL     1       1.901   9.011  18.114  0.00  0.00    +0.000 A 
ATOM     24  C   UNL     1       2.704   8.017  17.542  0.00  0.00    +0.000 A 
ATOM     25  C   UNL     1       3.023   6.865  18.279  0.00  0.00    +0.000 A 
ATOM     26  C   UNL     1       2.557   6.698  19.587  0.00  0.00    +0.000 A 
ATOM     27  C   UNL     1       1.753   7.689  20.149  0.00  0.00    +0.000 A 
BRANCH  25  28
ATOM     28  N   UNL     1       3.833   5.804  17.662  0.00  0.00    +0.000 N 
ATOM     29  O   UNL     1       3.655   4.644  18.060  0.00  0.00    +0.000 OA
ATOM     30  O   UNL     1       4.643   6.131  16.784  0.00  0.00    +0.000 OA
ENDBRANCH  25  28
ENDBRANCH  19  22
ENDBRANCH   1  20
TORSDOF 4
ENDMDL
MODEL 6
REMARK VINA RESULT:      -7.4      3.246      9.861
REMARK  Name = 
REMARK  4 active torsions:
REMARK  status: ('A' for Active; 'I' for Inactive)
REMARK    1  A    between atoms: C_2  and  C_20
REMARK    2  A    between atoms: N_3  and  N_4
REMARK    3  A    between atoms: C_14  and  C_15
REMARK    4  A    between atoms: C_23  and  N_24
REMARK                            x       y       z     vdW  Elec       q    Type
REMARK                         _______ _______ _______ _____ _____    ______ ____
ROOT
ATOM      1  N   UNL     1      -0.133  11.898  21.712  0.00  0.00    +0.000 N 
ATOM      2  C   UNL     1      -0.963  11.559  22.787  0.00  0.00    +0.000 C 
ATOM      3  O   UNL     1      -0.924  10.518  23.428  0.00  0.00    +0.000 OA
ATOM      4  C   UNL     1      -2.002  12.562  23.061  0.00  0.00    +0.000 A 
ATOM      5  C   UNL     1      -3.188  12.181  23.698  0.00  0.00    +0.000 A 
ATOM      6  C   UNL     1      -4.188  13.126  23.912  0.00  0.00    +0.000 A 
ATOM      7  C   UNL     1      -3.990  14.440  23.490  0.00  0.00    +0.000 A 
ATOM      8  C   UNL     1      -2.807  14.804  22.835  0.00  0.00    +0.000 A 
ATOM      9  C   UNL     1      -1.807  13.858  22.580  0.00  0.00    +0.000 A 
ATOM     10  N   UNL     1      -0.618  14.244  21.980  0.00  0.00    +0.000 N 
ATOM     11  C   UNL     1       0.419  13.252  21.699  0.00  0.00    +0.000 C 
ATOM     12  H   UNL     1      -0.684  15.001  21.310  0.00  0.00    +0.000 HD
ENDROOT
BRANCH  11  13
ATOM     13  C   UNL     1       1.120  13.526  20.398  0.00  0.00    +0.000 A 
ATOM     14  C   UNL     1       0.680  13.962  19.162  0.00  0.00    +0.000 A 
ATOM     15  C   UNL     1       1.820  14.051  18.339  0.00  0.00    +0.000 A 
ATOM     16  C   UNL     1       2.890  13.665  19.119  0.00  0.00    +0.000 A 
ATOM     17  O   UNL     1       2.468  13.334  20.364  0.00  0.00    +0.000 OA
ENDBRANCH  11  13
BRANCH   1  20
ATOM     18  O   UNL     1      -0.849  10.385  19.504  0.00  0.00    +0.000 OA
ATOM     19  C   UNL     1       0.219  10.159  20.072  0.00  0.00    +0.000 C 
ATOM     20  N   UNL     1       0.692  10.848  21.184  0.00  0.00    +0.000 N 
ATOM     21  H   UNL     1       1.654  10.780  21.503  0.00  0.00    +0.000 HD
BRANCH  19  22
ATOM     22  C   UNL     1       1.078   9.104  19.507  0.00  0.00    +0.000 A 
ATOM     23  C   UNL     1       1.525   8.013  20.261  0.00  0.00    +0.000 A 
ATOM     24  C   UNL     1       2.459   7.130  19.706  0.00  0.00    +0.000 A 
ATOM     25  C   UNL     1       2.931   7.341  18.400  0.00  0.00    +0.000 A 
ATOM     26  C   UNL     1       2.472   8.419  17.637  0.00  0.00    +0.000 A 
ATOM     27  C   UNL     1       1.545   9.298  18.197  0.00  0.00    +0.000 A 
BRANCH  25  28
ATOM     28  N   UNL     1       3.943   6.436  17.834  0.00  0.00    +0.000 N 
ATOM     29  O   UNL     1       4.222   5.416  18.479  0.00  0.00    +0.000 OA
ATOM     30  O   UNL     1       4.454   6.747  16.750  0.00  0.00    +0.000 OA
ENDBRANCH  25  28
ENDBRANCH  19  22
ENDBRANCH   1  20
TORSDOF 4
ENDMDL
MODEL 7
REMARK VINA RESULT:      -7.2      3.349      9.460
REMARK  Name = 
REMARK  4 active torsions:
REMARK  status: ('A' for Active; 'I' for Inactive)
REMARK    1  A    between atoms: C_2  and  C_20
REMARK    2  A    between atoms: N_3  and  N_4
REMARK    3  A    between atoms: C_14  and  C_15
REMARK    4  A    between atoms: C_23  and  N_24
REMARK                            x       y       z     vdW  Elec       q    Type
REMARK                         _______ _______ _______ _____ _____    ______ ____
ROOT
ATOM      1  N   UNL     1      -0.773  11.930  20.147  0.00  0.00    +0.000 N 
ATOM      2  C   UNL     1      -0.263  12.701  21.198  0.00  0.00    +0.000 C 
ATOM      3  O   UNL     1       0.910  12.775  21.535  0.00  0.00    +0.000 OA
ATOM      4  C   UNL     1      -1.303  13.396  21.970  0.00  0.00    +0.000 A 
ATOM      5  C   UNL     1      -1.060  13.754  23.301  0.00  0.00    +0.000 A 
ATOM      6  C   UNL     1      -2.066  14.370  24.041  0.00  0.00    +0.000 A 
ATOM      7  C   UNL     1      -3.300  14.624  23.443  0.00  0.00    +0.000 A 
ATOM      8  C   UNL     1      -3.537  14.241  22.117  0.00  0.00    +0.000 A 
ATOM      9  C   UNL     1      -2.549  13.589  21.370  0.00  0.00    +0.000 A 
ATOM     10  N   UNL     1      -2.778  13.265  20.041  0.00  0.00    +0.000 N 
ATOM     11  C   UNL     1      -1.751  12.569  19.267  0.00  0.00    +0.000 C 
ATOM     12  H   UNL     1      -3.733  13.032  19.799  0.00  0.00    +0.000 HD
ENDROOT
BRANCH  11  13
ATOM     13  C   UNL     1      -2.346  11.566  18.319  0.00  0.00    +0.000 A 
ATOM     14  C   UNL     1      -3.592  10.971  18.234  0.00  0.00    +0.000 A 
ATOM     15  C   UNL     1      -3.557  10.127  17.107  0.00  0.00    +0.000 A 
ATOM     16  C   UNL     1      -2.294  10.255  16.568  0.00  0.00    +0.000 A 
ATOM     17  O   UNL     1      -1.553  11.117  17.308  0.00  0.00    +0.000 OA
ENDBRANCH  11  13
BRANCH   1  20
ATOM     18  O   UNL     1      -0.335   9.401  21.190  0.00  0.00    +0.000 OA
ATOM     19  C   UNL     1       0.262   9.747  20.172  0.00  0.00    +0.000 C 
ATOM     20  N   UNL     1       0.127  10.985  19.550  0.00  0.00    +0.000 N 
ATOM     21  H   UNL     1       0.470  11.167  18.612  0.00  0.00    +0.000 HD
BRANCH  19  22
ATOM     22  C   UNL     1       1.160   8.763  19.544  0.00  0.00    +0.000 A 
ATOM     23  C   UNL     1       1.673   7.660  20.237  0.00  0.00    +0.000 A 
ATOM     24  C   UNL     1       2.638   6.852  19.626  0.00  0.00    +0.000 A 
ATOM     25  C   UNL     1       3.076   7.147  18.324  0.00  0.00    +0.000 A 
ATOM     26  C   UNL     1       2.552   8.237  17.621  0.00  0.00    +0.000 A 
ATOM     27  C   UNL     1       1.594   9.042  18.238  0.00  0.00    +0.000 A 
BRANCH  25  28
ATOM     28  N   UNL     1       4.120   6.321  17.699  0.00  0.00    +0.000 N 
ATOM     29  O   UNL     1       4.766   6.824  16.768  0.00  0.00    +0.000 OA
ATOM     30  O   UNL     1       4.290   5.175  18.137  0.00  0.00    +0.000 OA
ENDBRANCH  25  28
ENDBRANCH  19  22
ENDBRANCH   1  20
TORSDOF 4
ENDMDL
MODEL 8
REMARK VINA RESULT:      -7.1      2.977      4.981
REMARK  Name = 
REMARK  4 active torsions:
REMARK  status: ('A' for Active; 'I' for Inactive)
REMARK    1  A    between atoms: C_2  and  C_20
REMARK    2  A    between atoms: N_3  and  N_4
REMARK    3  A    between atoms: C_14  and  C_15
REMARK    4  A    between atoms: C_23  and  N_24
REMARK                            x       y       z     vdW  Elec       q    Type
REMARK                         _______ _______ _______ _____ _____    ______ ____
ROOT
ATOM      1  N   UNL     1       2.070   7.892  19.456  0.00  0.00    +0.000 N 
ATOM      2  C   UNL     1       2.788   7.093  18.559  0.00  0.00    +0.000 C 
ATOM      3  O   UNL     1       3.622   7.481  17.754  0.00  0.00    +0.000 OA
ATOM      4  C   UNL     1       2.391   5.677  18.594  0.00  0.00    +0.000 A 
ATOM      5  C   UNL     1       2.591   4.871  17.468  0.00  0.00    +0.000 A 
ATOM      6  C   UNL     1       2.170   3.544  17.490  0.00  0.00    +0.000 A 
ATOM      7  C   UNL     1       1.557   3.038  18.636  0.00  0.00    +0.000 A 
ATOM      8  C   UNL     1       1.343   3.862  19.748  0.00  0.00    +0.000 A 
ATOM      9  C   UNL     1       1.729   5.207  19.729  0.00  0.00    +0.000 A 
ATOM     10  N   UNL     1       1.562   5.997  20.857  0.00  0.00    +0.000 N 
ATOM     11  C   UNL     1       1.949   7.407  20.831  0.00  0.00    +0.000 C 
ATOM     12  H   UNL     1       0.759   5.781  21.435  0.00  0.00    +0.000 HD
ENDROOT
BRANCH  11  13
ATOM     13  C   UNL     1       0.996   8.266  21.613  0.00  0.00    +0.000 A 
ATOM     14  C   UNL     1      -0.383   8.292  21.719  0.00  0.00    +0.000 A 
ATOM     15  C   UNL     1      -0.696   9.315  22.634  0.00  0.00    +0.000 A 
ATOM     16  C   UNL     1       0.508   9.854  23.037  0.00  0.00    +0.000 A 
ATOM     17  O   UNL     1       1.536   9.229  22.411  0.00  0.00    +0.000 OA
ENDBRANCH  11  13
BRANCH   1  20
ATOM     18  O   UNL     1       0.045   9.407  18.325  0.00  0.00    +0.000 OA
ATOM     19  C   UNL     1       1.083   9.959  18.686  0.00  0.00    +0.000 C 
ATOM     20  N   UNL     1       2.169   9.312  19.268  0.00  0.00    +0.000 N 
ATOM     21  H   UNL     1       2.919   9.813  19.737  0.00  0.00    +0.000 HD
BRANCH  19  22
ATOM     22  C   UNL     1       1.168  11.421  18.522  0.00  0.00    +0.000 A 
ATOM     23  C   UNL     1       2.354  12.071  18.163  0.00  0.00    +0.000 A 
ATOM     24  C   UNL     1       2.401  13.470  18.174  0.00  0.00    +0.000 A 
ATOM     25  C   UNL     1       1.260  14.206  18.533  0.00  0.00    +0.000 A 
ATOM     26  C   UNL     1       0.067  13.560  18.873  0.00  0.00    +0.000 A 
ATOM     27  C   UNL     1       0.029  12.165  18.865  0.00  0.00    +0.000 A 
BRANCH  25  28
ATOM     28  N   UNL     1       1.323  15.674  18.582  0.00  0.00    +0.000 N 
ATOM     29  O   UNL     1       2.444  16.196  18.672  0.00  0.00    +0.000 OA
ATOM     30  O   UNL     1       0.256  16.301  18.532  0.00  0.00    +0.000 OA
ENDBRANCH  25  28
ENDBRANCH  19  22
ENDBRANCH   1  20
TORSDOF 4
ENDMDL
MODEL 9
REMARK VINA RESULT:      -6.9      6.891      8.818
REMARK  Name = 
REMARK  4 active torsions:
REMARK  status: ('A' for Active; 'I' for Inactive)
REMARK    1  A    between atoms: C_2  and  C_20
REMARK    2  A    between atoms: N_3  and  N_4
REMARK    3  A    between atoms: C_14  and  C_15
REMARK    4  A    between atoms: C_23  and  N_24
REMARK                            x       y       z     vdW  Elec       q    Type
REMARK                         _______ _______ _______ _____ _____    ______ ____
ROOT
ATOM      1  N   UNL     1      -0.053  12.808  20.236  0.00  0.00    +0.000 N 
ATOM      2  C   UNL     1       0.902  13.538  20.953  0.00  0.00    +0.000 C 
ATOM      3  O   UNL     1       0.889  13.758  22.156  0.00  0.00    +0.000 OA
ATOM      4  C   UNL     1       1.943  14.130  20.100  0.00  0.00    +0.000 A 
ATOM      5  C   UNL     1       2.631  15.270  20.530  0.00  0.00    +0.000 A 
ATOM      6  C   UNL     1       3.582  15.854  19.698  0.00  0.00    +0.000 A 
ATOM      7  C   UNL     1       3.838  15.291  18.448  0.00  0.00    +0.000 A 
ATOM      8  C   UNL     1       3.126  14.162  18.021  0.00  0.00    +0.000 A 
ATOM      9  C   UNL     1       2.142  13.585  18.830  0.00  0.00    +0.000 A 
ATOM     10  N   UNL     1       1.485  12.435  18.418  0.00  0.00    +0.000 N 
ATOM     11  C   UNL     1       0.445  11.842  19.257  0.00  0.00    +0.000 C 
ATOM     12  H   UNL     1       1.341  12.340  17.420  0.00  0.00    +0.000 HD
ENDROOT
BRANCH  11  13
ATOM     13  C   UNL     1      -0.687  11.286  18.439  0.00  0.00    +0.000 A 
ATOM     14  C   UNL     1      -1.060   9.999  18.096  0.00  0.00    +0.000 A 
ATOM     15  C   UNL     1      -2.233  10.114  17.326  0.00  0.00    +0.000 A 
ATOM     16  C   UNL     1      -2.510  11.462  17.243  0.00  0.00    +0.000 A 
ATOM     17  O   UNL     1      -1.568  12.177  17.906  0.00  0.00    +0.000 OA
ENDBRANCH  11  13
BRANCH   1  20
ATOM     18  O   UNL     1      -2.202  14.541  20.469  0.00  0.00    +0.000 OA
ATOM     19  C   UNL     1      -2.265  13.427  20.987  0.00  0.00    +0.000 C 
ATOM     20  N   UNL     1      -1.258  12.467  20.939  0.00  0.00    +0.000 N 
ATOM     21  H   UNL     1      -1.413  11.497  21.195  0.00  0.00    +0.000 HD
BRANCH  19  22
ATOM     22  C   UNL     1      -3.516  13.069  21.679  0.00  0.00    +0.000 A 
ATOM     23  C   UNL     1      -4.718  12.851  20.997  0.00  0.00    +0.000 A 
ATOM     24  C   UNL     1      -5.898  12.664  21.727  0.00  0.00    +0.000 A 
ATOM     25  C   UNL     1      -5.864  12.689  23.131  0.00  0.00    +0.000 A 
ATOM     26  C   UNL     1      -4.661  12.887  23.816  0.00  0.00    +0.000 A 
ATOM     27  C   UNL     1      -3.489  13.077  23.083  0.00  0.00    +0.000 A 
BRANCH  25  28
ATOM     28  N   UNL     1      -7.111  12.533  23.895  0.00  0.00    +0.000 N 
ATOM     29  O   UNL     1      -7.552  13.533  24.479  0.00  0.00    +0.000 OA
ATOM     30  O   UNL     1      -7.644  11.415  23.911  0.00  0.00    +0.000 OA
ENDBRANCH  25  28
ENDBRANCH  19  22
ENDBRANCH   1  20
TORSDOF 4
ENDMDL
