MODEL 1
REMARK VINA RESULT:      -7.7      0.000      0.000
REMARK  Name = 
REMARK  11 active torsions:
REMARK  status: ('A' for Active; 'I' for Inactive)
REMARK    1  A    between atoms: C_2  and  O_3
REMARK    2  A    between atoms: C_2  and  C_4
REMARK    3  A    between atoms: C_4  and  C_5
REMARK    4  A    between atoms: C_5  and  C_6
REMARK    5  A    between atoms: C_6  and  C_7
REMARK    6  A    between atoms: C_7  and  C_8
REMARK    7  A    between atoms: C_8  and  C_9
REMARK    8  A    between atoms: C_9  and  C_10
REMARK    9  A    between atoms: C_10  and  N_11
REMARK   10  A    between atoms: C_13  and  C_14
REMARK   11  A    between atoms: C_20  and  C_21
REMARK                            x       y       z     vdW  Elec       q    Type
REMARK                         _______ _______ _______ _____ _____    ______ ____
ROOT
ATOM      1  N   UNL     1       6.293   6.336  17.553  0.00  0.00    +0.000 N 
ATOM      2  C   UNL     1       5.204   7.107  17.897  0.00  0.00    +0.000 A 
ATOM      3  C   UNL     1       4.072   6.567  18.358  0.00  0.00    +0.000 A 
ATOM      4  C   UNL     1       4.116   5.077  18.482  0.00  0.00    +0.000 A 
ATOM      5  N   UNL     1       5.147   4.351  18.177  0.00  0.00    +0.000 NA
ATOM      6  C   UNL     1       6.273   4.945  17.676  0.00  0.00    +0.000 A 
ATOM      7  O   UNL     1       7.236   4.254  17.320  0.00  0.00    +0.000 OA
ENDROOT
BRANCH   3   8
ATOM      8  C   UNL     1       2.942   7.445  18.665  0.00  0.00    +0.000 A 
ATOM      9  C   UNL     1       2.361   7.431  19.944  0.00  0.00    +0.000 A 
ATOM     10  C   UNL     1       1.194   8.150  20.179  0.00  0.00    +0.000 A 
ATOM     11  C   UNL     1       0.650   8.957  19.178  0.00  0.00    +0.000 A 
ATOM     12  C   UNL     1       1.282   9.066  17.942  0.00  0.00    +0.000 A 
ATOM     13  C   UNL     1       2.411   8.288  17.676  0.00  0.00    +0.000 A 
ENDBRANCH   3   8
BRANCH   4  14
ATOM     14  C   UNL     1       2.894   4.379  18.955  0.00  0.00    +0.000 A 
ATOM     15  C   UNL     1       1.922   4.000  18.031  0.00  0.00    +0.000 A 
ATOM     16  C   UNL     1       0.758   3.371  18.472  0.00  0.00    +0.000 A 
ATOM     17  C   UNL     1       0.581   3.106  19.831  0.00  0.00    +0.000 A 
ATOM     18  C   UNL     1       1.555   3.444  20.749  0.00  0.00    +0.000 A 
ATOM     19  C   UNL     1       2.698   4.080  20.298  0.00  0.00    +0.000 A 
ENDBRANCH   4  14
BRANCH   1  20
ATOM     20  C   UNL     1       7.494   6.980  17.036  0.00  0.00    +0.000 C 
BRANCH  20  21
ATOM     21  C   UNL     1       8.200   7.813  18.104  0.00  0.00    +0.000 C 
BRANCH  21  22
ATOM     22  C   UNL     1       8.163   9.299  17.760  0.00  0.00    +0.000 C 
BRANCH  22  23
ATOM     23  C   UNL     1       9.029  10.079  18.741  0.00  0.00    +0.000 C 
BRANCH  23  24
ATOM     24  C   UNL     1       9.759  11.228  18.051  0.00  0.00    +0.000 C 
BRANCH  24  25
ATOM     25  C   UNL     1      11.051  11.552  18.803  0.00  0.00    +0.000 C 
BRANCH  25  26
ATOM     26  C   UNL     1      11.988  12.426  17.967  0.00  0.00    +0.000 C 
BRANCH  26  28
ATOM     27  O   UNL     1      10.617  14.388  17.677  0.00  0.00    +0.000 OA
ATOM     28  C   UNL     1      11.267  13.505  17.175  0.00  0.00    +0.000 C 
BRANCH  28  29
ATOM     29  O   UNL     1      11.406  13.401  15.830  0.00  0.00    +0.000 OA
ATOM     30  H   UNL     1      10.717  13.799  15.268  0.00  0.00    +0.000 HD
ENDBRANCH  28  29
ENDBRANCH  26  28
ENDBRANCH  25  26
ENDBRANCH  24  25
ENDBRANCH  23  24
ENDBRANCH  22  23
ENDBRANCH  21  22
ENDBRANCH  20  21
ENDBRANCH   1  20
TORSDOF 11
ENDMDL
MODEL 2
REMARK VINA RESULT:      -7.6      3.968      7.519
REMARK  Name = 
REMARK  11 active torsions:
REMARK  status: ('A' for Active; 'I' for Inactive)
REMARK    1  A    between atoms: C_2  and  O_3
REMARK    2  A    between atoms: C_2  and  C_4
REMARK    3  A    between atoms: C_4  and  C_5
REMARK    4  A    between atoms: C_5  and  C_6
REMARK    5  A    between atoms: C_6  and  C_7
REMARK    6  A    between atoms: C_7  and  C_8
REMARK    7  A    between atoms: C_8  and  C_9
REMARK    8  A    between atoms: C_9  and  C_10
REMARK    9  A    between atoms: C_10  and  N_11
REMARK   10  A    between atoms: C_13  and  C_14
REMARK   11  A    between atoms: C_20  and  C_21
REMARK                            x       y       z     vdW  Elec       q    Type
REMARK                         _______ _______ _______ _____ _____    ______ ____
ROOT
ATOM      1  N   UNL     1       5.834   5.109  16.983  0.00  0.00    +0.000 N 
ATOM      2  C   UNL     1       4.813   4.445  17.629  0.00  0.00    +0.000 A 
ATOM      3  C   UNL     1       3.793   5.096  18.195  0.00  0.00    +0.000 A 
ATOM      4  C   UNL     1       3.857   6.582  18.038  0.00  0.00    +0.000 A 
ATOM      5  N   UNL     1       4.807   7.208  17.413  0.00  0.00    +0.000 NA
ATOM      6  C   UNL     1       5.850   6.502  16.879  0.00  0.00    +0.000 A 
ATOM      7  O   UNL     1       6.793   7.095  16.340  0.00  0.00    +0.000 OA
ENDROOT
BRANCH   3   8
ATOM      8  C   UNL     1       2.765   4.328  18.899  0.00  0.00    +0.000 A 
ATOM      9  C   UNL     1       1.607   3.908  18.224  0.00  0.00    +0.000 A 
ATOM     10  C   UNL     1       0.569   3.317  18.937  0.00  0.00    +0.000 A 
ATOM     11  C   UNL     1       0.712   3.056  20.301  0.00  0.00    +0.000 A 
ATOM     12  C   UNL     1       1.901   3.365  20.956  0.00  0.00    +0.000 A 
ATOM     13  C   UNL     1       2.916   4.026  20.262  0.00  0.00    +0.000 A 
ENDBRANCH   3   8
BRANCH   4  14
ATOM     14  C   UNL     1       2.785   7.398  18.661  0.00  0.00    +0.000 A 
ATOM     15  C   UNL     1       2.149   8.382  17.907  0.00  0.00    +0.000 A 
ATOM     16  C   UNL     1       1.161   9.172  18.496  0.00  0.00    +0.000 A 
ATOM     17  C   UNL     1       0.799   8.959  19.827  0.00  0.00    +0.000 A 
ATOM     18  C   UNL     1       1.398   7.961  20.571  0.00  0.00    +0.000 A 
ATOM     19  C   UNL     1       2.386   7.195  19.977  0.00  0.00    +0.000 A 
ENDBRANCH   4  14
BRANCH   1  20
ATOM     20  C   UNL     1       6.931   4.347  16.402  0.00  0.00    +0.000 C 
BRANCH  20  21
ATOM     21  C   UNL     1       7.082   4.612  14.906  0.00  0.00    +0.000 C 
BRANCH  21  22
ATOM     22  C   UNL     1       6.051   3.830  14.099  0.00  0.00    +0.000 C 
BRANCH  22  23
ATOM     23  C   UNL     1       6.350   3.958  12.611  0.00  0.00    +0.000 C 
BRANCH  23  24
ATOM     24  C   UNL     1       5.979   2.687  11.853  0.00  0.00    +0.000 C 
BRANCH  24  25
ATOM     25  C   UNL     1       4.484   2.688  11.530  0.00  0.00    +0.000 C 
BRANCH  25  26
ATOM     26  C   UNL     1       4.053   3.989  10.848  0.00  0.00    +0.000 C 
BRANCH  26  28
ATOM     27  O   UNL     1       2.432   2.781   9.534  0.00  0.00    +0.000 OA
ATOM     28  C   UNL     1       3.097   3.776   9.685  0.00  0.00    +0.000 C 
BRANCH  28  29
ATOM     29  O   UNL     1       3.045   4.807   8.806  0.00  0.00    +0.000 OA
ATOM     30  H   UNL     1       3.887   5.156   8.463  0.00  0.00    +0.000 HD
ENDBRANCH  28  29
ENDBRANCH  26  28
ENDBRANCH  25  26
ENDBRANCH  24  25
ENDBRANCH  23  24
ENDBRANCH  22  23
ENDBRANCH  21  22
ENDBRANCH  20  21
ENDBRANCH   1  20
TORSDOF 11
ENDMDL
MODEL 3
REMARK VINA RESULT:      -7.6      0.572      1.483
REMARK  Name = 
REMARK  11 active torsions:
REMARK  status: ('A' for Active; 'I' for Inactive)
REMARK    1  A    between atoms: C_2  and  O_3
REMARK    2  A    between atoms: C_2  and  C_4
REMARK    3  A    between atoms: C_4  and  C_5
REMARK    4  A    between atoms: C_5  and  C_6
REMARK    5  A    between atoms: C_6  and  C_7
REMARK    6  A    between atoms: C_7  and  C_8
REMARK    7  A    between atoms: C_8  and  C_9
REMARK    8  A    between atoms: C_9  and  C_10
REMARK    9  A    between atoms: C_10  and  N_11
REMARK   10  A    between atoms: C_13  and  C_14
REMARK   11  A    between atoms: C_20  and  C_21
REMARK                            x       y       z     vdW  Elec       q    Type
REMARK                         _______ _______ _______ _____ _____    ______ ____
ROOT
ATOM      1  N   UNL     1       6.213   6.405  17.566  0.00  0.00    +0.000 N 
ATOM      2  C   UNL     1       5.100   7.148  17.897  0.00  0.00    +0.000 A 
ATOM      3  C   UNL     1       3.982   6.580  18.357  0.00  0.00    +0.000 A 
ATOM      4  C   UNL     1       4.066   5.093  18.495  0.00  0.00    +0.000 A 
ATOM      5  N   UNL     1       5.119   4.394  18.201  0.00  0.00    +0.000 NA
ATOM      6  C   UNL     1       6.230   5.014  17.700  0.00  0.00    +0.000 A 
ATOM      7  O   UNL     1       7.214   4.347  17.355  0.00  0.00    +0.000 OA
ENDROOT
BRANCH   3   8
ATOM      8  C   UNL     1       2.826   7.429  18.651  0.00  0.00    +0.000 A 
ATOM      9  C   UNL     1       2.281   8.255  17.653  0.00  0.00    +0.000 A 
ATOM     10  C   UNL     1       1.286   9.169  17.984  0.00  0.00    +0.000 A 
ATOM     11  C   UNL     1       0.764   9.206  19.278  0.00  0.00    +0.000 A 
ATOM     12  C   UNL     1       1.219   8.313  20.245  0.00  0.00    +0.000 A 
ATOM     13  C   UNL     1       2.268   7.444  19.939  0.00  0.00    +0.000 A 
ENDBRANCH   3   8
BRANCH   4  14
ATOM     14  C   UNL     1       2.862   4.366  18.968  0.00  0.00    +0.000 A 
ATOM     15  C   UNL     1       2.675   4.168  20.334  0.00  0.00    +0.000 A 
ATOM     16  C   UNL     1       1.560   3.460  20.783  0.00  0.00    +0.000 A 
ATOM     17  C   UNL     1       0.628   2.971  19.866  0.00  0.00    +0.000 A 
ATOM     18  C   UNL     1       0.786   3.194  18.512  0.00  0.00    +0.000 A 
ATOM     19  C   UNL     1       1.904   3.887  18.081  0.00  0.00    +0.000 A 
ENDBRANCH   4  14
BRANCH   1  20
ATOM     20  C   UNL     1       7.398   7.077  17.049  0.00  0.00    +0.000 C 
BRANCH  20  21
ATOM     21  C   UNL     1       8.151   7.829  18.145  0.00  0.00    +0.000 C 
BRANCH  21  22
ATOM     22  C   UNL     1       8.030   9.339  17.963  0.00  0.00    +0.000 C 
BRANCH  22  23
ATOM     23  C   UNL     1       9.375  10.002  18.229  0.00  0.00    +0.000 C 
BRANCH  23  24
ATOM     24  C   UNL     1       9.258  11.107  19.275  0.00  0.00    +0.000 C 
BRANCH  24  25
ATOM     25  C   UNL     1      10.644  11.660  19.609  0.00  0.00    +0.000 C 
BRANCH  25  26
ATOM     26  C   UNL     1      10.781  13.129  19.200  0.00  0.00    +0.000 C 
BRANCH  26  28
ATOM     27  O   UNL     1      11.386  12.939  16.874  0.00  0.00    +0.000 OA
ATOM     28  C   UNL     1      10.622  13.360  17.706  0.00  0.00    +0.000 C 
BRANCH  28  29
ATOM     29  O   UNL     1       9.533  14.095  17.366  0.00  0.00    +0.000 OA
ATOM     30  H   UNL     1       9.624  14.729  16.632  0.00  0.00    +0.000 HD
ENDBRANCH  28  29
ENDBRANCH  26  28
ENDBRANCH  25  26
ENDBRANCH  24  25
ENDBRANCH  23  24
ENDBRANCH  22  23
ENDBRANCH  21  22
ENDBRANCH  20  21
ENDBRANCH   1  20
TORSDOF 11
ENDMDL
MODEL 4
REMARK VINA RESULT:      -7.5      0.487      1.183
REMARK  Name = 
REMARK  11 active torsions:
REMARK  status: ('A' for Active; 'I' for Inactive)
REMARK    1  A    between atoms: C_2  and  O_3
REMARK    2  A    between atoms: C_2  and  C_4
REMARK    3  A    between atoms: C_4  and  C_5
REMARK    4  A    between atoms: C_5  and  C_6
REMARK    5  A    between atoms: C_6  and  C_7
REMARK    6  A    between atoms: C_7  and  C_8
REMARK    7  A    between atoms: C_8  and  C_9
REMARK    8  A    between atoms: C_9  and  C_10
REMARK    9  A    between atoms: C_10  and  N_11
REMARK   10  A    between atoms: C_13  and  C_14
REMARK   11  A    between atoms: C_20  and  C_21
REMARK                            x       y       z     vdW  Elec       q    Type
REMARK                         _______ _______ _______ _____ _____    ______ ____
ROOT
ATOM      1  N   UNL     1       6.108   6.282  17.248  0.00  0.00    +0.000 N 
ATOM      2  C   UNL     1       5.033   7.044  17.653  0.00  0.00    +0.000 A 
ATOM      3  C   UNL     1       3.942   6.496  18.195  0.00  0.00    +0.000 A 
ATOM      4  C   UNL     1       4.014   5.008  18.336  0.00  0.00    +0.000 A 
ATOM      5  N   UNL     1       5.032   4.291  17.972  0.00  0.00    +0.000 NA
ATOM      6  C   UNL     1       6.115   4.892  17.390  0.00  0.00    +0.000 A 
ATOM      7  O   UNL     1       7.061   4.209  16.981  0.00  0.00    +0.000 OA
ENDROOT
BRANCH   3   8
ATOM      8  C   UNL     1       2.822   7.363  18.564  0.00  0.00    +0.000 A 
ATOM      9  C   UNL     1       2.300   8.280  17.637  0.00  0.00    +0.000 A 
ATOM     10  C   UNL     1       1.344   9.205  18.045  0.00  0.00    +0.000 A 
ATOM     11  C   UNL     1       0.837   9.166  19.345  0.00  0.00    +0.000 A 
ATOM     12  C   UNL     1       1.266   8.188  20.239  0.00  0.00    +0.000 A 
ATOM     13  C   UNL     1       2.278   7.306  19.857  0.00  0.00    +0.000 A 
ENDBRANCH   3   8
BRANCH   4  14
ATOM     14  C   UNL     1       2.835   4.302  18.897  0.00  0.00    +0.000 A 
ATOM     15  C   UNL     1       1.786   3.944  18.052  0.00  0.00    +0.000 A 
ATOM     16  C   UNL     1       0.662   3.307  18.579  0.00  0.00    +0.000 A 
ATOM     17  C   UNL     1       0.602   3.012  19.942  0.00  0.00    +0.000 A 
ATOM     18  C   UNL     1       1.653   3.330  20.780  0.00  0.00    +0.000 A 
ATOM     19  C   UNL     1       2.755   3.975  20.246  0.00  0.00    +0.000 A 
ENDBRANCH   4  14
BRANCH   1  20
ATOM     20  C   UNL     1       7.263   6.933  16.645  0.00  0.00    +0.000 C 
BRANCH  20  21
ATOM     21  C   UNL     1       8.173   7.569  17.694  0.00  0.00    +0.000 C 
BRANCH  21  22
ATOM     22  C   UNL     1       7.890   9.061  17.841  0.00  0.00    +0.000 C 
BRANCH  22  23
ATOM     23  C   UNL     1       9.017   9.729  18.618  0.00  0.00    +0.000 C 
BRANCH  23  24
ATOM     24  C   UNL     1       8.875  11.248  18.617  0.00  0.00    +0.000 C 
BRANCH  24  25
ATOM     25  C   UNL     1      10.167  11.894  19.118  0.00  0.00    +0.000 C 
BRANCH  25  26
ATOM     26  C   UNL     1      11.299  11.765  18.096  0.00  0.00    +0.000 C 
BRANCH  26  28
ATOM     27  O   UNL     1      12.332  13.184  16.443  0.00  0.00    +0.000 OA
ATOM     28  C   UNL     1      11.704  13.088  17.469  0.00  0.00    +0.000 C 
BRANCH  28  29
ATOM     29  O   UNL     1      11.304  14.183  18.162  0.00  0.00    +0.000 OA
ATOM     30  H   UNL     1      11.865  14.487  18.898  0.00  0.00    +0.000 HD
ENDBRANCH  28  29
ENDBRANCH  26  28
ENDBRANCH  25  26
ENDBRANCH  24  25
ENDBRANCH  23  24
ENDBRANCH  22  23
ENDBRANCH  21  22
ENDBRANCH  20  21
ENDBRANCH   1  20
TORSDOF 11
ENDMDL
MODEL 5
REMARK VINA RESULT:      -7.5      1.160      1.735
REMARK  Name = 
REMARK  11 active torsions:
REMARK  status: ('A' for Active; 'I' for Inactive)
REMARK    1  A    between atoms: C_2  and  O_3
REMARK    2  A    between atoms: C_2  and  C_4
REMARK    3  A    between atoms: C_4  and  C_5
REMARK    4  A    between atoms: C_5  and  C_6
REMARK    5  A    between atoms: C_6  and  C_7
REMARK    6  A    between atoms: C_7  and  C_8
REMARK    7  A    between atoms: C_8  and  C_9
REMARK    8  A    between atoms: C_9  and  C_10
REMARK    9  A    between atoms: C_10  and  N_11
REMARK   10  A    between atoms: C_13  and  C_14
REMARK   11  A    between atoms: C_20  and  C_21
REMARK                            x       y       z     vdW  Elec       q    Type
REMARK                         _______ _______ _______ _____ _____    ______ ____
ROOT
ATOM      1  N   UNL     1       6.215   6.364  17.595  0.00  0.00    +0.000 N 
ATOM      2  C   UNL     1       5.101   7.109  17.917  0.00  0.00    +0.000 A 
ATOM      3  C   UNL     1       3.983   6.544  18.382  0.00  0.00    +0.000 A 
ATOM      4  C   UNL     1       4.071   5.059  18.538  0.00  0.00    +0.000 A 
ATOM      5  N   UNL     1       5.125   4.358  18.254  0.00  0.00    +0.000 NA
ATOM      6  C   UNL     1       6.236   4.975  17.747  0.00  0.00    +0.000 A 
ATOM      7  O   UNL     1       7.222   4.306  17.412  0.00  0.00    +0.000 OA
ENDROOT
BRANCH   3   8
ATOM      8  C   UNL     1       2.825   7.393  18.664  0.00  0.00    +0.000 A 
ATOM      9  C   UNL     1       2.273   8.198  17.652  0.00  0.00    +0.000 A 
ATOM     10  C   UNL     1       1.275   9.114  17.969  0.00  0.00    +0.000 A 
ATOM     11  C   UNL     1       0.758   9.174  19.264  0.00  0.00    +0.000 A 
ATOM     12  C   UNL     1       1.220   8.301  20.246  0.00  0.00    +0.000 A 
ATOM     13  C   UNL     1       2.272   7.432  19.954  0.00  0.00    +0.000 A 
ENDBRANCH   3   8
BRANCH   4  14
ATOM     14  C   UNL     1       2.867   4.335  19.018  0.00  0.00    +0.000 A 
ATOM     15  C   UNL     1       1.935   3.868  18.092  0.00  0.00    +0.000 A 
ATOM     16  C   UNL     1       0.787   3.213  18.538  0.00  0.00    +0.000 A 
ATOM     17  C   UNL     1       0.587   3.010  19.904  0.00  0.00    +0.000 A 
ATOM     18  C   UNL     1       1.522   3.436  20.826  0.00  0.00    +0.000 A 
ATOM     19  C   UNL     1       2.650   4.096  20.370  0.00  0.00    +0.000 A 
ENDBRANCH   4  14
BRANCH   1  20
ATOM     20  C   UNL     1       7.399   7.032  17.073  0.00  0.00    +0.000 C 
BRANCH  20  21
ATOM     21  C   UNL     1       8.196   7.728  18.175  0.00  0.00    +0.000 C 
BRANCH  21  22
ATOM     22  C   UNL     1       8.238   9.238  17.957  0.00  0.00    +0.000 C 
BRANCH  22  23
ATOM     23  C   UNL     1       9.125   9.889  19.011  0.00  0.00    +0.000 C 
BRANCH  23  24
ATOM     24  C   UNL     1       9.815  11.137  18.470  0.00  0.00    +0.000 C 
BRANCH  24  25
ATOM     25  C   UNL     1       8.795  12.036  17.769  0.00  0.00    +0.000 C 
BRANCH  25  26
ATOM     26  C   UNL     1       8.930  13.496  18.209  0.00  0.00    +0.000 C 
BRANCH  26  28
ATOM     27  O   UNL     1      10.535  13.956  19.948  0.00  0.00    +0.000 OA
ATOM     28  C   UNL     1       9.408  13.656  19.643  0.00  0.00    +0.000 C 
BRANCH  28  29
ATOM     29  O   UNL     1       8.454  13.428  20.580  0.00  0.00    +0.000 OA
ATOM     30  H   UNL     1       8.234  14.154  21.192  0.00  0.00    +0.000 HD
ENDBRANCH  28  29
ENDBRANCH  26  28
ENDBRANCH  25  26
ENDBRANCH  24  25
ENDBRANCH  23  24
ENDBRANCH  22  23
ENDBRANCH  21  22
ENDBRANCH  20  21
ENDBRANCH   1  20
TORSDOF 11
ENDMDL
MODEL 6
REMARK VINA RESULT:      -7.5      1.235      1.760
REMARK  Name = 
REMARK  11 active torsions:
REMARK  status: ('A' for Active; 'I' for Inactive)
REMARK    1  A    between atoms: C_2  and  O_3
REMARK    2  A    between atoms: C_2  and  C_4
REMARK    3  A    between atoms: C_4  and  C_5
REMARK    4  A    between atoms: C_5  and  C_6
REMARK    5  A    between atoms: C_6  and  C_7
REMARK    6  A    between atoms: C_7  and  C_8
REMARK    7  A    between atoms: C_8  and  C_9
REMARK    8  A    between atoms: C_9  and  C_10
REMARK    9  A    between atoms: C_10  and  N_11
REMARK   10  A    between atoms: C_13  and  C_14
REMARK   11  A    between atoms: C_20  and  C_21
REMARK                            x       y       z     vdW  Elec       q    Type
REMARK                         _______ _______ _______ _____ _____    ______ ____
ROOT
ATOM      1  N   UNL     1       6.185   6.390  17.572  0.00  0.00    +0.000 N 
ATOM      2  C   UNL     1       5.082   7.142  17.914  0.00  0.00    +0.000 A 
ATOM      3  C   UNL     1       3.959   6.581  18.374  0.00  0.00    +0.000 A 
ATOM      4  C   UNL     1       4.030   5.092  18.500  0.00  0.00    +0.000 A 
ATOM      5  N   UNL     1       5.074   4.385  18.196  0.00  0.00    +0.000 NA
ATOM      6  C   UNL     1       6.190   4.999  17.696  0.00  0.00    +0.000 A 
ATOM      7  O   UNL     1       7.166   4.325  17.342  0.00  0.00    +0.000 OA
ENDROOT
BRANCH   3   8
ATOM      8  C   UNL     1       2.813   7.438  18.679  0.00  0.00    +0.000 A 
ATOM      9  C   UNL     1       2.248   8.249  17.680  0.00  0.00    +0.000 A 
ATOM     10  C   UNL     1       1.264   9.173  18.017  0.00  0.00    +0.000 A 
ATOM     11  C   UNL     1       0.771   9.233  19.321  0.00  0.00    +0.000 A 
ATOM     12  C   UNL     1       1.245   8.355  20.293  0.00  0.00    +0.000 A 
ATOM     13  C   UNL     1       2.284   7.478  19.979  0.00  0.00    +0.000 A 
ENDBRANCH   3   8
BRANCH   4  14
ATOM     14  C   UNL     1       2.820   4.373  18.972  0.00  0.00    +0.000 A 
ATOM     15  C   UNL     1       1.891   3.914  18.041  0.00  0.00    +0.000 A 
ATOM     16  C   UNL     1       0.737   3.264  18.479  0.00  0.00    +0.000 A 
ATOM     17  C   UNL     1       0.529   3.057  19.844  0.00  0.00    +0.000 A 
ATOM     18  C   UNL     1       1.462   3.476  20.772  0.00  0.00    +0.000 A 
ATOM     19  C   UNL     1       2.595   4.132  20.322  0.00  0.00    +0.000 A 
ENDBRANCH   4  14
BRANCH   1  20
ATOM     20  C   UNL     1       7.375   7.055  17.056  0.00  0.00    +0.000 C 
BRANCH  20  21
ATOM     21  C   UNL     1       8.188   7.714  18.168  0.00  0.00    +0.000 C 
BRANCH  21  22
ATOM     22  C   UNL     1       8.303   9.220  17.951  0.00  0.00    +0.000 C 
BRANCH  22  23
ATOM     23  C   UNL     1       9.002   9.864  19.142  0.00  0.00    +0.000 C 
BRANCH  23  24
ATOM     24  C   UNL     1       9.428  11.296  18.834  0.00  0.00    +0.000 C 
BRANCH  24  25
ATOM     25  C   UNL     1      10.954  11.404  18.856  0.00  0.00    +0.000 C 
BRANCH  25  26
ATOM     26  C   UNL     1      11.442  12.294  20.002  0.00  0.00    +0.000 C 
BRANCH  26  28
ATOM     27  O   UNL     1       9.777  12.302  21.745  0.00  0.00    +0.000 OA
ATOM     28  C   UNL     1      10.315  12.882  20.836  0.00  0.00    +0.000 C 
BRANCH  28  29
ATOM     29  O   UNL     1       9.945  14.136  20.473  0.00  0.00    +0.000 OA
ATOM     30  H   UNL     1      10.439  14.566  19.752  0.00  0.00    +0.000 HD
ENDBRANCH  28  29
ENDBRANCH  26  28
ENDBRANCH  25  26
ENDBRANCH  24  25
ENDBRANCH  23  24
ENDBRANCH  22  23
ENDBRANCH  21  22
ENDBRANCH  20  21
ENDBRANCH   1  20
TORSDOF 11
ENDMDL
MODEL 7
REMARK VINA RESULT:      -7.5      1.248      1.903
REMARK  Name = 
REMARK  11 active torsions:
REMARK  status: ('A' for Active; 'I' for Inactive)
REMARK    1  A    between atoms: C_2  and  O_3
REMARK    2  A    between atoms: C_2  and  C_4
REMARK    3  A    between atoms: C_4  and  C_5
REMARK    4  A    between atoms: C_5  and  C_6
REMARK    5  A    between atoms: C_6  and  C_7
REMARK    6  A    between atoms: C_7  and  C_8
REMARK    7  A    between atoms: C_8  and  C_9
REMARK    8  A    between atoms: C_9  and  C_10
REMARK    9  A    between atoms: C_10  and  N_11
REMARK   10  A    between atoms: C_13  and  C_14
REMARK   11  A    between atoms: C_20  and  C_21
REMARK                            x       y       z     vdW  Elec       q    Type
REMARK                         _______ _______ _______ _____ _____    ______ ____
ROOT
ATOM      1  N   UNL     1       6.267   6.359  17.537  0.00  0.00    +0.000 N 
ATOM      2  C   UNL     1       5.159   7.107  17.871  0.00  0.00    +0.000 A 
ATOM      3  C   UNL     1       4.034   6.544  18.320  0.00  0.00    +0.000 A 
ATOM      4  C   UNL     1       4.108   5.055  18.445  0.00  0.00    +0.000 A 
ATOM      5  N   UNL     1       5.156   4.350  18.149  0.00  0.00    +0.000 NA
ATOM      6  C   UNL     1       6.274   4.967  17.659  0.00  0.00    +0.000 A 
ATOM      7  O   UNL     1       7.255   4.296  17.312  0.00  0.00    +0.000 OA
ENDROOT
BRANCH   3   8
ATOM      8  C   UNL     1       2.884   7.398  18.617  0.00  0.00    +0.000 A 
ATOM      9  C   UNL     1       2.342   8.229  17.621  0.00  0.00    +0.000 A 
ATOM     10  C   UNL     1       1.353   9.148  17.954  0.00  0.00    +0.000 A 
ATOM     11  C   UNL     1       0.833   9.185  19.249  0.00  0.00    +0.000 A 
ATOM     12  C   UNL     1       1.283   8.288  20.214  0.00  0.00    +0.000 A 
ATOM     13  C   UNL     1       2.328   7.415  19.906  0.00  0.00    +0.000 A 
ENDBRANCH   3   8
BRANCH   4  14
ATOM     14  C   UNL     1       2.895   4.332  18.906  0.00  0.00    +0.000 A 
ATOM     15  C   UNL     1       2.725   4.081  20.266  0.00  0.00    +0.000 A 
ATOM     16  C   UNL     1       1.602   3.377  20.702  0.00  0.00    +0.000 A 
ATOM     17  C   UNL     1       0.647   2.945  19.780  0.00  0.00    +0.000 A 
ATOM     18  C   UNL     1       0.790   3.222  18.434  0.00  0.00    +0.000 A 
ATOM     19  C   UNL     1       1.915   3.910  18.015  0.00  0.00    +0.000 A 
ENDBRANCH   4  14
BRANCH   1  20
ATOM     20  C   UNL     1       7.460   7.027  17.032  0.00  0.00    +0.000 C 
BRANCH  20  21
ATOM     21  C   UNL     1       8.167   7.833  18.120  0.00  0.00    +0.000 C 
BRANCH  21  22
ATOM     22  C   UNL     1       8.126   9.327  17.815  0.00  0.00    +0.000 C 
BRANCH  22  23
ATOM     23  C   UNL     1       9.020  10.080  18.792  0.00  0.00    +0.000 C 
BRANCH  23  24
ATOM     24  C   UNL     1       9.986  11.011  18.065  0.00  0.00    +0.000 C 
BRANCH  24  25
ATOM     25  C   UNL     1       9.397  12.421  17.991  0.00  0.00    +0.000 C 
BRANCH  25  26
ATOM     26  C   UNL     1      10.305  13.450  18.668  0.00  0.00    +0.000 C 
BRANCH  26  28
ATOM     27  O   UNL     1      10.274  13.387  21.078  0.00  0.00    +0.000 OA
ATOM     28  C   UNL     1       9.836  13.854  20.056  0.00  0.00    +0.000 C 
BRANCH  28  29
ATOM     29  O   UNL     1       8.862  14.799  20.066  0.00  0.00    +0.000 OA
ATOM     30  H   UNL     1       9.065  15.666  19.670  0.00  0.00    +0.000 HD
ENDBRANCH  28  29
ENDBRANCH  26  28
ENDBRANCH  25  26
ENDBRANCH  24  25
ENDBRANCH  23  24
ENDBRANCH  22  23
ENDBRANCH  21  22
ENDBRANCH  20  21
ENDBRANCH   1  20
TORSDOF 11
ENDMDL
MODEL 8
REMARK VINA RESULT:      -7.3      3.871      7.306
REMARK  Name = 
REMARK  11 active torsions:
REMARK  status: ('A' for Active; 'I' for Inactive)
REMARK    1  A    between atoms: C_2  and  O_3
REMARK    2  A    between atoms: C_2  and  C_4
REMARK    3  A    between atoms: C_4  and  C_5
REMARK    4  A    between atoms: C_5  and  C_6
REMARK    5  A    between atoms: C_6  and  C_7
REMARK    6  A    between atoms: C_7  and  C_8
REMARK    7  A    between atoms: C_8  and  C_9
REMARK    8  A    between atoms: C_9  and  C_10
REMARK    9  A    between atoms: C_10  and  N_11
REMARK   10  A    between atoms: C_13  and  C_14
REMARK   11  A    between atoms: C_20  and  C_21
REMARK                            x       y       z     vdW  Elec       q    Type
REMARK                         _______ _______ _______ _____ _____    ______ ____
ROOT
ATOM      1  N   UNL     1       5.840   5.262  17.202  0.00  0.00    +0.000 N 
ATOM      2  C   UNL     1       4.810   4.600  17.835  0.00  0.00    +0.000 A 
ATOM      3  C   UNL     1       3.760   5.250  18.346  0.00  0.00    +0.000 A 
ATOM      4  C   UNL     1       3.804   6.732  18.144  0.00  0.00    +0.000 A 
ATOM      5  N   UNL     1       4.764   7.354  17.532  0.00  0.00    +0.000 NA
ATOM      6  C   UNL     1       5.836   6.651  17.055  0.00  0.00    +0.000 A 
ATOM      7  O   UNL     1       6.787   7.245  16.529  0.00  0.00    +0.000 OA
ENDROOT
BRANCH   3   8
ATOM      8  C   UNL     1       2.723   4.485  19.040  0.00  0.00    +0.000 A 
ATOM      9  C   UNL     1       1.631   3.964  18.326  0.00  0.00    +0.000 A 
ATOM     10  C   UNL     1       0.575   3.375  19.015  0.00  0.00    +0.000 A 
ATOM     11  C   UNL     1       0.638   3.220  20.401  0.00  0.00    +0.000 A 
ATOM     12  C   UNL     1       1.768   3.632  21.104  0.00  0.00    +0.000 A 
ATOM     13  C   UNL     1       2.796   4.289  20.428  0.00  0.00    +0.000 A 
ENDBRANCH   3   8
BRANCH   4  14
ATOM     14  C   UNL     1       2.698   7.546  18.705  0.00  0.00    +0.000 A 
ATOM     15  C   UNL     1       2.074   8.499  17.901  0.00  0.00    +0.000 A 
ATOM     16  C   UNL     1       1.053   9.288  18.431  0.00  0.00    +0.000 A 
ATOM     17  C   UNL     1       0.648   9.107  19.755  0.00  0.00    +0.000 A 
ATOM     18  C   UNL     1       1.235   8.141  20.547  0.00  0.00    +0.000 A 
ATOM     19  C   UNL     1       2.256   7.375  20.011  0.00  0.00    +0.000 A 
ENDBRANCH   4  14
BRANCH   1  20
ATOM     20  C   UNL     1       6.970   4.502  16.683  0.00  0.00    +0.000 C 
BRANCH  20  21
ATOM     21  C   UNL     1       6.592   3.691  15.446  0.00  0.00    +0.000 C 
BRANCH  21  22
ATOM     22  C   UNL     1       6.039   4.588  14.343  0.00  0.00    +0.000 C 
BRANCH  22  23
ATOM     23  C   UNL     1       7.086   4.777  13.254  0.00  0.00    +0.000 C 
BRANCH  23  24
ATOM     24  C   UNL     1       6.974   3.704  12.175  0.00  0.00    +0.000 C 
BRANCH  24  25
ATOM     25  C   UNL     1       5.506   3.485  11.806  0.00  0.00    +0.000 C 
BRANCH  25  26
ATOM     26  C   UNL     1       5.216   2.018  11.481  0.00  0.00    +0.000 C 
BRANCH  26  28
ATOM     27  O   UNL     1       7.443   1.656  10.631  0.00  0.00    +0.000 OA
ATOM     28  C   UNL     1       6.464   1.207  11.173  0.00  0.00    +0.000 C 
BRANCH  28  29
ATOM     29  O   UNL     1       6.397  -0.093  11.557  0.00  0.00    +0.000 OA
ATOM     30  H   UNL     1       7.077  -0.703  11.218  0.00  0.00    +0.000 HD
ENDBRANCH  28  29
ENDBRANCH  26  28
ENDBRANCH  25  26
ENDBRANCH  24  25
ENDBRANCH  23  24
ENDBRANCH  22  23
ENDBRANCH  21  22
ENDBRANCH  20  21
ENDBRANCH   1  20
TORSDOF 11
ENDMDL
MODEL 9
REMARK VINA RESULT:      -7.3      1.211      1.463
REMARK  Name = 
REMARK  11 active torsions:
REMARK  status: ('A' for Active; 'I' for Inactive)
REMARK    1  A    between atoms: C_2  and  O_3
REMARK    2  A    between atoms: C_2  and  C_4
REMARK    3  A    between atoms: C_4  and  C_5
REMARK    4  A    between atoms: C_5  and  C_6
REMARK    5  A    between atoms: C_6  and  C_7
REMARK    6  A    between atoms: C_7  and  C_8
REMARK    7  A    between atoms: C_8  and  C_9
REMARK    8  A    between atoms: C_9  and  C_10
REMARK    9  A    between atoms: C_10  and  N_11
REMARK   10  A    between atoms: C_13  and  C_14
REMARK   11  A    between atoms: C_20  and  C_21
REMARK                            x       y       z     vdW  Elec       q    Type
REMARK                         _______ _______ _______ _____ _____    ______ ____
ROOT
ATOM      1  N   UNL     1       6.299   6.335  17.472  0.00  0.00    +0.000 N 
ATOM      2  C   UNL     1       5.216   7.095  17.857  0.00  0.00    +0.000 A 
ATOM      3  C   UNL     1       4.091   6.541  18.320  0.00  0.00    +0.000 A 
ATOM      4  C   UNL     1       4.136   5.048  18.398  0.00  0.00    +0.000 A 
ATOM      5  N   UNL     1       5.162   4.332  18.054  0.00  0.00    +0.000 NA
ATOM      6  C   UNL     1       6.280   4.941  17.552  0.00  0.00    +0.000 A 
ATOM      7  O   UNL     1       7.236   4.260  17.160  0.00  0.00    +0.000 OA
ENDROOT
BRANCH   3   8
ATOM      8  C   UNL     1       2.967   7.410  18.672  0.00  0.00    +0.000 A 
ATOM      9  C   UNL     1       2.404   7.352  19.958  0.00  0.00    +0.000 A 
ATOM     10  C   UNL     1       1.242   8.065  20.234  0.00  0.00    +0.000 A 
ATOM     11  C   UNL     1       0.686   8.906  19.268  0.00  0.00    +0.000 A 
ATOM     12  C   UNL     1       1.301   9.057  18.028  0.00  0.00    +0.000 A 
ATOM     13  C   UNL     1       2.425   8.288  17.721  0.00  0.00    +0.000 A 
ENDBRANCH   3   8
BRANCH   4  14
ATOM     14  C   UNL     1       2.922   4.337  18.870  0.00  0.00    +0.000 A 
ATOM     15  C   UNL     1       1.883   4.089  17.974  0.00  0.00    +0.000 A 
ATOM     16  C   UNL     1       0.727   3.448  18.418  0.00  0.00    +0.000 A 
ATOM     17  C   UNL     1       0.623   3.039  19.749  0.00  0.00    +0.000 A 
ATOM     18  C   UNL     1       1.662   3.247  20.634  0.00  0.00    +0.000 A 
ATOM     19  C   UNL     1       2.797   3.897  20.183  0.00  0.00    +0.000 A 
ENDBRANCH   4  14
BRANCH   1  20
ATOM     20  C   UNL     1       7.491   6.994  16.955  0.00  0.00    +0.000 C 
BRANCH  20  21
ATOM     21  C   UNL     1       8.207   7.807  18.032  0.00  0.00    +0.000 C 
BRANCH  21  22
ATOM     22  C   UNL     1       8.149   9.300  17.727  0.00  0.00    +0.000 C 
BRANCH  22  23
ATOM     23  C   UNL     1       9.024  10.065  18.712  0.00  0.00    +0.000 C 
BRANCH  23  24
ATOM     24  C   UNL     1       9.895  11.098  18.004  0.00  0.00    +0.000 C 
BRANCH  24  25
ATOM     25  C   UNL     1       9.505  12.507  18.453  0.00  0.00    +0.000 C 
BRANCH  25  26
ATOM     26  C   UNL     1       8.297  13.035  17.676  0.00  0.00    +0.000 C 
BRANCH  26  28
ATOM     27  O   UNL     1       7.341  14.621  19.219  0.00  0.00    +0.000 OA
ATOM     28  C   UNL     1       7.830  14.405  18.138  0.00  0.00    +0.000 C 
BRANCH  28  29
ATOM     29  O   UNL     1       8.003  15.394  17.226  0.00  0.00    +0.000 OA
ATOM     30  H   UNL     1       8.915  15.624  16.971  0.00  0.00    +0.000 HD
ENDBRANCH  28  29
ENDBRANCH  26  28
ENDBRANCH  25  26
ENDBRANCH  24  25
ENDBRANCH  23  24
ENDBRANCH  22  23
ENDBRANCH  21  22
ENDBRANCH  20  21
ENDBRANCH   1  20
TORSDOF 11
ENDMDL
