MODEL 1
REMARK VINA RESULT:      -8.3      0.000      0.000
REMARK  Name = 
REMARK  8 active torsions:
REMARK  status: ('A' for Active; 'I' for Inactive)
REMARK    1  A    between atoms: C_1  and  C_2
REMARK    2  A    between atoms: C_2  and  O_3
REMARK    3  A    between atoms: O_3  and  C_4
REMARK    4  A    between atoms: C_4  and  C_6
REMARK    5  A    between atoms: C_6  and  C_7
REMARK    6  A    between atoms: C_8  and  C_9
REMARK    7  A    between atoms: C_18  and  O_19
REMARK    8  A    between atoms: O_19  and  C_20
REMARK                            x       y       z     vdW  Elec       q    Type
REMARK                         _______ _______ _______ _____ _____    ______ ____
ROOT
ATOM      1  C   UNL     1       3.188   5.252  19.832  0.00  0.00    +0.000 C 
ATOM      2  C   UNL     1       3.236   6.301  18.983  0.00  0.00    +0.000 C 
ATOM      3  C   UNL     1       4.310   6.065  18.018  0.00  0.00    +0.000 A 
ATOM      4  C   UNL     1       4.748   6.840  16.960  0.00  0.00    +0.000 A 
ATOM      5  C   UNL     1       5.811   6.349  16.182  0.00  0.00    +0.000 A 
ATOM      6  C   UNL     1       6.429   5.114  16.465  0.00  0.00    +0.000 A 
ATOM      7  C   UNL     1       5.976   4.341  17.538  0.00  0.00    +0.000 A 
ATOM      8  C   UNL     1       4.924   4.849  18.280  0.00  0.00    +0.000 A 
ATOM      9  C   UNL     1       4.228   4.270  19.420  0.00  0.00    +0.000 C 
ATOM     10  O   UNL     1       4.429   3.182  19.915  0.00  0.00    +0.000 OA
ENDROOT
BRANCH   2  11
ATOM     11  C   UNL     1       2.345   7.455  19.080  0.00  0.00    +0.000 A 
ATOM     12  C   UNL     1       2.015   8.188  17.935  0.00  0.00    +0.000 A 
ATOM     13  C   UNL     1       1.185   9.306  18.034  0.00  0.00    +0.000 A 
ATOM     14  C   UNL     1       0.683   9.694  19.276  0.00  0.00    +0.000 A 
ATOM     15  C   UNL     1       1.004   8.959  20.419  0.00  0.00    +0.000 A 
ATOM     16  C   UNL     1       1.833   7.842  20.321  0.00  0.00    +0.000 A 
ENDBRANCH   2  11
BRANCH   6  17
ATOM     17  O   UNL     1       7.447   4.787  15.615  0.00  0.00    +0.000 OA
ATOM     18  C   UNL     1       7.161   4.809  14.222  0.00  0.00    +0.000 C 
ENDBRANCH   6  17
BRANCH   1  19
ATOM     19  C   UNL     1       2.287   4.967  20.981  0.00  0.00    +0.000 C 
BRANCH  19  20
ATOM     20  C   UNL     1       1.437   3.739  20.727  0.00  0.00    +0.000 C 
ATOM     21  O   UNL     1       1.219   2.832  21.519  0.00  0.00    +0.000 OA
BRANCH  20  22
ATOM     22  O   UNL     1       0.990   3.777  19.435  0.00  0.00    +0.000 OA
BRANCH  22  24
ATOM     23  C   UNL     1       1.974   2.406  17.754  0.00  0.00    +0.000 C 
ATOM     24  C   UNL     1       0.868   2.502  18.789  0.00  0.00    +0.000 C 
ENDBRANCH  22  24
ENDBRANCH  20  22
ENDBRANCH  19  20
ENDBRANCH   1  19
TORSDOF 6
ENDMDL
MODEL 2
REMARK VINA RESULT:      -8.1      1.832      5.282
REMARK  Name = 
REMARK  8 active torsions:
REMARK  status: ('A' for Active; 'I' for Inactive)
REMARK    1  A    between atoms: C_1  and  C_2
REMARK    2  A    between atoms: C_2  and  O_3
REMARK    3  A    between atoms: O_3  and  C_4
REMARK    4  A    between atoms: C_4  and  C_6
REMARK    5  A    between atoms: C_6  and  C_7
REMARK    6  A    between atoms: C_8  and  C_9
REMARK    7  A    between atoms: C_18  and  O_19
REMARK    8  A    between atoms: O_19  and  C_20
REMARK                            x       y       z     vdW  Elec       q    Type
REMARK                         _______ _______ _______ _____ _____    ______ ____
ROOT
ATOM      1  C   UNL     1       3.845   4.544  19.290  0.00  0.00    +0.000 C 
ATOM      2  C   UNL     1       4.120   5.370  18.259  0.00  0.00    +0.000 C 
ATOM      3  C   UNL     1       3.330   6.591  18.422  0.00  0.00    +0.000 A 
ATOM      4  C   UNL     1       3.263   7.726  17.636  0.00  0.00    +0.000 A 
ATOM      5  C   UNL     1       2.411   8.764  18.050  0.00  0.00    +0.000 A 
ATOM      6  C   UNL     1       1.633   8.662  19.222  0.00  0.00    +0.000 A 
ATOM      7  C   UNL     1       1.711   7.509  20.008  0.00  0.00    +0.000 A 
ATOM      8  C   UNL     1       2.563   6.508  19.576  0.00  0.00    +0.000 A 
ATOM      9  C   UNL     1       2.873   5.224  20.188  0.00  0.00    +0.000 C 
ATOM     10  O   UNL     1       2.452   4.805  21.244  0.00  0.00    +0.000 OA
ENDROOT
BRANCH   2  11
ATOM     11  C   UNL     1       5.049   5.033  17.184  0.00  0.00    +0.000 A 
ATOM     12  C   UNL     1       4.571   4.511  15.977  0.00  0.00    +0.000 A 
ATOM     13  C   UNL     1       5.464   4.165  14.961  0.00  0.00    +0.000 A 
ATOM     14  C   UNL     1       6.834   4.338  15.147  0.00  0.00    +0.000 A 
ATOM     15  C   UNL     1       7.314   4.867  16.347  0.00  0.00    +0.000 A 
ATOM     16  C   UNL     1       6.423   5.214  17.363  0.00  0.00    +0.000 A 
ENDBRANCH   2  11
BRANCH   6  17
ATOM     17  O   UNL     1       0.857   9.756  19.479  0.00  0.00    +0.000 OA
ATOM     18  C   UNL     1       0.077   9.732  20.669  0.00  0.00    +0.000 C 
ENDBRANCH   6  17
BRANCH   1  19
ATOM     19  C   UNL     1       4.375   3.194  19.626  0.00  0.00    +0.000 C 
BRANCH  19  20
ATOM     20  C   UNL     1       3.611   2.103  18.903  0.00  0.00    +0.000 C 
ATOM     21  O   UNL     1       3.982   1.496  17.909  0.00  0.00    +0.000 OA
BRANCH  20  22
ATOM     22  O   UNL     1       2.399   1.941  19.515  0.00  0.00    +0.000 OA
BRANCH  22  24
ATOM     23  C   UNL     1       0.287   3.028  19.324  0.00  0.00    +0.000 C 
ATOM     24  C   UNL     1       1.256   2.068  18.657  0.00  0.00    +0.000 C 
ENDBRANCH  22  24
ENDBRANCH  20  22
ENDBRANCH  19  20
ENDBRANCH   1  19
TORSDOF 6
ENDMDL
MODEL 3
REMARK VINA RESULT:      -8.1      1.369      1.979
REMARK  Name = 
REMARK  8 active torsions:
REMARK  status: ('A' for Active; 'I' for Inactive)
REMARK    1  A    between atoms: C_1  and  C_2
REMARK    2  A    between atoms: C_2  and  O_3
REMARK    3  A    between atoms: O_3  and  C_4
REMARK    4  A    between atoms: C_4  and  C_6
REMARK    5  A    between atoms: C_6  and  C_7
REMARK    6  A    between atoms: C_8  and  C_9
REMARK    7  A    between atoms: C_18  and  O_19
REMARK    8  A    between atoms: O_19  and  C_20
REMARK                            x       y       z     vdW  Elec       q    Type
REMARK                         _______ _______ _______ _____ _____    ______ ____
ROOT
ATOM      1  C   UNL     1       2.304   4.676  18.014  0.00  0.00    +0.000 C 
ATOM      2  C   UNL     1       2.898   5.888  18.050  0.00  0.00    +0.000 C 
ATOM      3  C   UNL     1       4.173   5.797  17.338  0.00  0.00    +0.000 A 
ATOM      4  C   UNL     1       5.137   6.760  17.102  0.00  0.00    +0.000 A 
ATOM      5  C   UNL     1       6.275   6.385  16.368  0.00  0.00    +0.000 A 
ATOM      6  C   UNL     1       6.449   5.070  15.890  0.00  0.00    +0.000 A 
ATOM      7  C   UNL     1       5.468   4.106  16.136  0.00  0.00    +0.000 A 
ATOM      8  C   UNL     1       4.357   4.508  16.856  0.00  0.00    +0.000 A 
ATOM      9  C   UNL     1       3.174   3.751  17.240  0.00  0.00    +0.000 C 
ATOM     10  O   UNL     1       2.927   2.600  16.951  0.00  0.00    +0.000 OA
ENDROOT
BRANCH   2  11
ATOM     11  C   UNL     1       2.318   7.049  18.719  0.00  0.00    +0.000 A 
ATOM     12  C   UNL     1       2.087   7.024  20.099  0.00  0.00    +0.000 A 
ATOM     13  C   UNL     1       1.507   8.125  20.732  0.00  0.00    +0.000 A 
ATOM     14  C   UNL     1       1.157   9.252  19.989  0.00  0.00    +0.000 A 
ATOM     15  C   UNL     1       1.395   9.283  18.613  0.00  0.00    +0.000 A 
ATOM     16  C   UNL     1       1.973   8.184  17.980  0.00  0.00    +0.000 A 
ENDBRANCH   2  11
BRANCH   6  17
ATOM     17  O   UNL     1       7.611   4.872  15.199  0.00  0.00    +0.000 OA
ATOM     18  C   UNL     1       7.539   4.933  13.779  0.00  0.00    +0.000 C 
ENDBRANCH   6  17
BRANCH   1  19
ATOM     19  C   UNL     1       0.998   4.214  18.559  0.00  0.00    +0.000 C 
BRANCH  19  20
ATOM     20  C   UNL     1       1.181   3.077  19.545  0.00  0.00    +0.000 C 
ATOM     21  O   UNL     1       0.900   1.902  19.356  0.00  0.00    +0.000 OA
BRANCH  20  22
ATOM     22  O   UNL     1       1.666   3.590  20.716  0.00  0.00    +0.000 OA
BRANCH  22  24
ATOM     23  C   UNL     1       3.824   2.589  20.571  0.00  0.00    +0.000 C 
ATOM     24  C   UNL     1       2.579   2.741  21.427  0.00  0.00    +0.000 C 
ENDBRANCH  22  24
ENDBRANCH  20  22
ENDBRANCH  19  20
ENDBRANCH   1  19
TORSDOF 6
ENDMDL
MODEL 4
REMARK VINA RESULT:      -8.1      0.421      1.073
REMARK  Name = 
REMARK  8 active torsions:
REMARK  status: ('A' for Active; 'I' for Inactive)
REMARK    1  A    between atoms: C_1  and  C_2
REMARK    2  A    between atoms: C_2  and  O_3
REMARK    3  A    between atoms: O_3  and  C_4
REMARK    4  A    between atoms: C_4  and  C_6
REMARK    5  A    between atoms: C_6  and  C_7
REMARK    6  A    between atoms: C_8  and  C_9
REMARK    7  A    between atoms: C_18  and  O_19
REMARK    8  A    between atoms: O_19  and  C_20
REMARK                            x       y       z     vdW  Elec       q    Type
REMARK                         _______ _______ _______ _____ _____    ______ ____
ROOT
ATOM      1  C   UNL     1       3.234   5.290  19.814  0.00  0.00    +0.000 C 
ATOM      2  C   UNL     1       3.206   6.291  18.909  0.00  0.00    +0.000 C 
ATOM      3  C   UNL     1       4.152   5.972  17.839  0.00  0.00    +0.000 A 
ATOM      4  C   UNL     1       4.481   6.676  16.696  0.00  0.00    +0.000 A 
ATOM      5  C   UNL     1       5.431   6.113  15.827  0.00  0.00    +0.000 A 
ATOM      6  C   UNL     1       6.048   4.876  16.105  0.00  0.00    +0.000 A 
ATOM      7  C   UNL     1       5.707   4.174  17.264  0.00  0.00    +0.000 A 
ATOM      8  C   UNL     1       4.764   4.753  18.095  0.00  0.00    +0.000 A 
ATOM      9  C   UNL     1       4.193   4.257  19.340  0.00  0.00    +0.000 C 
ATOM     10  O   UNL     1       4.424   3.191  19.867  0.00  0.00    +0.000 OA
ENDROOT
BRANCH   2  11
ATOM     11  C   UNL     1       2.362   7.475  19.044  0.00  0.00    +0.000 A 
ATOM     12  C   UNL     1       1.842   7.831  20.294  0.00  0.00    +0.000 A 
ATOM     13  C   UNL     1       1.013   8.948  20.416  0.00  0.00    +0.000 A 
ATOM     14  C   UNL     1       0.701   9.711  19.291  0.00  0.00    +0.000 A 
ATOM     15  C   UNL     1       1.225   9.363  18.044  0.00  0.00    +0.000 A 
ATOM     16  C   UNL     1       2.053   8.248  17.922  0.00  0.00    +0.000 A 
ENDBRANCH   2  11
BRANCH   6  17
ATOM     17  O   UNL     1       6.951   4.473  15.162  0.00  0.00    +0.000 OA
ATOM     18  C   UNL     1       6.432   4.066  13.901  0.00  0.00    +0.000 C 
ENDBRANCH   6  17
BRANCH   1  19
ATOM     19  C   UNL     1       2.468   5.094  21.075  0.00  0.00    +0.000 C 
BRANCH  19  20
ATOM     20  C   UNL     1       1.645   3.822  21.031  0.00  0.00    +0.000 C 
ATOM     21  O   UNL     1       1.689   2.902  21.836  0.00  0.00    +0.000 OA
BRANCH  20  22
ATOM     22  O   UNL     1       0.872   3.842  19.903  0.00  0.00    +0.000 OA
BRANCH  22  24
ATOM     23  C   UNL     1       1.595   2.440  18.117  0.00  0.00    +0.000 C 
ATOM     24  C   UNL     1       0.643   2.563  19.294  0.00  0.00    +0.000 C 
ENDBRANCH  22  24
ENDBRANCH  20  22
ENDBRANCH  19  20
ENDBRANCH   1  19
TORSDOF 6
ENDMDL
MODEL 5
REMARK VINA RESULT:      -8.1      1.840      5.219
REMARK  Name = 
REMARK  8 active torsions:
REMARK  status: ('A' for Active; 'I' for Inactive)
REMARK    1  A    between atoms: C_1  and  C_2
REMARK    2  A    between atoms: C_2  and  O_3
REMARK    3  A    between atoms: O_3  and  C_4
REMARK    4  A    between atoms: C_4  and  C_6
REMARK    5  A    between atoms: C_6  and  C_7
REMARK    6  A    between atoms: C_8  and  C_9
REMARK    7  A    between atoms: C_18  and  O_19
REMARK    8  A    between atoms: O_19  and  C_20
REMARK                            x       y       z     vdW  Elec       q    Type
REMARK                         _______ _______ _______ _____ _____    ______ ____
ROOT
ATOM      1  C   UNL     1       3.876   4.695  19.199  0.00  0.00    +0.000 C 
ATOM      2  C   UNL     1       4.121   5.528  18.165  0.00  0.00    +0.000 C 
ATOM      3  C   UNL     1       3.303   6.729  18.336  0.00  0.00    +0.000 A 
ATOM      4  C   UNL     1       3.202   7.861  17.550  0.00  0.00    +0.000 A 
ATOM      5  C   UNL     1       2.328   8.878  17.971  0.00  0.00    +0.000 A 
ATOM      6  C   UNL     1       1.564   8.758  19.150  0.00  0.00    +0.000 A 
ATOM      7  C   UNL     1       1.677   7.608  19.936  0.00  0.00    +0.000 A 
ATOM      8  C   UNL     1       2.549   6.628  19.497  0.00  0.00    +0.000 A 
ATOM      9  C   UNL     1       2.896   5.352  20.106  0.00  0.00    +0.000 C 
ATOM     10  O   UNL     1       2.495   4.923  21.166  0.00  0.00    +0.000 OA
ENDROOT
BRANCH   2  11
ATOM     11  C   UNL     1       5.049   5.213  17.082  0.00  0.00    +0.000 A 
ATOM     12  C   UNL     1       6.360   5.701  17.112  0.00  0.00    +0.000 A 
ATOM     13  C   UNL     1       7.236   5.420  16.062  0.00  0.00    +0.000 A 
ATOM     14  C   UNL     1       6.806   4.653  14.980  0.00  0.00    +0.000 A 
ATOM     15  C   UNL     1       5.500   4.157  14.951  0.00  0.00    +0.000 A 
ATOM     16  C   UNL     1       4.624   4.437  15.999  0.00  0.00    +0.000 A 
ENDBRANCH   2  11
BRANCH   6  17
ATOM     17  O   UNL     1       0.764   9.833  19.414  0.00  0.00    +0.000 OA
ATOM     18  C   UNL     1       1.248  11.113  19.024  0.00  0.00    +0.000 C 
ENDBRANCH   6  17
BRANCH   1  19
ATOM     19  C   UNL     1       4.442   3.359  19.531  0.00  0.00    +0.000 C 
BRANCH  19  20
ATOM     20  C   UNL     1       3.602   2.241  18.944  0.00  0.00    +0.000 C 
ATOM     21  O   UNL     1       3.844   1.613  17.923  0.00  0.00    +0.000 OA
BRANCH  20  22
ATOM     22  O   UNL     1       2.487   2.081  19.719  0.00  0.00    +0.000 OA
BRANCH  22  24
ATOM     23  C   UNL     1       0.632   3.139  18.662  0.00  0.00    +0.000 C 
ATOM     24  C   UNL     1       1.275   1.807  19.001  0.00  0.00    +0.000 C 
ENDBRANCH  22  24
ENDBRANCH  20  22
ENDBRANCH  19  20
ENDBRANCH   1  19
TORSDOF 6
ENDMDL
MODEL 6
REMARK VINA RESULT:      -8.0      2.231      5.717
REMARK  Name = 
REMARK  8 active torsions:
REMARK  status: ('A' for Active; 'I' for Inactive)
REMARK    1  A    between atoms: C_1  and  C_2
REMARK    2  A    between atoms: C_2  and  O_3
REMARK    3  A    between atoms: O_3  and  C_4
REMARK    4  A    between atoms: C_4  and  C_6
REMARK    5  A    between atoms: C_6  and  C_7
REMARK    6  A    between atoms: C_8  and  C_9
REMARK    7  A    between atoms: C_18  and  O_19
REMARK    8  A    between atoms: O_19  and  C_20
REMARK                            x       y       z     vdW  Elec       q    Type
REMARK                         _______ _______ _______ _____ _____    ______ ____
ROOT
ATOM      1  C   UNL     1       3.577   5.803  17.836  0.00  0.00    +0.000 C 
ATOM      2  C   UNL     1       2.641   5.913  18.803  0.00  0.00    +0.000 C 
ATOM      3  C   UNL     1       2.205   7.308  18.867  0.00  0.00    +0.000 A 
ATOM      4  C   UNL     1       1.273   7.917  19.686  0.00  0.00    +0.000 A 
ATOM      5  C   UNL     1       1.047   9.294  19.515  0.00  0.00    +0.000 A 
ATOM      6  C   UNL     1       1.751  10.046  18.552  0.00  0.00    +0.000 A 
ATOM      7  C   UNL     1       2.691   9.418  17.731  0.00  0.00    +0.000 A 
ATOM      8  C   UNL     1       2.885   8.061  17.920  0.00  0.00    +0.000 A 
ATOM      9  C   UNL     1       3.762   7.141  17.211  0.00  0.00    +0.000 C 
ATOM     10  O   UNL     1       4.476   7.403  16.267  0.00  0.00    +0.000 OA
ENDROOT
BRANCH   2  11
ATOM     11  C   UNL     1       2.196   4.789  19.622  0.00  0.00    +0.000 A 
ATOM     12  C   UNL     1       1.309   3.842  19.097  0.00  0.00    +0.000 A 
ATOM     13  C   UNL     1       0.864   2.783  19.891  0.00  0.00    +0.000 A 
ATOM     14  C   UNL     1       1.303   2.668  21.209  0.00  0.00    +0.000 A 
ATOM     15  C   UNL     1       2.194   3.606  21.734  0.00  0.00    +0.000 A 
ATOM     16  C   UNL     1       2.639   4.664  20.942  0.00  0.00    +0.000 A 
ENDBRANCH   2  11
BRANCH   6  17
ATOM     17  O   UNL     1       1.415  11.370  18.518  0.00  0.00    +0.000 OA
ATOM     18  C   UNL     1       2.435  12.288  18.141  0.00  0.00    +0.000 C 
ENDBRANCH   6  17
BRANCH   1  19
ATOM     19  C   UNL     1       4.335   4.621  17.342  0.00  0.00    +0.000 C 
BRANCH  19  20
ATOM     20  C   UNL     1       5.570   4.364  18.182  0.00  0.00    +0.000 C 
ATOM     21  O   UNL     1       5.597   3.847  19.290  0.00  0.00    +0.000 OA
BRANCH  20  22
ATOM     22  O   UNL     1       6.659   4.858  17.519  0.00  0.00    +0.000 OA
BRANCH  22  24
ATOM     23  C   UNL     1       7.529   7.068  17.719  0.00  0.00    +0.000 C 
ATOM     24  C   UNL     1       7.542   5.668  18.308  0.00  0.00    +0.000 C 
ENDBRANCH  22  24
ENDBRANCH  20  22
ENDBRANCH  19  20
ENDBRANCH   1  19
TORSDOF 6
ENDMDL
MODEL 7
REMARK VINA RESULT:      -8.0      2.191      5.869
REMARK  Name = 
REMARK  8 active torsions:
REMARK  status: ('A' for Active; 'I' for Inactive)
REMARK    1  A    between atoms: C_1  and  C_2
REMARK    2  A    between atoms: C_2  and  O_3
REMARK    3  A    between atoms: O_3  and  C_4
REMARK    4  A    between atoms: C_4  and  C_6
REMARK    5  A    between atoms: C_6  and  C_7
REMARK    6  A    between atoms: C_8  and  C_9
REMARK    7  A    between atoms: C_18  and  O_19
REMARK    8  A    between atoms: O_19  and  C_20
REMARK                            x       y       z     vdW  Elec       q    Type
REMARK                         _______ _______ _______ _____ _____    ______ ____
ROOT
ATOM      1  C   UNL     1       3.572   5.789  17.900  0.00  0.00    +0.000 C 
ATOM      2  C   UNL     1       2.623   5.909  18.853  0.00  0.00    +0.000 C 
ATOM      3  C   UNL     1       2.189   7.306  18.898  0.00  0.00    +0.000 A 
ATOM      4  C   UNL     1       1.246   7.924  19.698  0.00  0.00    +0.000 A 
ATOM      5  C   UNL     1       1.025   9.299  19.512  0.00  0.00    +0.000 A 
ATOM      6  C   UNL     1       1.742  10.042  18.551  0.00  0.00    +0.000 A 
ATOM      7  C   UNL     1       2.693   9.404  17.749  0.00  0.00    +0.000 A 
ATOM      8  C   UNL     1       2.882   8.049  17.953  0.00  0.00    +0.000 A 
ATOM      9  C   UNL     1       3.767   7.121  17.265  0.00  0.00    +0.000 C 
ATOM     10  O   UNL     1       4.494   7.373  16.328  0.00  0.00    +0.000 OA
ENDROOT
BRANCH   2  11
ATOM     11  C   UNL     1       2.165   4.794  19.677  0.00  0.00    +0.000 A 
ATOM     12  C   UNL     1       2.618   4.658  20.994  0.00  0.00    +0.000 A 
ATOM     13  C   UNL     1       2.200   3.575  21.770  0.00  0.00    +0.000 A 
ATOM     14  C   UNL     1       1.329   2.627  21.233  0.00  0.00    +0.000 A 
ATOM     15  C   UNL     1       0.868   2.765  19.922  0.00  0.00    +0.000 A 
ATOM     16  C   UNL     1       1.286   3.846  19.146  0.00  0.00    +0.000 A 
ENDBRANCH   2  11
BRANCH   6  17
ATOM     17  O   UNL     1       1.409  11.366  18.500  0.00  0.00    +0.000 OA
ATOM     18  C   UNL     1       0.183  11.750  19.110  0.00  0.00    +0.000 C 
ENDBRANCH   6  17
BRANCH   1  19
ATOM     19  C   UNL     1       4.335   4.602  17.427  0.00  0.00    +0.000 C 
BRANCH  19  20
ATOM     20  C   UNL     1       5.565   4.359  18.277  0.00  0.00    +0.000 C 
ATOM     21  O   UNL     1       5.606   3.745  19.334  0.00  0.00    +0.000 OA
BRANCH  20  22
ATOM     22  O   UNL     1       6.629   4.992  17.696  0.00  0.00    +0.000 OA
BRANCH  22  24
ATOM     23  C   UNL     1       7.650   7.144  17.762  0.00  0.00    +0.000 C 
ATOM     24  C   UNL     1       7.359   5.881  18.553  0.00  0.00    +0.000 C 
ENDBRANCH  22  24
ENDBRANCH  20  22
ENDBRANCH  19  20
ENDBRANCH   1  19
TORSDOF 6
ENDMDL
MODEL 8
REMARK VINA RESULT:      -7.9      2.087      5.697
REMARK  Name = 
REMARK  8 active torsions:
REMARK  status: ('A' for Active; 'I' for Inactive)
REMARK    1  A    between atoms: C_1  and  C_2
REMARK    2  A    between atoms: C_2  and  O_3
REMARK    3  A    between atoms: O_3  and  C_4
REMARK    4  A    between atoms: C_4  and  C_6
REMARK    5  A    between atoms: C_6  and  C_7
REMARK    6  A    between atoms: C_8  and  C_9
REMARK    7  A    between atoms: C_18  and  O_19
REMARK    8  A    between atoms: O_19  and  C_20
REMARK                            x       y       z     vdW  Elec       q    Type
REMARK                         _______ _______ _______ _____ _____    ______ ____
ROOT
ATOM      1  C   UNL     1       3.600   5.674  17.842  0.00  0.00    +0.000 C 
ATOM      2  C   UNL     1       2.674   5.817  18.814  0.00  0.00    +0.000 C 
ATOM      3  C   UNL     1       2.268   7.222  18.861  0.00  0.00    +0.000 A 
ATOM      4  C   UNL     1       1.354   7.862  19.678  0.00  0.00    +0.000 A 
ATOM      5  C   UNL     1       1.156   9.241  19.489  0.00  0.00    +0.000 A 
ATOM      6  C   UNL     1       1.867   9.964  18.510  0.00  0.00    +0.000 A 
ATOM      7  C   UNL     1       2.788   9.305  17.692  0.00  0.00    +0.000 A 
ATOM      8  C   UNL     1       2.956   7.947  17.899  0.00  0.00    +0.000 A 
ATOM      9  C   UNL     1       3.808   6.999  17.196  0.00  0.00    +0.000 C 
ATOM     10  O   UNL     1       4.520   7.233  16.244  0.00  0.00    +0.000 OA
ENDROOT
BRANCH   2  11
ATOM     11  C   UNL     1       2.211   4.714  19.652  0.00  0.00    +0.000 A 
ATOM     12  C   UNL     1       1.270   3.803  19.161  0.00  0.00    +0.000 A 
ATOM     13  C   UNL     1       0.810   2.765  19.974  0.00  0.00    +0.000 A 
ATOM     14  C   UNL     1       1.288   2.635  21.277  0.00  0.00    +0.000 A 
ATOM     15  C   UNL     1       2.234   3.538  21.767  0.00  0.00    +0.000 A 
ATOM     16  C   UNL     1       2.694   4.575  20.956  0.00  0.00    +0.000 A 
ENDBRANCH   2  11
BRANCH   6  17
ATOM     17  O   UNL     1       1.559  11.294  18.460  0.00  0.00    +0.000 OA
ATOM     18  C   UNL     1       1.210  11.926  19.686  0.00  0.00    +0.000 C 
ENDBRANCH   6  17
BRANCH   1  19
ATOM     19  C   UNL     1       4.329   4.470  17.359  0.00  0.00    +0.000 C 
BRANCH  19  20
ATOM     20  C   UNL     1       5.708   4.371  17.981  0.00  0.00    +0.000 C 
ATOM     21  O   UNL     1       5.960   4.295  19.176  0.00  0.00    +0.000 OA
BRANCH  20  22
ATOM     22  O   UNL     1       6.642   4.435  16.984  0.00  0.00    +0.000 OA
BRANCH  22  24
ATOM     23  C   UNL     1       6.887   4.824  14.646  0.00  0.00    +0.000 C 
ATOM     24  C   UNL     1       6.201   3.972  15.700  0.00  0.00    +0.000 C 
ENDBRANCH  22  24
ENDBRANCH  20  22
ENDBRANCH  19  20
ENDBRANCH   1  19
TORSDOF 6
ENDMDL
MODEL 9
REMARK VINA RESULT:      -7.7      1.845      5.133
REMARK  Name = 
REMARK  8 active torsions:
REMARK  status: ('A' for Active; 'I' for Inactive)
REMARK    1  A    between atoms: C_1  and  C_2
REMARK    2  A    between atoms: C_2  and  O_3
REMARK    3  A    between atoms: O_3  and  C_4
REMARK    4  A    between atoms: C_4  and  C_6
REMARK    5  A    between atoms: C_6  and  C_7
REMARK    6  A    between atoms: C_8  and  C_9
REMARK    7  A    between atoms: C_18  and  O_19
REMARK    8  A    between atoms: O_19  and  C_20
REMARK                            x       y       z     vdW  Elec       q    Type
REMARK                         _______ _______ _______ _____ _____    ______ ____
ROOT
ATOM      1  C   UNL     1       3.803   5.002  19.390  0.00  0.00    +0.000 C 
ATOM      2  C   UNL     1       4.053   5.783  18.318  0.00  0.00    +0.000 C 
ATOM      3  C   UNL     1       3.206   6.973  18.407  0.00  0.00    +0.000 A 
ATOM      4  C   UNL     1       3.097   8.059  17.559  0.00  0.00    +0.000 A 
ATOM      5  C   UNL     1       2.193   9.077  17.907  0.00  0.00    +0.000 A 
ATOM      6  C   UNL     1       1.406   9.002  19.074  0.00  0.00    +0.000 A 
ATOM      7  C   UNL     1       1.525   7.899  19.923  0.00  0.00    +0.000 A 
ATOM      8  C   UNL     1       2.429   6.917  19.555  0.00  0.00    +0.000 A 
ATOM      9  C   UNL     1       2.789   5.683  20.239  0.00  0.00    +0.000 C 
ATOM     10  O   UNL     1       2.373   5.302  21.312  0.00  0.00    +0.000 OA
ENDROOT
BRANCH   2  11
ATOM     11  C   UNL     1       5.011   5.433  17.273  0.00  0.00    +0.000 A 
ATOM     12  C   UNL     1       4.671   4.494  16.292  0.00  0.00    +0.000 A 
ATOM     13  C   UNL     1       5.598   4.141  15.309  0.00  0.00    +0.000 A 
ATOM     14  C   UNL     1       6.865   4.723  15.305  0.00  0.00    +0.000 A 
ATOM     15  C   UNL     1       7.204   5.666  16.277  0.00  0.00    +0.000 A 
ATOM     16  C   UNL     1       6.279   6.020  17.259  0.00  0.00    +0.000 A 
ENDBRANCH   2  11
BRANCH   6  17
ATOM     17  O   UNL     1       0.577  10.072  19.263  0.00  0.00    +0.000 OA
ATOM     18  C   UNL     1      -0.479  10.247  18.326  0.00  0.00    +0.000 C 
ENDBRANCH   6  17
BRANCH   1  19
ATOM     19  C   UNL     1       4.390   3.698  19.804  0.00  0.00    +0.000 C 
BRANCH  19  20
ATOM     20  C   UNL     1       3.314   2.657  20.040  0.00  0.00    +0.000 C 
ATOM     21  O   UNL     1       2.925   2.250  21.127  0.00  0.00    +0.000 OA
BRANCH  20  22
ATOM     22  O   UNL     1       2.880   2.197  18.828  0.00  0.00    +0.000 OA
BRANCH  22  24
ATOM     23  C   UNL     1       1.078   3.525  18.010  0.00  0.00    +0.000 C 
ATOM     24  C   UNL     1       1.456   2.199  18.645  0.00  0.00    +0.000 C 
ENDBRANCH  22  24
ENDBRANCH  20  22
ENDBRANCH  19  20
ENDBRANCH   1  19
TORSDOF 6
ENDMDL
