MODEL 1
REMARK VINA RESULT:      -7.3      0.000      0.000
REMARK  Name = 
REMARK  10 active torsions:
REMARK  status: ('A' for Active; 'I' for Inactive)
REMARK    1  A    between atoms: C_1  and  C_2
REMARK    2  A    between atoms: C_2  and  C_3
REMARK    3  A    between atoms: C_3  and  O_4
REMARK    4  A    between atoms: O_4  and  C_5
REMARK    5  A    between atoms: C_10  and  C_11
REMARK    6  A    between atoms: C_11  and  N_12
REMARK    7  A    between atoms: N_12  and  C_13
REMARK    8  A    between atoms: C_16  and  C_17
REMARK    9  A    between atoms: C_18  and  C_19
REMARK   10  A    between atoms: C_20  and  C_21
REMARK                            x       y       z     vdW  Elec       q    Type
REMARK                         _______ _______ _______ _____ _____    ______ ____
ROOT
ATOM      1  N   UNL     1       4.469   4.758  16.844  0.00  0.00    +0.000 N 
ATOM      2  H   UNL     1       3.760   5.128  16.211  0.00  0.00    +0.000 HD
ENDROOT
BRANCH   1   3
ATOM      3  C   UNL     1       3.867   4.373  18.071  0.00  0.00    +0.000 A 
ATOM      4  N   UNL     1       4.133   3.153  18.577  0.00  0.00    +0.000 NA
ATOM      5  N   UNL     1       3.558   2.705  19.734  0.00  0.00    +0.000 NA
ATOM      6  C   UNL     1       2.713   3.490  20.425  0.00  0.00    +0.000 A 
ATOM      7  C   UNL     1       2.110   2.855  21.641  0.00  0.00    +0.000 C 
ATOM      8  C   UNL     1       2.429   4.787  20.002  0.00  0.00    +0.000 A 
ATOM      9  C   UNL     1       1.515   5.688  20.792  0.00  0.00    +0.000 C 
ATOM     10  C   UNL     1       3.032   5.233  18.796  0.00  0.00    +0.000 A 
BRANCH  10  11
ATOM     11  C   UNL     1       2.782   6.561  18.319  0.00  0.00    +0.000 C 
ATOM     12  N   UNL     1       2.630   7.642  17.909  0.00  0.00    +0.000 NA
ENDBRANCH  10  11
ENDBRANCH   1   3
BRANCH   1  13
ATOM     13  C   UNL     1       5.182   3.635  16.216  0.00  0.00    +0.000 C 
BRANCH  13  19
ATOM     14  C   UNL     1       7.203   4.868  15.292  0.00  0.00    +0.000 A 
ATOM     15  N   UNL     1       7.983   5.340  14.290  0.00  0.00    +0.000 NA
ATOM     16  C   UNL     1       7.615   5.046  13.029  0.00  0.00    +0.000 A 
ATOM     17  C   UNL     1       6.504   4.288  12.715  0.00  0.00    +0.000 A 
ATOM     18  C   UNL     1       5.735   3.785  13.760  0.00  0.00    +0.000 A 
ATOM     19  C   UNL     1       6.077   4.073  15.090  0.00  0.00    +0.000 A 
BRANCH  14  20
ATOM     20  O   UNL     1       7.550   5.209  16.585  0.00  0.00    +0.000 OA
BRANCH  20  21
ATOM     21  C   UNL     1       7.248   6.584  16.860  0.00  0.00    +0.000 C 
BRANCH  21  23
ATOM     22  C   UNL     1       7.791   5.846  19.228  0.00  0.00    +0.000 C 
ATOM     23  C   UNL     1       7.811   6.985  18.220  0.00  0.00    +0.000 C 
ENDBRANCH  21  23
ENDBRANCH  20  21
ENDBRANCH  14  20
ENDBRANCH  13  19
ENDBRANCH   1  13
TORSDOF 7
ENDMDL
MODEL 2
REMARK VINA RESULT:      -7.1      1.198      3.098
REMARK  Name = 
REMARK  10 active torsions:
REMARK  status: ('A' for Active; 'I' for Inactive)
REMARK    1  A    between atoms: C_1  and  C_2
REMARK    2  A    between atoms: C_2  and  C_3
REMARK    3  A    between atoms: C_3  and  O_4
REMARK    4  A    between atoms: O_4  and  C_5
REMARK    5  A    between atoms: C_10  and  C_11
REMARK    6  A    between atoms: C_11  and  N_12
REMARK    7  A    between atoms: N_12  and  C_13
REMARK    8  A    between atoms: C_16  and  C_17
REMARK    9  A    between atoms: C_18  and  C_19
REMARK   10  A    between atoms: C_20  and  C_21
REMARK                            x       y       z     vdW  Elec       q    Type
REMARK                         _______ _______ _______ _____ _____    ______ ____
ROOT
ATOM      1  N   UNL     1       3.814   3.892  16.674  0.00  0.00    +0.000 N 
ATOM      2  H   UNL     1       3.349   3.325  15.965  0.00  0.00    +0.000 HD
ENDROOT
BRANCH   1   3
ATOM      3  C   UNL     1       3.191   3.694  17.935  0.00  0.00    +0.000 A 
ATOM      4  N   UNL     1       3.057   2.440  18.409  0.00  0.00    +0.000 NA
ATOM      5  N   UNL     1       2.433   2.175  19.598  0.00  0.00    +0.000 NA
ATOM      6  C   UNL     1       1.948   3.176  20.352  0.00  0.00    +0.000 A 
ATOM      7  C   UNL     1       1.238   2.743  21.598  0.00  0.00    +0.000 C 
ATOM      8  C   UNL     1       2.096   4.507  19.962  0.00  0.00    +0.000 A 
ATOM      9  C   UNL     1       1.590   5.637  20.820  0.00  0.00    +0.000 C 
ATOM     10  C   UNL     1       2.742   4.761  18.724  0.00  0.00    +0.000 A 
BRANCH  10  11
ATOM     11  C   UNL     1       2.929   6.111  18.278  0.00  0.00    +0.000 C 
ATOM     12  N   UNL     1       3.113   7.189  17.873  0.00  0.00    +0.000 NA
ENDBRANCH  10  11
ENDBRANCH   1   3
BRANCH   1  13
ATOM     13  C   UNL     1       5.249   3.578  16.725  0.00  0.00    +0.000 C 
BRANCH  13  19
ATOM     14  C   UNL     1       6.522   5.714  16.200  0.00  0.00    +0.000 A 
ATOM     15  N   UNL     1       7.341   6.747  16.512  0.00  0.00    +0.000 NA
ATOM     16  C   UNL     1       7.783   6.824  17.781  0.00  0.00    +0.000 A 
ATOM     17  C   UNL     1       7.436   5.920  18.767  0.00  0.00    +0.000 A 
ATOM     18  C   UNL     1       6.567   4.885  18.433  0.00  0.00    +0.000 A 
ATOM     19  C   UNL     1       6.089   4.762  17.119  0.00  0.00    +0.000 A 
BRANCH  14  20
ATOM     20  O   UNL     1       6.106   5.603  14.886  0.00  0.00    +0.000 OA
BRANCH  20  21
ATOM     21  C   UNL     1       7.159   5.109  14.047  0.00  0.00    +0.000 C 
BRANCH  21  23
ATOM     22  C   UNL     1       5.189   3.841  13.069  0.00  0.00    +0.000 C 
ATOM     23  C   UNL     1       6.693   3.868  13.293  0.00  0.00    +0.000 C 
ENDBRANCH  21  23
ENDBRANCH  20  21
ENDBRANCH  14  20
ENDBRANCH  13  19
ENDBRANCH   1  13
TORSDOF 7
ENDMDL
MODEL 3
REMARK VINA RESULT:      -7.0      1.640      1.960
REMARK  Name = 
REMARK  10 active torsions:
REMARK  status: ('A' for Active; 'I' for Inactive)
REMARK    1  A    between atoms: C_1  and  C_2
REMARK    2  A    between atoms: C_2  and  C_3
REMARK    3  A    between atoms: C_3  and  O_4
REMARK    4  A    between atoms: O_4  and  C_5
REMARK    5  A    between atoms: C_10  and  C_11
REMARK    6  A    between atoms: C_11  and  N_12
REMARK    7  A    between atoms: N_12  and  C_13
REMARK    8  A    between atoms: C_16  and  C_17
REMARK    9  A    between atoms: C_18  and  C_19
REMARK   10  A    between atoms: C_20  and  C_21
REMARK                            x       y       z     vdW  Elec       q    Type
REMARK                         _______ _______ _______ _____ _____    ______ ____
ROOT
ATOM      1  N   UNL     1       4.594   4.625  16.405  0.00  0.00    +0.000 N 
ATOM      2  H   UNL     1       4.135   5.242  15.735  0.00  0.00    +0.000 HD
ENDROOT
BRANCH   1   3
ATOM      3  C   UNL     1       3.637   4.097  17.310  0.00  0.00    +0.000 A 
ATOM      4  N   UNL     1       2.466   3.633  16.829  0.00  0.00    +0.000 NA
ATOM      5  N   UNL     1       1.485   3.147  17.649  0.00  0.00    +0.000 NA
ATOM      6  C   UNL     1       1.670   3.096  18.979  0.00  0.00    +0.000 A 
ATOM      7  C   UNL     1       0.495   2.597  19.763  0.00  0.00    +0.000 C 
ATOM      8  C   UNL     1       2.874   3.503  19.554  0.00  0.00    +0.000 A 
ATOM      9  C   UNL     1       3.104   3.411  21.040  0.00  0.00    +0.000 C 
ATOM     10  C   UNL     1       3.879   4.007  18.687  0.00  0.00    +0.000 A 
BRANCH  10  11
ATOM     11  C   UNL     1       5.139   4.431  19.223  0.00  0.00    +0.000 C 
ATOM     12  N   UNL     1       6.137   4.819  19.684  0.00  0.00    +0.000 NA
ENDBRANCH  10  11
ENDBRANCH   1   3
BRANCH   1  13
ATOM     13  C   UNL     1       5.323   3.556  15.705  0.00  0.00    +0.000 C 
BRANCH  13  19
ATOM     14  C   UNL     1       7.284   5.004  14.986  0.00  0.00    +0.000 A 
ATOM     15  N   UNL     1       8.113   5.555  14.068  0.00  0.00    +0.000 NA
ATOM     16  C   UNL     1       7.923   5.215  12.779  0.00  0.00    +0.000 A 
ATOM     17  C   UNL     1       6.946   4.334  12.358  0.00  0.00    +0.000 A 
ATOM     18  C   UNL     1       6.126   3.753  13.322  0.00  0.00    +0.000 A 
ATOM     19  C   UNL     1       6.283   4.086  14.676  0.00  0.00    +0.000 A 
BRANCH  14  20
ATOM     20  O   UNL     1       7.443   5.389  16.304  0.00  0.00    +0.000 OA
BRANCH  20  21
ATOM     21  C   UNL     1       7.200   6.793  16.469  0.00  0.00    +0.000 C 
BRANCH  21  23
ATOM     22  C   UNL     1       7.996   8.777  17.839  0.00  0.00    +0.000 C 
ATOM     23  C   UNL     1       7.769   7.273  17.801  0.00  0.00    +0.000 C 
ENDBRANCH  21  23
ENDBRANCH  20  21
ENDBRANCH  14  20
ENDBRANCH  13  19
ENDBRANCH   1  13
TORSDOF 7
ENDMDL
MODEL 4
REMARK VINA RESULT:      -6.9      1.393      3.907
REMARK  Name = 
REMARK  10 active torsions:
REMARK  status: ('A' for Active; 'I' for Inactive)
REMARK    1  A    between atoms: C_1  and  C_2
REMARK    2  A    between atoms: C_2  and  C_3
REMARK    3  A    between atoms: C_3  and  O_4
REMARK    4  A    between atoms: O_4  and  C_5
REMARK    5  A    between atoms: C_10  and  C_11
REMARK    6  A    between atoms: C_11  and  N_12
REMARK    7  A    between atoms: N_12  and  C_13
REMARK    8  A    between atoms: C_16  and  C_17
REMARK    9  A    between atoms: C_18  and  C_19
REMARK   10  A    between atoms: C_20  and  C_21
REMARK                            x       y       z     vdW  Elec       q    Type
REMARK                         _______ _______ _______ _____ _____    ______ ____
ROOT
ATOM      1  N   UNL     1       4.012   4.208  16.709  0.00  0.00    +0.000 N 
ATOM      2  H   UNL     1       3.473   3.385  16.442  0.00  0.00    +0.000 HD
ENDROOT
BRANCH   1   3
ATOM      3  C   UNL     1       3.346   4.904  17.752  0.00  0.00    +0.000 A 
ATOM      4  N   UNL     1       3.330   6.252  17.733  0.00  0.00    +0.000 NA
ATOM      5  N   UNL     1       2.739   6.985  18.726  0.00  0.00    +0.000 NA
ATOM      6  C   UNL     1       2.127   6.374  19.755  0.00  0.00    +0.000 A 
ATOM      7  C   UNL     1       1.575   7.294  20.800  0.00  0.00    +0.000 C 
ATOM      8  C   UNL     1       2.049   4.983  19.821  0.00  0.00    +0.000 A 
ATOM      9  C   UNL     1       1.331   4.290  20.950  0.00  0.00    +0.000 C 
ATOM     10  C   UNL     1       2.671   4.239  18.784  0.00  0.00    +0.000 A 
BRANCH  10  11
ATOM     11  C   UNL     1       2.614   2.807  18.797  0.00  0.00    +0.000 C 
ATOM     12  N   UNL     1       2.617   1.641  18.781  0.00  0.00    +0.000 NA
ENDBRANCH  10  11
ENDBRANCH   1   3
BRANCH   1  13
ATOM     13  C   UNL     1       5.376   3.824  17.102  0.00  0.00    +0.000 C 
BRANCH  13  19
ATOM     14  C   UNL     1       6.626   5.928  16.415  0.00  0.00    +0.000 A 
ATOM     15  N   UNL     1       7.473   6.962  16.634  0.00  0.00    +0.000 NA
ATOM     16  C   UNL     1       8.006   7.075  17.864  0.00  0.00    +0.000 A 
ATOM     17  C   UNL     1       7.724   6.208  18.902  0.00  0.00    +0.000 A 
ATOM     18  C   UNL     1       6.825   5.172  18.666  0.00  0.00    +0.000 A 
ATOM     19  C   UNL     1       6.252   5.011  17.395  0.00  0.00    +0.000 A 
BRANCH  14  20
ATOM     20  O   UNL     1       6.115   5.778  15.140  0.00  0.00    +0.000 OA
BRANCH  20  21
ATOM     21  C   UNL     1       6.962   4.948  14.334  0.00  0.00    +0.000 C 
BRANCH  21  23
ATOM     22  C   UNL     1       6.630   3.595  12.211  0.00  0.00    +0.000 C 
ATOM     23  C   UNL     1       6.132   3.886  13.618  0.00  0.00    +0.000 C 
ENDBRANCH  21  23
ENDBRANCH  20  21
ENDBRANCH  14  20
ENDBRANCH  13  19
ENDBRANCH   1  13
TORSDOF 7
ENDMDL
MODEL 5
REMARK VINA RESULT:      -6.9      1.169      2.476
REMARK  Name = 
REMARK  10 active torsions:
REMARK  status: ('A' for Active; 'I' for Inactive)
REMARK    1  A    between atoms: C_1  and  C_2
REMARK    2  A    between atoms: C_2  and  C_3
REMARK    3  A    between atoms: C_3  and  O_4
REMARK    4  A    between atoms: O_4  and  C_5
REMARK    5  A    between atoms: C_10  and  C_11
REMARK    6  A    between atoms: C_11  and  N_12
REMARK    7  A    between atoms: N_12  and  C_13
REMARK    8  A    between atoms: C_16  and  C_17
REMARK    9  A    between atoms: C_18  and  C_19
REMARK   10  A    between atoms: C_20  and  C_21
REMARK                            x       y       z     vdW  Elec       q    Type
REMARK                         _______ _______ _______ _____ _____    ______ ____
ROOT
ATOM      1  N   UNL     1       3.855   3.867  16.608  0.00  0.00    +0.000 N 
ATOM      2  H   UNL     1       3.375   2.969  16.654  0.00  0.00    +0.000 HD
ENDROOT
BRANCH   1   3
ATOM      3  C   UNL     1       3.312   4.755  17.574  0.00  0.00    +0.000 A 
ATOM      4  N   UNL     1       3.510   6.080  17.429  0.00  0.00    +0.000 NA
ATOM      5  N   UNL     1       3.047   6.988  18.342  0.00  0.00    +0.000 NA
ATOM      6  C   UNL     1       2.349   6.581  19.416  0.00  0.00    +0.000 A 
ATOM      7  C   UNL     1       1.953   7.670  20.364  0.00  0.00    +0.000 C 
ATOM      8  C   UNL     1       2.050   5.232  19.611  0.00  0.00    +0.000 A 
ATOM      9  C   UNL     1       1.235   4.772  20.791  0.00  0.00    +0.000 C 
ATOM     10  C   UNL     1       2.543   4.305  18.655  0.00  0.00    +0.000 A 
BRANCH  10  11
ATOM     11  C   UNL     1       2.258   2.908  18.801  0.00  0.00    +0.000 C 
ATOM     12  N   UNL     1       1.991   1.775  18.875  0.00  0.00    +0.000 NA
ENDBRANCH  10  11
ENDBRANCH   1   3
BRANCH   1  13
ATOM     13  C   UNL     1       5.303   3.686  16.795  0.00  0.00    +0.000 C 
BRANCH  13  19
ATOM     14  C   UNL     1       7.131   5.040  15.663  0.00  0.00    +0.000 A 
ATOM     15  N   UNL     1       7.815   5.492  14.585  0.00  0.00    +0.000 NA
ATOM     16  C   UNL     1       7.441   5.032  13.377  0.00  0.00    +0.000 A 
ATOM     17  C   UNL     1       6.417   4.124  13.189  0.00  0.00    +0.000 A 
ATOM     18  C   UNL     1       5.749   3.646  14.313  0.00  0.00    +0.000 A 
ATOM     19  C   UNL     1       6.100   4.106  15.591  0.00  0.00    +0.000 A 
BRANCH  14  20
ATOM     20  O   UNL     1       7.479   5.547  16.900  0.00  0.00    +0.000 OA
BRANCH  20  21
ATOM     21  C   UNL     1       7.243   6.961  16.968  0.00  0.00    +0.000 C 
BRANCH  21  23
ATOM     22  C   UNL     1       8.219   9.064  18.003  0.00  0.00    +0.000 C 
ATOM     23  C   UNL     1       8.000   7.565  18.146  0.00  0.00    +0.000 C 
ENDBRANCH  21  23
ENDBRANCH  20  21
ENDBRANCH  14  20
ENDBRANCH  13  19
ENDBRANCH   1  13
TORSDOF 7
ENDMDL
MODEL 6
REMARK VINA RESULT:      -6.9      1.618      3.187
REMARK  Name = 
REMARK  10 active torsions:
REMARK  status: ('A' for Active; 'I' for Inactive)
REMARK    1  A    between atoms: C_1  and  C_2
REMARK    2  A    between atoms: C_2  and  C_3
REMARK    3  A    between atoms: C_3  and  O_4
REMARK    4  A    between atoms: O_4  and  C_5
REMARK    5  A    between atoms: C_10  and  C_11
REMARK    6  A    between atoms: C_11  and  N_12
REMARK    7  A    between atoms: N_12  and  C_13
REMARK    8  A    between atoms: C_16  and  C_17
REMARK    9  A    between atoms: C_18  and  C_19
REMARK   10  A    between atoms: C_20  and  C_21
REMARK                            x       y       z     vdW  Elec       q    Type
REMARK                         _______ _______ _______ _____ _____    ______ ____
ROOT
ATOM      1  N   UNL     1       3.902   4.298  18.355  0.00  0.00    +0.000 N 
ATOM      2  H   UNL     1       3.530   3.669  19.066  0.00  0.00    +0.000 HD
ENDROOT
BRANCH   1   3
ATOM      3  C   UNL     1       3.324   5.587  18.500  0.00  0.00    +0.000 A 
ATOM      4  N   UNL     1       3.488   6.492  17.515  0.00  0.00    +0.000 NA
ATOM      5  N   UNL     1       2.990   7.763  17.607  0.00  0.00    +0.000 NA
ATOM      6  C   UNL     1       2.293   8.148  18.690  0.00  0.00    +0.000 A 
ATOM      7  C   UNL     1       1.858   9.581  18.687  0.00  0.00    +0.000 C 
ATOM      8  C   UNL     1       2.030   7.255  19.729  0.00  0.00    +0.000 A 
ATOM      9  C   UNL     1       1.215   7.666  20.928  0.00  0.00    +0.000 C 
ATOM     10  C   UNL     1       2.557   5.942  19.617  0.00  0.00    +0.000 A 
BRANCH  10  11
ATOM     11  C   UNL     1       2.310   4.981  20.652  0.00  0.00    +0.000 C 
ATOM     12  N   UNL     1       2.160   4.179  21.484  0.00  0.00    +0.000 NA
ENDBRANCH  10  11
ENDBRANCH   1   3
BRANCH   1  13
ATOM     13  C   UNL     1       5.370   4.352  18.432  0.00  0.00    +0.000 C 
BRANCH  13  19
ATOM     14  C   UNL     1       6.985   5.490  16.835  0.00  0.00    +0.000 A 
ATOM     15  N   UNL     1       7.529   5.716  15.615  0.00  0.00    +0.000 NA
ATOM     16  C   UNL     1       7.070   4.978  14.587  0.00  0.00    +0.000 A 
ATOM     17  C   UNL     1       6.094   4.009  14.718  0.00  0.00    +0.000 A 
ATOM     18  C   UNL     1       5.572   3.770  15.987  0.00  0.00    +0.000 A 
ATOM     19  C   UNL     1       6.016   4.522  17.085  0.00  0.00    +0.000 A 
BRANCH  14  20
ATOM     20  O   UNL     1       7.419   6.279  17.883  0.00  0.00    +0.000 OA
BRANCH  20  21
ATOM     21  C   UNL     1       7.491   7.660  17.501  0.00  0.00    +0.000 C 
BRANCH  21  23
ATOM     22  C   UNL     1       8.565   9.888  18.073  0.00  0.00    +0.000 C 
ATOM     23  C   UNL     1       8.456   8.410  18.414  0.00  0.00    +0.000 C 
ENDBRANCH  21  23
ENDBRANCH  20  21
ENDBRANCH  14  20
ENDBRANCH  13  19
ENDBRANCH   1  13
TORSDOF 7
ENDMDL
MODEL 7
REMARK VINA RESULT:      -6.8      0.971      2.354
REMARK  Name = 
REMARK  10 active torsions:
REMARK  status: ('A' for Active; 'I' for Inactive)
REMARK    1  A    between atoms: C_1  and  C_2
REMARK    2  A    between atoms: C_2  and  C_3
REMARK    3  A    between atoms: C_3  and  O_4
REMARK    4  A    between atoms: O_4  and  C_5
REMARK    5  A    between atoms: C_10  and  C_11
REMARK    6  A    between atoms: C_11  and  N_12
REMARK    7  A    between atoms: N_12  and  C_13
REMARK    8  A    between atoms: C_16  and  C_17
REMARK    9  A    between atoms: C_18  and  C_19
REMARK   10  A    between atoms: C_20  and  C_21
REMARK                            x       y       z     vdW  Elec       q    Type
REMARK                         _______ _______ _______ _____ _____    ______ ____
ROOT
ATOM      1  N   UNL     1       5.494   4.026  17.625  0.00  0.00    +0.000 N 
ATOM      2  H   UNL     1       6.292   4.657  17.559  0.00  0.00    +0.000 HD
ENDROOT
BRANCH   1   3
ATOM      3  C   UNL     1       4.460   4.635  18.385  0.00  0.00    +0.000 A 
ATOM      4  N   UNL     1       3.973   5.828  17.990  0.00  0.00    +0.000 NA
ATOM      5  N   UNL     1       3.004   6.486  18.696  0.00  0.00    +0.000 NA
ATOM      6  C   UNL     1       2.484   5.945  19.811  0.00  0.00    +0.000 A 
ATOM      7  C   UNL     1       1.475   6.797  20.518  0.00  0.00    +0.000 C 
ATOM      8  C   UNL     1       2.891   4.688  20.256  0.00  0.00    +0.000 A 
ATOM      9  C   UNL     1       2.284   4.055  21.482  0.00  0.00    +0.000 C 
ATOM     10  C   UNL     1       3.900   4.021  19.513  0.00  0.00    +0.000 A 
BRANCH  10  11
ATOM     11  C   UNL     1       4.350   2.723  19.920  0.00  0.00    +0.000 C 
ATOM     12  N   UNL     1       4.739   1.660  20.201  0.00  0.00    +0.000 NA
ENDBRANCH  10  11
ENDBRANCH   1   3
BRANCH   1  13
ATOM     13  C   UNL     1       5.027   3.644  16.284  0.00  0.00    +0.000 C 
BRANCH  13  19
ATOM     14  C   UNL     1       7.072   4.896  15.441  0.00  0.00    +0.000 A 
ATOM     15  N   UNL     1       7.888   5.373  14.471  0.00  0.00    +0.000 NA
ATOM     16  C   UNL     1       7.577   5.070  13.197  0.00  0.00    +0.000 A 
ATOM     17  C   UNL     1       6.489   4.298  12.839  0.00  0.00    +0.000 A 
ATOM     18  C   UNL     1       5.682   3.790  13.853  0.00  0.00    +0.000 A 
ATOM     19  C   UNL     1       5.964   4.088  15.195  0.00  0.00    +0.000 A 
BRANCH  14  20
ATOM     20  O   UNL     1       7.359   5.246  16.747  0.00  0.00    +0.000 OA
BRANCH  20  21
ATOM     21  C   UNL     1       7.278   6.665  16.936  0.00  0.00    +0.000 C 
BRANCH  21  23
ATOM     22  C   UNL     1       7.843   5.988  19.316  0.00  0.00    +0.000 C 
ATOM     23  C   UNL     1       7.953   7.062  18.245  0.00  0.00    +0.000 C 
ENDBRANCH  21  23
ENDBRANCH  20  21
ENDBRANCH  14  20
ENDBRANCH  13  19
ENDBRANCH   1  13
TORSDOF 7
ENDMDL
MODEL 8
REMARK VINA RESULT:      -6.8      2.638      6.127
REMARK  Name = 
REMARK  10 active torsions:
REMARK  status: ('A' for Active; 'I' for Inactive)
REMARK    1  A    between atoms: C_1  and  C_2
REMARK    2  A    between atoms: C_2  and  C_3
REMARK    3  A    between atoms: C_3  and  O_4
REMARK    4  A    between atoms: O_4  and  C_5
REMARK    5  A    between atoms: C_10  and  C_11
REMARK    6  A    between atoms: C_11  and  N_12
REMARK    7  A    between atoms: N_12  and  C_13
REMARK    8  A    between atoms: C_16  and  C_17
REMARK    9  A    between atoms: C_18  and  C_19
REMARK   10  A    between atoms: C_20  and  C_21
REMARK                            x       y       z     vdW  Elec       q    Type
REMARK                         _______ _______ _______ _____ _____    ______ ____
ROOT
ATOM      1  N   UNL     1       3.636   3.764  16.817  0.00  0.00    +0.000 N 
ATOM      2  H   UNL     1       3.666   3.478  15.839  0.00  0.00    +0.000 HD
ENDROOT
BRANCH   1   3
ATOM      3  C   UNL     1       4.650   4.725  17.071  0.00  0.00    +0.000 A 
ATOM      4  N   UNL     1       4.820   5.742  16.203  0.00  0.00    +0.000 NA
ATOM      5  N   UNL     1       5.801   6.681  16.367  0.00  0.00    +0.000 NA
ATOM      6  C   UNL     1       6.625   6.629  17.427  0.00  0.00    +0.000 A 
ATOM      7  C   UNL     1       7.690   7.682  17.453  0.00  0.00    +0.000 C 
ATOM      8  C   UNL     1       6.480   5.643  18.402  0.00  0.00    +0.000 A 
ATOM      9  C   UNL     1       7.374   5.602  19.615  0.00  0.00    +0.000 C 
ATOM     10  C   UNL     1       5.459   4.676  18.213  0.00  0.00    +0.000 A 
BRANCH  10  11
ATOM     11  C   UNL     1       5.259   3.645  19.189  0.00  0.00    +0.000 C 
ATOM     12  N   UNL     1       5.134   2.774  19.954  0.00  0.00    +0.000 NA
ENDBRANCH  10  11
ENDBRANCH   1   3
BRANCH   1  13
ATOM     13  C   UNL     1       2.303   4.280  17.161  0.00  0.00    +0.000 C 
BRANCH  13  19
ATOM     14  C   UNL     1       2.104   5.123  19.551  0.00  0.00    +0.000 A 
ATOM     15  N   UNL     1       1.882   4.967  20.878  0.00  0.00    +0.000 NA
ATOM     16  C   UNL     1       1.548   3.736  21.309  0.00  0.00    +0.000 A 
ATOM     17  C   UNL     1       1.410   2.645  20.473  0.00  0.00    +0.000 A 
ATOM     18  C   UNL     1       1.609   2.835  19.108  0.00  0.00    +0.000 A 
ATOM     19  C   UNL     1       1.968   4.099  18.616  0.00  0.00    +0.000 A 
BRANCH  14  20
ATOM     20  O   UNL     1       2.496   6.373  19.111  0.00  0.00    +0.000 OA
BRANCH  20  21
ATOM     21  C   UNL     1       2.035   7.404  19.994  0.00  0.00    +0.000 C 
BRANCH  21  23
ATOM     22  C   UNL     1       2.249   8.678  17.809  0.00  0.00    +0.000 C 
ATOM     23  C   UNL     1       1.627   8.639  19.197  0.00  0.00    +0.000 C 
ENDBRANCH  21  23
ENDBRANCH  20  21
ENDBRANCH  14  20
ENDBRANCH  13  19
ENDBRANCH   1  13
TORSDOF 7
ENDMDL
MODEL 9
REMARK VINA RESULT:      -6.6      3.406      6.041
REMARK  Name = 
REMARK  10 active torsions:
REMARK  status: ('A' for Active; 'I' for Inactive)
REMARK    1  A    between atoms: C_1  and  C_2
REMARK    2  A    between atoms: C_2  and  C_3
REMARK    3  A    between atoms: C_3  and  O_4
REMARK    4  A    between atoms: O_4  and  C_5
REMARK    5  A    between atoms: C_10  and  C_11
REMARK    6  A    between atoms: C_11  and  N_12
REMARK    7  A    between atoms: N_12  and  C_13
REMARK    8  A    between atoms: C_16  and  C_17
REMARK    9  A    between atoms: C_18  and  C_19
REMARK   10  A    between atoms: C_20  and  C_21
REMARK                            x       y       z     vdW  Elec       q    Type
REMARK                         _______ _______ _______ _____ _____    ______ ____
ROOT
ATOM      1  N   UNL     1       2.162   7.136  20.249  0.00  0.00    +0.000 N 
ATOM      2  H   UNL     1       2.056   7.037  19.240  0.00  0.00    +0.000 HD
ENDROOT
BRANCH   1   3
ATOM      3  C   UNL     1       1.430   8.265  20.703  0.00  0.00    +0.000 A 
ATOM      4  N   UNL     1       1.071   8.333  22.000  0.00  0.00    +0.000 NA
ATOM      5  N   UNL     1       0.333   9.373  22.495  0.00  0.00    +0.000 NA
ATOM      6  C   UNL     1      -0.044  10.386  21.695  0.00  0.00    +0.000 A 
ATOM      7  C   UNL     1      -0.897  11.427  22.351  0.00  0.00    +0.000 C 
ATOM      8  C   UNL     1       0.335  10.420  20.354  0.00  0.00    +0.000 A 
ATOM      9  C   UNL     1      -0.048  11.571  19.460  0.00  0.00    +0.000 C 
ATOM     10  C   UNL     1       1.098   9.331  19.857  0.00  0.00    +0.000 A 
BRANCH  10  11
ATOM     11  C   UNL     1       1.522   9.319  18.488  0.00  0.00    +0.000 C 
ATOM     12  N   UNL     1       1.910   9.343  17.389  0.00  0.00    +0.000 NA
ENDBRANCH  10  11
ENDBRANCH   1   3
BRANCH   1  13
ATOM     13  C   UNL     1       1.739   5.906  20.934  0.00  0.00    +0.000 C 
BRANCH  13  19
ATOM     14  C   UNL     1       3.142   4.430  19.413  0.00  0.00    +0.000 A 
ATOM     15  N   UNL     1       3.336   3.368  18.595  0.00  0.00    +0.000 NA
ATOM     16  C   UNL     1       2.300   2.527  18.415  0.00  0.00    +0.000 A 
ATOM     17  C   UNL     1       1.072   2.688  19.027  0.00  0.00    +0.000 A 
ATOM     18  C   UNL     1       0.904   3.767  19.890  0.00  0.00    +0.000 A 
ATOM     19  C   UNL     1       1.954   4.673  20.100  0.00  0.00    +0.000 A 
BRANCH  14  20
ATOM     20  O   UNL     1       4.186   5.322  19.561  0.00  0.00    +0.000 OA
BRANCH  20  21
ATOM     21  C   UNL     1       5.437   4.727  19.187  0.00  0.00    +0.000 C 
BRANCH  21  23
ATOM     22  C   UNL     1       7.682   5.876  18.892  0.00  0.00    +0.000 C 
ATOM     23  C   UNL     1       6.264   5.711  18.366  0.00  0.00    +0.000 C 
ENDBRANCH  21  23
ENDBRANCH  20  21
ENDBRANCH  14  20
ENDBRANCH  13  19
ENDBRANCH   1  13
TORSDOF 7
ENDMDL
