MODEL 1
REMARK VINA RESULT:      -9.0      0.000      0.000
REMARK  Name = 
REMARK  6 active torsions:
REMARK  status: ('A' for Active; 'I' for Inactive)
REMARK    1  A    between atoms: C_2  and  C_3
REMARK    2  A    between atoms: C_2  and  C_23
REMARK    3  A    between atoms: C_4  and  N_5
REMARK    4  A    between atoms: N_5  and  C_6
REMARK    5  A    between atoms: C_8  and  C_9
REMARK    6  A    between atoms: N_16  and  C_17
REMARK                            x       y       z     vdW  Elec       q    Type
REMARK                         _______ _______ _______ _____ _____    ______ ____
ROOT
ATOM      1  C   UNL     1       4.228   5.992  17.266  0.00  0.00    +0.000 A 
ATOM      2  C   UNL     1       4.881   6.196  16.075  0.00  0.00    +0.000 A 
ATOM      3  C   UNL     1       5.225   4.910  15.591  0.00  0.00    +0.000 A 
ATOM      4  N   UNL     1       4.840   3.958  16.456  0.00  0.00    +0.000 NA
ATOM      5  N   UNL     1       4.086   4.610  17.382  0.00  0.00    +0.000 N 
ENDROOT
BRANCH   3   6
ATOM      6  C   UNL     1       5.943   4.600  14.351  0.00  0.00    +0.000 A 
ATOM      7  C   UNL     1       7.158   5.229  14.049  0.00  0.00    +0.000 A 
ATOM      8  C   UNL     1       7.827   4.944  12.856  0.00  0.00    +0.000 A 
ATOM      9  C   UNL     1       7.292   4.024  11.956  0.00  0.00    +0.000 A 
ATOM     10  C   UNL     1       6.093   3.381  12.250  0.00  0.00    +0.000 A 
ATOM     11  C   UNL     1       5.422   3.666  13.442  0.00  0.00    +0.000 A 
ENDBRANCH   3   6
BRANCH   5  12
ATOM     12  C   UNL     1       3.242   3.878  18.266  0.00  0.00    +0.000 A 
ATOM     13  C   UNL     1       1.903   3.659  17.923  0.00  0.00    +0.000 A 
ATOM     14  C   UNL     1       1.068   2.944  18.786  0.00  0.00    +0.000 A 
ATOM     15  C   UNL     1       1.556   2.475  20.006  0.00  0.00    +0.000 A 
ATOM     16  C   UNL     1       2.877   2.720  20.369  0.00  0.00    +0.000 A 
ATOM     17  C   UNL     1       3.721   3.418  19.504  0.00  0.00    +0.000 A 
ENDBRANCH   5  12
BRANCH   1  18
ATOM     18  N   UNL     1       3.806   6.877  18.210  0.00  0.00    +0.000 N 
ATOM     19  H   UNL     1       4.389   7.038  19.031  0.00  0.00    +0.000 HD
BRANCH  18  21
ATOM     20  C   UNL     1       2.405   8.821  18.527  0.00  0.00    +0.000 C 
ATOM     21  C   UNL     1       2.599   7.533  18.230  0.00  0.00    +0.000 C 
BRANCH  20  23
ATOM     22  O   UNL     1       0.323   9.477  17.581  0.00  0.00    +0.000 OA
ATOM     23  C   UNL     1       1.019   9.353  18.581  0.00  0.00    +0.000 C 
BRANCH  23  24
ATOM     24  C   UNL     1       0.476   9.678  19.922  0.00  0.00    +0.000 A 
ATOM     25  C   UNL     1      -0.257  10.861  20.077  0.00  0.00    +0.000 A 
ATOM     26  C   UNL     1      -0.774  11.199  21.330  0.00  0.00    +0.000 A 
ATOM     27  C   UNL     1      -0.543  10.362  22.415  0.00  0.00    +0.000 A 
ATOM     28  F   UNL     1      -1.037  10.688  23.617  0.00  0.00    +0.000 F 
ATOM     29  C   UNL     1       0.200   9.193  22.278  0.00  0.00    +0.000 A 
ATOM     30  C   UNL     1       0.716   8.848  21.028  0.00  0.00    +0.000 A 
ENDBRANCH  23  24
ENDBRANCH  20  23
ENDBRANCH  18  21
ENDBRANCH   1  18
TORSDOF 6
ENDMDL
MODEL 2
REMARK VINA RESULT:      -8.9      0.343      1.306
REMARK  Name = 
REMARK  6 active torsions:
REMARK  status: ('A' for Active; 'I' for Inactive)
REMARK    1  A    between atoms: C_2  and  C_3
REMARK    2  A    between atoms: C_2  and  C_23
REMARK    3  A    between atoms: C_4  and  N_5
REMARK    4  A    between atoms: N_5  and  C_6
REMARK    5  A    between atoms: C_8  and  C_9
REMARK    6  A    between atoms: N_16  and  C_17
REMARK                            x       y       z     vdW  Elec       q    Type
REMARK                         _______ _______ _______ _____ _____    ______ ____
ROOT
ATOM      1  C   UNL     1       4.305   5.953  17.280  0.00  0.00    +0.000 A 
ATOM      2  C   UNL     1       4.983   6.154  16.101  0.00  0.00    +0.000 A 
ATOM      3  C   UNL     1       5.225   4.866  15.564  0.00  0.00    +0.000 A 
ATOM      4  N   UNL     1       4.756   3.912  16.384  0.00  0.00    +0.000 NA
ATOM      5  N   UNL     1       4.050   4.584  17.334  0.00  0.00    +0.000 N 
ENDROOT
BRANCH   3   6
ATOM      6  C   UNL     1       5.925   4.552  14.315  0.00  0.00    +0.000 A 
ATOM      7  C   UNL     1       7.130   5.189  13.989  0.00  0.00    +0.000 A 
ATOM      8  C   UNL     1       7.782   4.900  12.787  0.00  0.00    +0.000 A 
ATOM      9  C   UNL     1       7.241   3.968  11.903  0.00  0.00    +0.000 A 
ATOM     10  C   UNL     1       6.053   3.317  12.222  0.00  0.00    +0.000 A 
ATOM     11  C   UNL     1       5.398   3.606  13.422  0.00  0.00    +0.000 A 
ENDBRANCH   3   6
BRANCH   5  12
ATOM     12  C   UNL     1       3.141   3.886  18.181  0.00  0.00    +0.000 A 
ATOM     13  C   UNL     1       3.585   3.385  19.410  0.00  0.00    +0.000 A 
ATOM     14  C   UNL     1       2.700   2.697  20.245  0.00  0.00    +0.000 A 
ATOM     15  C   UNL     1       1.382   2.478  19.843  0.00  0.00    +0.000 A 
ATOM     16  C   UNL     1       0.944   2.943  18.606  0.00  0.00    +0.000 A 
ATOM     17  C   UNL     1       1.818   3.647  17.775  0.00  0.00    +0.000 A 
ENDBRANCH   5  12
BRANCH   1  18
ATOM     18  N   UNL     1       3.949   6.829  18.259  0.00  0.00    +0.000 N 
ATOM     19  H   UNL     1       4.427   6.783  19.158  0.00  0.00    +0.000 HD
BRANCH  18  21
ATOM     20  C   UNL     1       2.239   8.221  19.247  0.00  0.00    +0.000 C 
ATOM     21  C   UNL     1       2.920   7.737  18.204  0.00  0.00    +0.000 C 
BRANCH  20  23
ATOM     22  O   UNL     1       0.695   9.407  17.879  0.00  0.00    +0.000 OA
ATOM     23  C   UNL     1       1.097   9.139  19.005  0.00  0.00    +0.000 C 
BRANCH  23  24
ATOM     24  C   UNL     1       0.407   9.683  20.200  0.00  0.00    +0.000 A 
ATOM     25  C   UNL     1       0.236   8.847  21.311  0.00  0.00    +0.000 A 
ATOM     26  C   UNL     1      -0.416   9.327  22.448  0.00  0.00    +0.000 A 
ATOM     27  C   UNL     1      -0.903  10.629  22.461  0.00  0.00    +0.000 A 
ATOM     28  F   UNL     1      -1.531  11.088  23.551  0.00  0.00    +0.000 F 
ATOM     29  C   UNL     1      -0.755  11.464  21.357  0.00  0.00    +0.000 A 
ATOM     30  C   UNL     1      -0.101  10.991  20.218  0.00  0.00    +0.000 A 
ENDBRANCH  23  24
ENDBRANCH  20  23
ENDBRANCH  18  21
ENDBRANCH   1  18
TORSDOF 6
ENDMDL
MODEL 3
REMARK VINA RESULT:      -8.9      5.248      8.118
REMARK  Name = 
REMARK  6 active torsions:
REMARK  status: ('A' for Active; 'I' for Inactive)
REMARK    1  A    between atoms: C_2  and  C_3
REMARK    2  A    between atoms: C_2  and  C_23
REMARK    3  A    between atoms: C_4  and  N_5
REMARK    4  A    between atoms: N_5  and  C_6
REMARK    5  A    between atoms: C_8  and  C_9
REMARK    6  A    between atoms: N_16  and  C_17
REMARK                            x       y       z     vdW  Elec       q    Type
REMARK                         _______ _______ _______ _____ _____    ______ ____
ROOT
ATOM      1  C   UNL     1       6.258   6.114  16.958  0.00  0.00    +0.000 A 
ATOM      2  C   UNL     1       5.510   5.952  18.099  0.00  0.00    +0.000 A 
ATOM      3  C   UNL     1       4.374   5.197  17.720  0.00  0.00    +0.000 A 
ATOM      4  N   UNL     1       4.394   4.935  16.403  0.00  0.00    +0.000 NA
ATOM      5  N   UNL     1       5.622   5.346  15.984  0.00  0.00    +0.000 N 
ENDROOT
BRANCH   3   6
ATOM      6  C   UNL     1       3.272   4.770  18.587  0.00  0.00    +0.000 A 
ATOM      7  C   UNL     1       2.507   3.639  18.271  0.00  0.00    +0.000 A 
ATOM      8  C   UNL     1       1.445   3.249  19.091  0.00  0.00    +0.000 A 
ATOM      9  C   UNL     1       1.141   3.980  20.238  0.00  0.00    +0.000 A 
ATOM     10  C   UNL     1       1.903   5.097  20.572  0.00  0.00    +0.000 A 
ATOM     11  C   UNL     1       2.963   5.490  19.753  0.00  0.00    +0.000 A 
ENDBRANCH   3   6
BRANCH   5  12
ATOM     12  C   UNL     1       6.125   4.929  14.717  0.00  0.00    +0.000 A 
ATOM     13  C   UNL     1       5.439   3.952  13.987  0.00  0.00    +0.000 A 
ATOM     14  C   UNL     1       5.928   3.537  12.745  0.00  0.00    +0.000 A 
ATOM     15  C   UNL     1       7.116   4.068  12.244  0.00  0.00    +0.000 A 
ATOM     16  C   UNL     1       7.822   5.014  12.983  0.00  0.00    +0.000 A 
ATOM     17  C   UNL     1       7.331   5.447  14.216  0.00  0.00    +0.000 A 
ENDBRANCH   5  12
BRANCH   1  18
ATOM     18  N   UNL     1       7.368   6.866  16.724  0.00  0.00    +0.000 N 
ATOM     19  H   UNL     1       7.854   6.764  15.833  0.00  0.00    +0.000 HD
BRANCH  18  21
ATOM     20  C   UNL     1       8.050   9.040  17.529  0.00  0.00    +0.000 C 
ATOM     21  C   UNL     1       7.985   7.708  17.617  0.00  0.00    +0.000 C 
BRANCH  20  23
ATOM     22  O   UNL     1       9.043   9.361  19.667  0.00  0.00    +0.000 OA
ATOM     23  C   UNL     1       8.829   9.796  18.543  0.00  0.00    +0.000 C 
BRANCH  23  24
ATOM     24  C   UNL     1       9.401  11.096  18.117  0.00  0.00    +0.000 A 
ATOM     25  C   UNL     1      10.795  11.222  18.049  0.00  0.00    +0.000 A 
ATOM     26  C   UNL     1      11.365  12.436  17.660  0.00  0.00    +0.000 A 
ATOM     27  C   UNL     1      10.541  13.514  17.356  0.00  0.00    +0.000 A 
ATOM     28  F   UNL     1      11.088  14.679  16.985  0.00  0.00    +0.000 F 
ATOM     29  C   UNL     1       9.156  13.407  17.437  0.00  0.00    +0.000 A 
ATOM     30  C   UNL     1       8.580  12.195  17.822  0.00  0.00    +0.000 A 
ENDBRANCH  23  24
ENDBRANCH  20  23
ENDBRANCH  18  21
ENDBRANCH   1  18
TORSDOF 6
ENDMDL
MODEL 4
REMARK VINA RESULT:      -8.9      0.316      1.304
REMARK  Name = 
REMARK  6 active torsions:
REMARK  status: ('A' for Active; 'I' for Inactive)
REMARK    1  A    between atoms: C_2  and  C_3
REMARK    2  A    between atoms: C_2  and  C_23
REMARK    3  A    between atoms: C_4  and  N_5
REMARK    4  A    between atoms: N_5  and  C_6
REMARK    5  A    between atoms: C_8  and  C_9
REMARK    6  A    between atoms: N_16  and  C_17
REMARK                            x       y       z     vdW  Elec       q    Type
REMARK                         _______ _______ _______ _____ _____    ______ ____
ROOT
ATOM      1  C   UNL     1       4.209   5.903  17.322  0.00  0.00    +0.000 A 
ATOM      2  C   UNL     1       4.857   6.119  16.129  0.00  0.00    +0.000 A 
ATOM      3  C   UNL     1       5.160   4.838  15.609  0.00  0.00    +0.000 A 
ATOM      4  N   UNL     1       4.755   3.874  16.452  0.00  0.00    +0.000 NA
ATOM      5  N   UNL     1       4.029   4.523  17.403  0.00  0.00    +0.000 N 
ENDROOT
BRANCH   3   6
ATOM      6  C   UNL     1       5.856   4.540  14.354  0.00  0.00    +0.000 A 
ATOM      7  C   UNL     1       5.311   3.642  13.427  0.00  0.00    +0.000 A 
ATOM      8  C   UNL     1       5.990   3.347  12.241  0.00  0.00    +0.000 A 
ATOM      9  C   UNL     1       7.216   3.951  11.968  0.00  0.00    +0.000 A 
ATOM     10  C   UNL     1       7.762   4.857  12.874  0.00  0.00    +0.000 A 
ATOM     11  C   UNL     1       7.086   5.151  14.060  0.00  0.00    +0.000 A 
ENDBRANCH   3   6
BRANCH   5  12
ATOM     12  C   UNL     1       3.173   3.792  18.276  0.00  0.00    +0.000 A 
ATOM     13  C   UNL     1       1.831   3.599  17.928  0.00  0.00    +0.000 A 
ATOM     14  C   UNL     1       0.984   2.885  18.781  0.00  0.00    +0.000 A 
ATOM     15  C   UNL     1       1.462   2.392  19.995  0.00  0.00    +0.000 A 
ATOM     16  C   UNL     1       2.787   2.612  20.362  0.00  0.00    +0.000 A 
ATOM     17  C   UNL     1       3.643   3.308  19.507  0.00  0.00    +0.000 A 
ENDBRANCH   5  12
BRANCH   1  18
ATOM     18  N   UNL     1       3.822   6.775  18.292  0.00  0.00    +0.000 N 
ATOM     19  H   UNL     1       4.294   6.749  19.196  0.00  0.00    +0.000 HD
BRANCH  18  21
ATOM     20  C   UNL     1       2.274   8.374  19.236  0.00  0.00    +0.000 C 
ATOM     21  C   UNL     1       2.768   7.655  18.224  0.00  0.00    +0.000 C 
BRANCH  20  23
ATOM     22  O   UNL     1       0.639   9.454  17.886  0.00  0.00    +0.000 OA
ATOM     23  C   UNL     1       1.075   9.220  19.007  0.00  0.00    +0.000 C 
BRANCH  23  24
ATOM     24  C   UNL     1       0.375   9.732  20.209  0.00  0.00    +0.000 A 
ATOM     25  C   UNL     1       0.315   8.914  21.346  0.00  0.00    +0.000 A 
ATOM     26  C   UNL     1      -0.344   9.364  22.491  0.00  0.00    +0.000 A 
ATOM     27  C   UNL     1      -0.949  10.616  22.487  0.00  0.00    +0.000 A 
ATOM     28  F   UNL     1      -1.583  11.046  23.586  0.00  0.00    +0.000 F 
ATOM     29  C   UNL     1      -0.912  11.430  21.359  0.00  0.00    +0.000 A 
ATOM     30  C   UNL     1      -0.251  10.988  20.212  0.00  0.00    +0.000 A 
ENDBRANCH  23  24
ENDBRANCH  20  23
ENDBRANCH  18  21
ENDBRANCH   1  18
TORSDOF 6
ENDMDL
MODEL 5
REMARK VINA RESULT:      -8.7      5.240      8.075
REMARK  Name = 
REMARK  6 active torsions:
REMARK  status: ('A' for Active; 'I' for Inactive)
REMARK    1  A    between atoms: C_2  and  C_3
REMARK    2  A    between atoms: C_2  and  C_23
REMARK    3  A    between atoms: C_4  and  N_5
REMARK    4  A    between atoms: N_5  and  C_6
REMARK    5  A    between atoms: C_8  and  C_9
REMARK    6  A    between atoms: N_16  and  C_17
REMARK                            x       y       z     vdW  Elec       q    Type
REMARK                         _______ _______ _______ _____ _____    ______ ____
ROOT
ATOM      1  C   UNL     1       6.126   6.151  17.035  0.00  0.00    +0.000 A 
ATOM      2  C   UNL     1       5.435   5.955  18.208  0.00  0.00    +0.000 A 
ATOM      3  C   UNL     1       4.388   5.053  17.900  0.00  0.00    +0.000 A 
ATOM      4  N   UNL     1       4.402   4.734  16.596  0.00  0.00    +0.000 NA
ATOM      5  N   UNL     1       5.559   5.268  16.118  0.00  0.00    +0.000 N 
ENDROOT
BRANCH   3   6
ATOM      6  C   UNL     1       3.371   4.540  18.823  0.00  0.00    +0.000 A 
ATOM      7  C   UNL     1       2.827   5.361  19.820  0.00  0.00    +0.000 A 
ATOM      8  C   UNL     1       1.873   4.860  20.709  0.00  0.00    +0.000 A 
ATOM      9  C   UNL     1       1.448   3.537  20.607  0.00  0.00    +0.000 A 
ATOM     10  C   UNL     1       1.969   2.714  19.612  0.00  0.00    +0.000 A 
ATOM     11  C   UNL     1       2.924   3.213  18.723  0.00  0.00    +0.000 A 
ENDBRANCH   3   6
BRANCH   5  12
ATOM     12  C   UNL     1       6.072   4.854  14.854  0.00  0.00    +0.000 A 
ATOM     13  C   UNL     1       7.265   5.408  14.376  0.00  0.00    +0.000 A 
ATOM     14  C   UNL     1       7.773   5.009  13.137  0.00  0.00    +0.000 A 
ATOM     15  C   UNL     1       7.078   4.084  12.357  0.00  0.00    +0.000 A 
ATOM     16  C   UNL     1       5.872   3.557  12.812  0.00  0.00    +0.000 A 
ATOM     17  C   UNL     1       5.368   3.937  14.057  0.00  0.00    +0.000 A 
ENDBRANCH   5  12
BRANCH   1  18
ATOM     18  N   UNL     1       7.129   7.018  16.731  0.00  0.00    +0.000 N 
ATOM     19  H   UNL     1       7.471   7.059  15.770  0.00  0.00    +0.000 HD
BRANCH  18  21
ATOM     20  C   UNL     1       8.004   9.126  17.526  0.00  0.00    +0.000 C 
ATOM     21  C   UNL     1       7.823   7.805  17.617  0.00  0.00    +0.000 C 
BRANCH  20  23
ATOM     22  O   UNL     1       9.103   9.324  19.627  0.00  0.00    +0.000 OA
ATOM     23  C   UNL     1       8.853   9.813  18.533  0.00  0.00    +0.000 C 
BRANCH  23  24
ATOM     24  C   UNL     1       9.450  11.111  18.134  0.00  0.00    +0.000 A 
ATOM     25  C   UNL     1       8.592  12.179  17.841  0.00  0.00    +0.000 A 
ATOM     26  C   UNL     1       9.122  13.411  17.454  0.00  0.00    +0.000 A 
ATOM     27  C   UNL     1      10.501  13.561  17.350  0.00  0.00    +0.000 A 
ATOM     28  F   UNL     1      11.009  14.743  16.977  0.00  0.00    +0.000 F 
ATOM     29  C   UNL     1      11.363  12.503  17.621  0.00  0.00    +0.000 A 
ATOM     30  C   UNL     1      10.839  11.270  18.011  0.00  0.00    +0.000 A 
ENDBRANCH  23  24
ENDBRANCH  20  23
ENDBRANCH  18  21
ENDBRANCH   1  18
TORSDOF 6
ENDMDL
MODEL 6
REMARK VINA RESULT:      -8.7      0.525      1.379
REMARK  Name = 
REMARK  6 active torsions:
REMARK  status: ('A' for Active; 'I' for Inactive)
REMARK    1  A    between atoms: C_2  and  C_3
REMARK    2  A    between atoms: C_2  and  C_23
REMARK    3  A    between atoms: C_4  and  N_5
REMARK    4  A    between atoms: N_5  and  C_6
REMARK    5  A    between atoms: C_8  and  C_9
REMARK    6  A    between atoms: N_16  and  C_17
REMARK                            x       y       z     vdW  Elec       q    Type
REMARK                         _______ _______ _______ _____ _____    ______ ____
ROOT
ATOM      1  C   UNL     1       4.628   5.684  17.288  0.00  0.00    +0.000 A 
ATOM      2  C   UNL     1       5.268   5.897  16.090  0.00  0.00    +0.000 A 
ATOM      3  C   UNL     1       5.306   4.642  15.436  0.00  0.00    +0.000 A 
ATOM      4  N   UNL     1       4.753   3.689  16.204  0.00  0.00    +0.000 NA
ATOM      5  N   UNL     1       4.192   4.360  17.247  0.00  0.00    +0.000 N 
ENDROOT
BRANCH   3   6
ATOM      6  C   UNL     1       5.894   4.351  14.126  0.00  0.00    +0.000 A 
ATOM      7  C   UNL     1       5.279   3.448  13.248  0.00  0.00    +0.000 A 
ATOM      8  C   UNL     1       5.856   3.159  12.009  0.00  0.00    +0.000 A 
ATOM      9  C   UNL     1       7.048   3.773  11.631  0.00  0.00    +0.000 A 
ATOM     10  C   UNL     1       7.662   4.684  12.487  0.00  0.00    +0.000 A 
ATOM     11  C   UNL     1       7.088   4.972  13.727  0.00  0.00    +0.000 A 
ENDBRANCH   3   6
BRANCH   5  12
ATOM     12  C   UNL     1       3.240   3.715  18.088  0.00  0.00    +0.000 A 
ATOM     13  C   UNL     1       3.681   2.962  19.182  0.00  0.00    +0.000 A 
ATOM     14  C   UNL     1       2.753   2.324  20.010  0.00  0.00    +0.000 A 
ATOM     15  C   UNL     1       1.389   2.408  19.731  0.00  0.00    +0.000 A 
ATOM     16  C   UNL     1       0.947   3.126  18.623  0.00  0.00    +0.000 A 
ATOM     17  C   UNL     1       1.867   3.780  17.802  0.00  0.00    +0.000 A 
ENDBRANCH   5  12
BRANCH   1  18
ATOM     18  N   UNL     1       4.443   6.508  18.354  0.00  0.00    +0.000 N 
ATOM     19  H   UNL     1       4.883   6.271  19.243  0.00  0.00    +0.000 HD
BRANCH  18  21
ATOM     20  C   UNL     1       2.306   7.611  18.597  0.00  0.00    +0.000 C 
ATOM     21  C   UNL     1       3.628   7.613  18.398  0.00  0.00    +0.000 C 
BRANCH  20  23
ATOM     22  O   UNL     1       1.442   9.536  17.499  0.00  0.00    +0.000 OA
ATOM     23  C   UNL     1       1.561   8.895  18.535  0.00  0.00    +0.000 C 
BRANCH  23  24
ATOM     24  C   UNL     1       0.902   9.350  19.783  0.00  0.00    +0.000 A 
ATOM     25  C   UNL     1       0.107  10.502  19.736  0.00  0.00    +0.000 A 
ATOM     26  C   UNL     1      -0.520  10.961  20.896  0.00  0.00    +0.000 A 
ATOM     27  C   UNL     1      -0.336  10.276  22.092  0.00  0.00    +0.000 A 
ATOM     28  F   UNL     1      -0.936  10.718  23.205  0.00  0.00    +0.000 F 
ATOM     29  C   UNL     1       0.466   9.141  22.155  0.00  0.00    +0.000 A 
ATOM     30  C   UNL     1       1.093   8.675  20.998  0.00  0.00    +0.000 A 
ENDBRANCH  23  24
ENDBRANCH  20  23
ENDBRANCH  18  21
ENDBRANCH   1  18
TORSDOF 6
ENDMDL
MODEL 7
REMARK VINA RESULT:      -8.7      5.275      8.168
REMARK  Name = 
REMARK  6 active torsions:
REMARK  status: ('A' for Active; 'I' for Inactive)
REMARK    1  A    between atoms: C_2  and  C_3
REMARK    2  A    between atoms: C_2  and  C_23
REMARK    3  A    between atoms: C_4  and  N_5
REMARK    4  A    between atoms: N_5  and  C_6
REMARK    5  A    between atoms: C_8  and  C_9
REMARK    6  A    between atoms: N_16  and  C_17
REMARK                            x       y       z     vdW  Elec       q    Type
REMARK                         _______ _______ _______ _____ _____    ______ ____
ROOT
ATOM      1  C   UNL     1       6.216   6.110  17.244  0.00  0.00    +0.000 A 
ATOM      2  C   UNL     1       5.574   5.902  18.441  0.00  0.00    +0.000 A 
ATOM      3  C   UNL     1       4.505   5.016  18.164  0.00  0.00    +0.000 A 
ATOM      4  N   UNL     1       4.461   4.718  16.856  0.00  0.00    +0.000 NA
ATOM      5  N   UNL     1       5.602   5.248  16.337  0.00  0.00    +0.000 N 
ENDROOT
BRANCH   3   6
ATOM      6  C   UNL     1       3.523   4.498  19.121  0.00  0.00    +0.000 A 
ATOM      7  C   UNL     1       3.557   3.158  19.529  0.00  0.00    +0.000 A 
ATOM      8  C   UNL     1       2.605   2.664  20.425  0.00  0.00    +0.000 A 
ATOM      9  C   UNL     1       1.615   3.506  20.928  0.00  0.00    +0.000 A 
ATOM     10  C   UNL     1       1.578   4.844  20.543  0.00  0.00    +0.000 A 
ATOM     11  C   UNL     1       2.527   5.338  19.645  0.00  0.00    +0.000 A 
ENDBRANCH   3   6
BRANCH   5  12
ATOM     12  C   UNL     1       6.056   4.850  15.047  0.00  0.00    +0.000 A 
ATOM     13  C   UNL     1       7.256   5.368  14.544  0.00  0.00    +0.000 A 
ATOM     14  C   UNL     1       7.706   4.984  13.278  0.00  0.00    +0.000 A 
ATOM     15  C   UNL     1       6.948   4.111  12.497  0.00  0.00    +0.000 A 
ATOM     16  C   UNL     1       5.737   3.621  12.977  0.00  0.00    +0.000 A 
ATOM     17  C   UNL     1       5.289   3.986  14.248  0.00  0.00    +0.000 A 
ENDBRANCH   5  12
BRANCH   1  18
ATOM     18  N   UNL     1       7.215   6.972  16.910  0.00  0.00    +0.000 N 
ATOM     19  H   UNL     1       7.582   6.957  15.959  0.00  0.00    +0.000 HD
BRANCH  18  21
ATOM     20  C   UNL     1       8.057   9.136  17.580  0.00  0.00    +0.000 C 
ATOM     21  C   UNL     1       7.873   7.825  17.763  0.00  0.00    +0.000 C 
BRANCH  20  23
ATOM     22  O   UNL     1       9.108   9.473  19.688  0.00  0.00    +0.000 OA
ATOM     23  C   UNL     1       8.865   9.899  18.566  0.00  0.00    +0.000 C 
BRANCH  23  24
ATOM     24  C   UNL     1       9.430  11.193  18.112  0.00  0.00    +0.000 A 
ATOM     25  C   UNL     1      10.805  11.268  17.853  0.00  0.00    +0.000 A 
ATOM     26  C   UNL     1      11.368  12.474  17.432  0.00  0.00    +0.000 A 
ATOM     27  C   UNL     1      10.558  13.596  17.289  0.00  0.00    +0.000 A 
ATOM     28  F   UNL     1      11.100  14.753  16.889  0.00  0.00    +0.000 F 
ATOM     29  C   UNL     1       9.195  13.539  17.562  0.00  0.00    +0.000 A 
ATOM     30  C   UNL     1       8.625  12.335  17.979  0.00  0.00    +0.000 A 
ENDBRANCH  23  24
ENDBRANCH  20  23
ENDBRANCH  18  21
ENDBRANCH   1  18
TORSDOF 6
ENDMDL
MODEL 8
REMARK VINA RESULT:      -8.6      5.078      7.931
REMARK  Name = 
REMARK  6 active torsions:
REMARK  status: ('A' for Active; 'I' for Inactive)
REMARK    1  A    between atoms: C_2  and  C_3
REMARK    2  A    between atoms: C_2  and  C_23
REMARK    3  A    between atoms: C_4  and  N_5
REMARK    4  A    between atoms: N_5  and  C_6
REMARK    5  A    between atoms: C_8  and  C_9
REMARK    6  A    between atoms: N_16  and  C_17
REMARK                            x       y       z     vdW  Elec       q    Type
REMARK                         _______ _______ _______ _____ _____    ______ ____
ROOT
ATOM      1  C   UNL     1       5.717   6.137  16.942  0.00  0.00    +0.000 A 
ATOM      2  C   UNL     1       5.022   5.898  18.104  0.00  0.00    +0.000 A 
ATOM      3  C   UNL     1       4.087   4.879  17.800  0.00  0.00    +0.000 A 
ATOM      4  N   UNL     1       4.170   4.528  16.506  0.00  0.00    +0.000 NA
ATOM      5  N   UNL     1       5.274   5.173  16.038  0.00  0.00    +0.000 N 
ENDROOT
BRANCH   3   6
ATOM      6  C   UNL     1       3.109   4.283  18.714  0.00  0.00    +0.000 A 
ATOM      7  C   UNL     1       2.401   3.129  18.352  0.00  0.00    +0.000 A 
ATOM      8  C   UNL     1       1.454   2.577  19.219  0.00  0.00    +0.000 A 
ATOM      9  C   UNL     1       1.212   3.167  20.458  0.00  0.00    +0.000 A 
ATOM     10  C   UNL     1       1.920   4.304  20.837  0.00  0.00    +0.000 A 
ATOM     11  C   UNL     1       2.864   4.859  19.970  0.00  0.00    +0.000 A 
ENDBRANCH   3   6
BRANCH   5  12
ATOM     12  C   UNL     1       5.861   4.784  14.800  0.00  0.00    +0.000 A 
ATOM     13  C   UNL     1       5.205   3.856  13.983  0.00  0.00    +0.000 A 
ATOM     14  C   UNL     1       5.776   3.468  12.768  0.00  0.00    +0.000 A 
ATOM     15  C   UNL     1       7.015   3.977  12.379  0.00  0.00    +0.000 A 
ATOM     16  C   UNL     1       7.689   4.873  13.205  0.00  0.00    +0.000 A 
ATOM     17  C   UNL     1       7.117   5.279  14.411  0.00  0.00    +0.000 A 
ENDBRANCH   5  12
BRANCH   1  18
ATOM     18  N   UNL     1       6.628   7.100  16.635  0.00  0.00    +0.000 N 
ATOM     19  H   UNL     1       6.798   7.323  15.654  0.00  0.00    +0.000 HD
BRANCH  18  21
ATOM     20  C   UNL     1       7.781   9.055  17.463  0.00  0.00    +0.000 C 
ATOM     21  C   UNL     1       7.441   7.765  17.520  0.00  0.00    +0.000 C 
BRANCH  20  23
ATOM     22  O   UNL     1       9.120   8.950  19.427  0.00  0.00    +0.000 OA
ATOM     23  C   UNL     1       8.740   9.598  18.460  0.00  0.00    +0.000 C 
BRANCH  23  24
ATOM     24  C   UNL     1       9.277  10.956  18.204  0.00  0.00    +0.000 A 
ATOM     25  C   UNL     1       8.383  11.969  17.832  0.00  0.00    +0.000 A 
ATOM     26  C   UNL     1       8.859  13.257  17.576  0.00  0.00    +0.000 A 
ATOM     27  C   UNL     1      10.221  13.517  17.680  0.00  0.00    +0.000 A 
ATOM     28  F   UNL     1      10.677  14.752  17.432  0.00  0.00    +0.000 F 
ATOM     29  C   UNL     1      11.121  12.515  18.031  0.00  0.00    +0.000 A 
ATOM     30  C   UNL     1      10.651  11.227  18.291  0.00  0.00    +0.000 A 
ENDBRANCH  23  24
ENDBRANCH  20  23
ENDBRANCH  18  21
ENDBRANCH   1  18
TORSDOF 6
ENDMDL
MODEL 9
REMARK VINA RESULT:      -8.5      4.982      7.927
REMARK  Name = 
REMARK  6 active torsions:
REMARK  status: ('A' for Active; 'I' for Inactive)
REMARK    1  A    between atoms: C_2  and  C_3
REMARK    2  A    between atoms: C_2  and  C_23
REMARK    3  A    between atoms: C_4  and  N_5
REMARK    4  A    between atoms: N_5  and  C_6
REMARK    5  A    between atoms: C_8  and  C_9
REMARK    6  A    between atoms: N_16  and  C_17
REMARK                            x       y       z     vdW  Elec       q    Type
REMARK                         _______ _______ _______ _____ _____    ______ ____
ROOT
ATOM      1  C   UNL     1       6.435   5.327  17.275  0.00  0.00    +0.000 A 
ATOM      2  C   UNL     1       5.714   4.986  18.395  0.00  0.00    +0.000 A 
ATOM      3  C   UNL     1       4.548   4.333  17.927  0.00  0.00    +0.000 A 
ATOM      4  N   UNL     1       4.526   4.302  16.585  0.00  0.00    +0.000 NA
ATOM      5  N   UNL     1       5.752   4.753  16.204  0.00  0.00    +0.000 N 
ENDROOT
BRANCH   3   6
ATOM      6  C   UNL     1       3.460   3.787  18.743  0.00  0.00    +0.000 A 
ATOM      7  C   UNL     1       2.731   2.670  18.312  0.00  0.00    +0.000 A 
ATOM      8  C   UNL     1       1.681   2.166  19.084  0.00  0.00    +0.000 A 
ATOM      9  C   UNL     1       1.353   2.769  20.297  0.00  0.00    +0.000 A 
ATOM     10  C   UNL     1       2.078   3.869  20.745  0.00  0.00    +0.000 A 
ATOM     11  C   UNL     1       3.127   4.376  19.973  0.00  0.00    +0.000 A 
ENDBRANCH   3   6
BRANCH   5  12
ATOM     12  C   UNL     1       6.209   4.550  14.870  0.00  0.00    +0.000 A 
ATOM     13  C   UNL     1       7.324   5.257  14.404  0.00  0.00    +0.000 A 
ATOM     14  C   UNL     1       7.776   5.065  13.096  0.00  0.00    +0.000 A 
ATOM     15  C   UNL     1       7.100   4.196  12.239  0.00  0.00    +0.000 A 
ATOM     16  C   UNL     1       5.969   3.518  12.685  0.00  0.00    +0.000 A 
ATOM     17  C   UNL     1       5.522   3.690  13.997  0.00  0.00    +0.000 A 
ENDBRANCH   5  12
BRANCH   1  18
ATOM     18  N   UNL     1       7.557   6.084  17.139  0.00  0.00    +0.000 N 
ATOM     19  H   UNL     1       8.464   5.618  17.096  0.00  0.00    +0.000 HD
BRANCH  18  21
ATOM     20  C   UNL     1       8.211   8.214  18.074  0.00  0.00    +0.000 C 
ATOM     21  C   UNL     1       7.620   7.456  17.146  0.00  0.00    +0.000 C 
BRANCH  20  23
ATOM     22  O   UNL     1       7.159  10.256  17.458  0.00  0.00    +0.000 OA
ATOM     23  C   UNL     1       8.117   9.693  17.972  0.00  0.00    +0.000 C 
BRANCH  23  24
ATOM     24  C   UNL     1       9.216  10.480  18.580  0.00  0.00    +0.000 A 
ATOM     25  C   UNL     1      10.166  11.066  17.733  0.00  0.00    +0.000 A 
ATOM     26  C   UNL     1      11.219  11.806  18.276  0.00  0.00    +0.000 A 
ATOM     27  C   UNL     1      11.321  11.942  19.656  0.00  0.00    +0.000 A 
ATOM     28  F   UNL     1      12.332  12.649  20.176  0.00  0.00    +0.000 F 
ATOM     29  C   UNL     1      10.394  11.349  20.508  0.00  0.00    +0.000 A 
ATOM     30  C   UNL     1       9.338  10.611  19.972  0.00  0.00    +0.000 A 
ENDBRANCH  23  24
ENDBRANCH  20  23
ENDBRANCH  18  21
ENDBRANCH   1  18
TORSDOF 6
ENDMDL
