MODEL 1
REMARK VINA RESULT:      -6.1      0.000      0.000
REMARK  Name = 
REMARK  1 active torsions:
REMARK  status: ('A' for Active; 'I' for Inactive)
REMARK    1  A    between atoms: N_1  and  C_2
REMARK                            x       y       z     vdW  Elec       q    Type
REMARK                         _______ _______ _______ _____ _____    ______ ____
ROOT
ATOM      1  C   UNL     1       2.169   3.485  21.226  0.00  0.00    +0.000 C 
ATOM      2  C   UNL     1       3.120   2.930  20.183  0.00  0.00    +0.000 C 
ATOM      3  C   UNL     1       3.406   4.139  19.260  0.00  0.00    +0.000 C 
ATOM      4  C   UNL     1       3.735   3.488  17.921  0.00  0.00    +0.000 C 
ATOM      5  C   UNL     1       2.468   2.656  17.810  0.00  0.00    +0.000 C 
ATOM      6  C   UNL     1       2.203   2.115  19.254  0.00  0.00    +0.000 C 
ATOM      7  C   UNL     1       0.821   2.842  19.206  0.00  0.00    +0.000 C 
ATOM      8  C   UNL     1       1.142   3.977  20.217  0.00  0.00    +0.000 C 
ATOM      9  C   UNL     1       1.966   4.679  19.090  0.00  0.00    +0.000 C 
ATOM     10  C   UNL     1       1.347   3.692  18.066  0.00  0.00    +0.000 C 
ENDROOT
BRANCH   1  11
ATOM     11  N   UNL     1       1.616   2.498  22.141  0.00  0.00    +0.000 NA
ATOM     12  H   UNL     1       1.391   2.946  23.028  0.00  0.00    +0.000 HD
ATOM     13  H   UNL     1       2.309   1.784  22.363  0.00  0.00    +0.000 HD
ENDBRANCH   1  11
TORSDOF 1
ENDMDL
MODEL 2
REMARK VINA RESULT:      -6.0      1.641      2.712
REMARK  Name = 
REMARK  1 active torsions:
REMARK  status: ('A' for Active; 'I' for Inactive)
REMARK    1  A    between atoms: N_1  and  C_2
REMARK                            x       y       z     vdW  Elec       q    Type
REMARK                         _______ _______ _______ _____ _____    ______ ____
ROOT
ATOM      1  C   UNL     1       4.134   3.547  18.571  0.00  0.00    +0.000 C 
ATOM      2  C   UNL     1       3.089   2.485  18.854  0.00  0.00    +0.000 C 
ATOM      3  C   UNL     1       1.832   2.993  18.108  0.00  0.00    +0.000 C 
ATOM      4  C   UNL     1       0.682   2.387  18.905  0.00  0.00    +0.000 C 
ATOM      5  C   UNL     1       1.102   2.927  20.264  0.00  0.00    +0.000 C 
ATOM      6  C   UNL     1       2.659   2.778  20.302  0.00  0.00    +0.000 C 
ATOM      7  C   UNL     1       2.740   4.324  20.510  0.00  0.00    +0.000 C 
ATOM      8  C   UNL     1       3.300   4.698  19.111  0.00  0.00    +0.000 C 
ATOM      9  C   UNL     1       1.864   4.481  18.534  0.00  0.00    +0.000 C 
ATOM     10  C   UNL     1       1.321   4.434  19.987  0.00  0.00    +0.000 C 
ENDROOT
BRANCH   1  11
ATOM     11  N   UNL     1       5.387   3.385  19.293  0.00  0.00    +0.000 NA
ATOM     12  H   UNL     1       5.839   4.291  19.399  0.00  0.00    +0.000 HD
ATOM     13  H   UNL     1       6.040   2.813  18.759  0.00  0.00    +0.000 HD
ENDBRANCH   1  11
TORSDOF 1
ENDMDL
MODEL 3
REMARK VINA RESULT:      -6.0      1.616      2.922
REMARK  Name = 
REMARK  1 active torsions:
REMARK  status: ('A' for Active; 'I' for Inactive)
REMARK    1  A    between atoms: N_1  and  C_2
REMARK                            x       y       z     vdW  Elec       q    Type
REMARK                         _______ _______ _______ _____ _____    ______ ____
ROOT
ATOM      1  C   UNL     1       2.771   1.879  18.412  0.00  0.00    +0.000 C 
ATOM      2  C   UNL     1       2.436   2.551  19.729  0.00  0.00    +0.000 C 
ATOM      3  C   UNL     1       1.090   3.262  19.452  0.00  0.00    +0.000 C 
ATOM      4  C   UNL     1       1.102   4.432  20.429  0.00  0.00    +0.000 C 
ATOM      5  C   UNL     1       2.438   5.014  19.996  0.00  0.00    +0.000 C 
ATOM      6  C   UNL     1       3.367   3.778  19.757  0.00  0.00    +0.000 C 
ATOM      7  C   UNL     1       3.536   4.268  18.283  0.00  0.00    +0.000 C 
ATOM      8  C   UNL     1       2.700   3.158  17.591  0.00  0.00    +0.000 C 
ATOM      9  C   UNL     1       1.411   3.896  18.077  0.00  0.00    +0.000 C 
ATOM     10  C   UNL     1       2.291   5.115  18.458  0.00  0.00    +0.000 C 
ENDROOT
BRANCH   1  11
ATOM     11  N   UNL     1       4.086   1.258  18.356  0.00  0.00    +0.000 NA
ATOM     12  H   UNL     1       4.153   0.538  19.072  0.00  0.00    +0.000 HD
ATOM     13  H   UNL     1       4.815   1.935  18.578  0.00  0.00    +0.000 HD
ENDBRANCH   1  11
TORSDOF 1
ENDMDL
MODEL 4
REMARK VINA RESULT:      -6.0      1.446      2.093
REMARK  Name = 
REMARK  1 active torsions:
REMARK  status: ('A' for Active; 'I' for Inactive)
REMARK    1  A    between atoms: N_1  and  C_2
REMARK                            x       y       z     vdW  Elec       q    Type
REMARK                         _______ _______ _______ _____ _____    ______ ____
ROOT
ATOM      1  C   UNL     1       4.254   3.091  19.683  0.00  0.00    +0.000 C 
ATOM      2  C   UNL     1       3.397   3.081  18.432  0.00  0.00    +0.000 C 
ATOM      3  C   UNL     1       2.692   4.459  18.453  0.00  0.00    +0.000 C 
ATOM      4  C   UNL     1       1.400   4.204  17.686  0.00  0.00    +0.000 C 
ATOM      5  C   UNL     1       0.922   3.029  18.525  0.00  0.00    +0.000 C 
ATOM      6  C   UNL     1       2.206   2.184  18.816  0.00  0.00    +0.000 C 
ATOM      7  C   UNL     1       1.930   2.402  20.338  0.00  0.00    +0.000 C 
ATOM      8  C   UNL     1       3.100   3.380  20.630  0.00  0.00    +0.000 C 
ATOM      9  C   UNL     1       2.264   4.506  19.940  0.00  0.00    +0.000 C 
ATOM     10  C   UNL     1       1.030   3.567  19.972  0.00  0.00    +0.000 C 
ENDROOT
BRANCH   1  11
ATOM     11  N   UNL     1       4.915   1.830  19.985  0.00  0.00    +0.000 NA
ATOM     12  H   UNL     1       5.692   1.997  20.622  0.00  0.00    +0.000 HD
ATOM     13  H   UNL     1       5.330   1.429  19.144  0.00  0.00    +0.000 HD
ENDBRANCH   1  11
TORSDOF 1
ENDMDL
MODEL 5
REMARK VINA RESULT:      -5.9      1.798      3.047
REMARK  Name = 
REMARK  1 active torsions:
REMARK  status: ('A' for Active; 'I' for Inactive)
REMARK    1  A    between atoms: N_1  and  C_2
REMARK                            x       y       z     vdW  Elec       q    Type
REMARK                         _______ _______ _______ _____ _____    ______ ____
ROOT
ATOM      1  C   UNL     1       3.860   3.696  18.242  0.00  0.00    +0.000 C 
ATOM      2  C   UNL     1       3.325   4.056  19.615  0.00  0.00    +0.000 C 
ATOM      3  C   UNL     1       2.967   2.688  20.244  0.00  0.00    +0.000 C 
ATOM      4  C   UNL     1       1.856   3.034  21.228  0.00  0.00    +0.000 C 
ATOM      5  C   UNL     1       0.948   3.739  20.232  0.00  0.00    +0.000 C 
ATOM      6  C   UNL     1       1.906   4.578  19.324  0.00  0.00    +0.000 C 
ATOM      7  C   UNL     1       1.354   3.774  18.104  0.00  0.00    +0.000 C 
ATOM      8  C   UNL     1       2.620   2.923  17.817  0.00  0.00    +0.000 C 
ATOM      9  C   UNL     1       2.240   2.034  19.045  0.00  0.00    +0.000 C 
ATOM     10  C   UNL     1       0.849   2.720  19.071  0.00  0.00    +0.000 C 
ENDROOT
BRANCH   1  11
ATOM     11  N   UNL     1       4.131   4.829  17.371  0.00  0.00    +0.000 NA
ATOM     12  H   UNL     1       4.949   4.630  16.797  0.00  0.00    +0.000 HD
ATOM     13  H   UNL     1       4.374   5.655  17.917  0.00  0.00    +0.000 HD
ENDBRANCH   1  11
TORSDOF 1
ENDMDL
MODEL 6
REMARK VINA RESULT:      -5.9      1.686      2.299
REMARK  Name = 
REMARK  1 active torsions:
REMARK  status: ('A' for Active; 'I' for Inactive)
REMARK    1  A    between atoms: N_1  and  C_2
REMARK                            x       y       z     vdW  Elec       q    Type
REMARK                         _______ _______ _______ _____ _____    ______ ____
ROOT
ATOM      1  C   UNL     1       3.984   2.190  19.133  0.00  0.00    +0.000 C 
ATOM      2  C   UNL     1       3.775   3.322  18.145  0.00  0.00    +0.000 C 
ATOM      3  C   UNL     1       3.381   4.524  19.037  0.00  0.00    +0.000 C 
ATOM      4  C   UNL     1       2.534   5.387  18.108  0.00  0.00    +0.000 C 
ATOM      5  C   UNL     1       1.543   4.303  17.712  0.00  0.00    +0.000 C 
ATOM      6  C   UNL     1       2.402   3.010  17.523  0.00  0.00    +0.000 C 
ATOM      7  C   UNL     1       1.528   2.341  18.631  0.00  0.00    +0.000 C 
ATOM      8  C   UNL     1       2.600   2.301  19.753  0.00  0.00    +0.000 C 
ATOM      9  C   UNL     1       2.359   3.830  19.969  0.00  0.00    +0.000 C 
ATOM     10  C   UNL     1       1.095   3.725  19.076  0.00  0.00    +0.000 C 
ENDROOT
BRANCH   1  11
ATOM     11  N   UNL     1       4.218   0.885  18.532  0.00  0.00    +0.000 NA
ATOM     12  H   UNL     1       3.544   0.216  18.898  0.00  0.00    +0.000 HD
ATOM     13  H   UNL     1       5.134   0.525  18.797  0.00  0.00    +0.000 HD
ENDBRANCH   1  11
TORSDOF 1
ENDMDL
MODEL 7
REMARK VINA RESULT:      -5.9      0.885      1.642
REMARK  Name = 
REMARK  1 active torsions:
REMARK  status: ('A' for Active; 'I' for Inactive)
REMARK    1  A    between atoms: N_1  and  C_2
REMARK                            x       y       z     vdW  Elec       q    Type
REMARK                         _______ _______ _______ _____ _____    ______ ____
ROOT
ATOM      1  C   UNL     1       1.050   3.794  20.086  0.00  0.00    +0.000 C 
ATOM      2  C   UNL     1       2.410   4.424  19.854  0.00  0.00    +0.000 C 
ATOM      3  C   UNL     1       2.238   5.200  18.526  0.00  0.00    +0.000 C 
ATOM      4  C   UNL     1       3.649   5.228  17.951  0.00  0.00    +0.000 C 
ATOM      5  C   UNL     1       3.890   3.727  17.995  0.00  0.00    +0.000 C 
ATOM      6  C   UNL     1       3.270   3.251  19.350  0.00  0.00    +0.000 C 
ATOM      7  C   UNL     1       2.338   2.310  18.522  0.00  0.00    +0.000 C 
ATOM      8  C   UNL     1       1.007   3.078  18.745  0.00  0.00    +0.000 C 
ATOM      9  C   UNL     1       1.496   4.127  17.695  0.00  0.00    +0.000 C 
ATOM     10  C   UNL     1       2.634   3.152  17.297  0.00  0.00    +0.000 C 
ENDROOT
BRANCH   1  11
ATOM     11  N   UNL     1       0.983   2.870  21.208  0.00  0.00    +0.000 NA
ATOM     12  H   UNL     1       0.348   3.238  21.915  0.00  0.00    +0.000 HD
ATOM     13  H   UNL     1       1.890   2.794  21.668  0.00  0.00    +0.000 HD
ENDBRANCH   1  11
TORSDOF 1
ENDMDL
MODEL 8
REMARK VINA RESULT:      -5.9      0.674      1.435
REMARK  Name = 
REMARK  1 active torsions:
REMARK  status: ('A' for Active; 'I' for Inactive)
REMARK    1  A    between atoms: N_1  and  C_2
REMARK                            x       y       z     vdW  Elec       q    Type
REMARK                         _______ _______ _______ _____ _____    ______ ____
ROOT
ATOM      1  C   UNL     1       2.580   2.795  21.124  0.00  0.00    +0.000 C 
ATOM      2  C   UNL     1       2.209   2.349  19.722  0.00  0.00    +0.000 C 
ATOM      3  C   UNL     1       3.323   2.953  18.833  0.00  0.00    +0.000 C 
ATOM      4  C   UNL     1       2.638   3.125  17.482  0.00  0.00    +0.000 C 
ATOM      5  C   UNL     1       1.458   3.943  17.983  0.00  0.00    +0.000 C 
ATOM      6  C   UNL     1       1.048   3.285  19.341  0.00  0.00    +0.000 C 
ATOM      7  C   UNL     1       1.318   4.665  20.021  0.00  0.00    +0.000 C 
ATOM      8  C   UNL     1       2.613   4.277  20.784  0.00  0.00    +0.000 C 
ATOM      9  C   UNL     1       3.383   4.380  19.428  0.00  0.00    +0.000 C 
ATOM     10  C   UNL     1       2.136   5.063  18.808  0.00  0.00    +0.000 C 
ENDROOT
BRANCH   1  11
ATOM     11  N   UNL     1       1.596   2.483  22.149  0.00  0.00    +0.000 NA
ATOM     12  H   UNL     1       1.183   3.346  22.498  0.00  0.00    +0.000 HD
ATOM     13  H   UNL     1       2.041   2.046  22.956  0.00  0.00    +0.000 HD
ENDBRANCH   1  11
TORSDOF 1
ENDMDL
MODEL 9
REMARK VINA RESULT:      -5.8      1.747      2.949
REMARK  Name = 
REMARK  1 active torsions:
REMARK  status: ('A' for Active; 'I' for Inactive)
REMARK    1  A    between atoms: N_1  and  C_2
REMARK                            x       y       z     vdW  Elec       q    Type
REMARK                         _______ _______ _______ _____ _____    ______ ____
ROOT
ATOM      1  C   UNL     1       4.363   2.848  18.913  0.00  0.00    +0.000 C 
ATOM      2  C   UNL     1       3.368   3.080  20.034  0.00  0.00    +0.000 C 
ATOM      3  C   UNL     1       2.122   2.272  19.597  0.00  0.00    +0.000 C 
ATOM      4  C   UNL     1       0.971   3.011  20.269  0.00  0.00    +0.000 C 
ATOM      5  C   UNL     1       1.291   4.388  19.707  0.00  0.00    +0.000 C 
ATOM      6  C   UNL     1       2.850   4.505  19.767  0.00  0.00    +0.000 C 
ATOM      7  C   UNL     1       2.832   4.713  18.220  0.00  0.00    +0.000 C 
ATOM      8  C   UNL     1       3.439   3.343  17.812  0.00  0.00    +0.000 C 
ATOM      9  C   UNL     1       2.048   2.696  18.111  0.00  0.00    +0.000 C 
ATOM     10  C   UNL     1       1.437   4.120  18.190  0.00  0.00    +0.000 C 
ENDROOT
BRANCH   1  11
ATOM     11  N   UNL     1       5.586   3.632  19.004  0.00  0.00    +0.000 NA
ATOM     12  H   UNL     1       5.352   4.621  19.072  0.00  0.00    +0.000 HD
ATOM     13  H   UNL     1       6.139   3.539  18.153  0.00  0.00    +0.000 HD
ENDBRANCH   1  11
TORSDOF 1
ENDMDL
