MODEL 1
REMARK VINA RESULT:      -8.2      0.000      0.000
REMARK  Name = 
REMARK  5 active torsions:
REMARK  status: ('A' for Active; 'I' for Inactive)
REMARK    1  A    between atoms: C_7  and  C_8
REMARK    2  A    between atoms: C_8  and  N_9
REMARK    3  A    between atoms: N_12  and  C_13
REMARK    4  A    between atoms: C_13  and  C_14
REMARK    5  A    between atoms: C_15  and  C_16
REMARK                            x       y       z     vdW  Elec       q    Type
REMARK                         _______ _______ _______ _____ _____    ______ ____
ROOT
ATOM      1  N   UNL     1       5.810   4.163  16.586  0.00  0.00    +0.000 NA
ATOM      2  C   UNL     1       6.184   5.250  15.659  0.00  0.00    +0.000 C 
ATOM      3  C   UNL     1       5.733   6.619  16.201  0.00  0.00    +0.000 C 
ATOM      4  N   UNL     1       6.386   6.983  17.469  0.00  0.00    +0.000 NA
ATOM      5  C   UNL     1       6.361   5.841  18.415  0.00  0.00    +0.000 C 
ATOM      6  C   UNL     1       6.483   4.395  17.860  0.00  0.00    +0.000 C 
ENDROOT
BRANCH   1   7
ATOM      7  C   UNL     1       4.337   3.972  16.699  0.00  0.00    +0.000 C 
BRANCH   7  14
ATOM      8  C   UNL     1       1.908   4.015  21.097  0.00  0.00    +0.000 C 
ATOM      9  C   UNL     1       2.956   3.281  20.578  0.00  0.00    +0.000 C 
ATOM     10  C   UNL     1       3.863   3.784  19.357  0.00  0.00    +0.000 C 
ATOM     11  C   UNL     1       2.804   4.646  18.832  0.00  0.00    +0.000 C 
ATOM     12  N   UNL     1       1.958   4.071  18.022  0.00  0.00    +0.000 NA
ATOM     13  O   UNL     1       2.563   2.804  17.759  0.00  0.00    +0.000 OA
ATOM     14  C   UNL     1       3.963   3.074  17.977  0.00  0.00    +0.000 C 
ATOM     15  C   UNL     1       2.523   5.814  19.595  0.00  0.00    +0.000 A 
ATOM     16  C   UNL     1       2.874   7.099  19.244  0.00  0.00    +0.000 A 
ATOM     17  C   UNL     1       2.080   8.093  19.771  0.00  0.00    +0.000 A 
ATOM     18  C   UNL     1       0.965   7.730  20.549  0.00  0.00    +0.000 A 
ATOM     19  C   UNL     1       0.778   6.403  21.010  0.00  0.00    +0.000 A 
ATOM     20  C   UNL     1       1.684   5.429  20.631  0.00  0.00    +0.000 A 
ENDBRANCH   7  14
ENDBRANCH   1   7
BRANCH   4  21
ATOM     21  C   UNL     1       7.700   7.552  17.167  0.00  0.00    +0.000 C 
BRANCH  21  22
ATOM     22  C   UNL     1       8.121   8.665  18.062  0.00  0.00    +0.000 C 
ATOM     23  C   UNL     1       8.635   9.810  17.590  0.00  0.00    +0.000 C 
BRANCH  23  24
ATOM     24  C   UNL     1       9.072  10.839  18.515  0.00  0.00    +0.000 A 
ATOM     25  C   UNL     1       9.414  10.462  19.818  0.00  0.00    +0.000 A 
ATOM     26  C   UNL     1       9.744  11.431  20.763  0.00  0.00    +0.000 A 
ATOM     27  C   UNL     1       9.744  12.785  20.393  0.00  0.00    +0.000 A 
ATOM     28  C   UNL     1       9.422  13.159  19.085  0.00  0.00    +0.000 A 
ATOM     29  C   UNL     1       9.078  12.187  18.143  0.00  0.00    +0.000 A 
ENDBRANCH  23  24
ENDBRANCH  21  22
ENDBRANCH   4  21
TORSDOF 5
ENDMDL
MODEL 2
REMARK VINA RESULT:      -8.2      4.123      6.867
REMARK  Name = 
REMARK  5 active torsions:
REMARK  status: ('A' for Active; 'I' for Inactive)
REMARK    1  A    between atoms: C_7  and  C_8
REMARK    2  A    between atoms: C_8  and  N_9
REMARK    3  A    between atoms: N_12  and  C_13
REMARK    4  A    between atoms: C_13  and  C_14
REMARK    5  A    between atoms: C_15  and  C_16
REMARK                            x       y       z     vdW  Elec       q    Type
REMARK                         _______ _______ _______ _____ _____    ______ ____
ROOT
ATOM      1  N   UNL     1       2.432   6.870  18.033  0.00  0.00    +0.000 NA
ATOM      2  C   UNL     1       3.529   6.620  17.078  0.00  0.00    +0.000 C 
ATOM      3  C   UNL     1       4.897   6.651  17.785  0.00  0.00    +0.000 C 
ATOM      4  N   UNL     1       5.049   5.593  18.798  0.00  0.00    +0.000 NA
ATOM      5  C   UNL     1       3.845   5.519  19.659  0.00  0.00    +0.000 C 
ATOM      6  C   UNL     1       2.450   5.814  19.040  0.00  0.00    +0.000 C 
ENDROOT
BRANCH   1   7
ATOM      7  C   UNL     1       2.449   8.250  18.596  0.00  0.00    +0.000 C 
BRANCH   7  14
ATOM      8  C   UNL     1      -1.263  11.580  19.206  0.00  0.00    +0.000 C 
ATOM      9  C   UNL     1      -0.882  10.732  18.185  0.00  0.00    +0.000 C 
ATOM     10  C   UNL     1       0.020   9.429  18.413  0.00  0.00    +0.000 C 
ATOM     11  C   UNL     1       0.627   9.973  19.627  0.00  0.00    +0.000 C 
ATOM     12  N   UNL     1       1.681  10.721  19.443  0.00  0.00    +0.000 NA
ATOM     13  O   UNL     1       1.994  10.518  18.065  0.00  0.00    +0.000 OA
ATOM     14  C   UNL     1       1.436   9.213  17.806  0.00  0.00    +0.000 C 
ATOM     15  C   UNL     1      -0.223  10.045  20.766  0.00  0.00    +0.000 A 
ATOM     16  C   UNL     1      -0.156   9.215  21.864  0.00  0.00    +0.000 A 
ATOM     17  C   UNL     1      -0.641   9.748  23.037  0.00  0.00    +0.000 A 
ATOM     18  C   UNL     1      -1.090  11.082  23.042  0.00  0.00    +0.000 A 
ATOM     19  C   UNL     1      -1.293  11.805  21.839  0.00  0.00    +0.000 A 
ATOM     20  C   UNL     1      -0.979  11.201  20.635  0.00  0.00    +0.000 A 
ENDBRANCH   7  14
ENDBRANCH   1   7
BRANCH   4  21
ATOM     21  C   UNL     1       5.444   4.357  18.121  0.00  0.00    +0.000 C 
BRANCH  21  22
ATOM     22  C   UNL     1       6.024   4.545  16.762  0.00  0.00    +0.000 C 
ATOM     23  C   UNL     1       5.604   3.844  15.699  0.00  0.00    +0.000 C 
BRANCH  23  24
ATOM     24  C   UNL     1       6.242   4.038  14.411  0.00  0.00    +0.000 A 
ATOM     25  C   UNL     1       7.265   4.986  14.310  0.00  0.00    +0.000 A 
ATOM     26  C   UNL     1       7.836   5.272  13.071  0.00  0.00    +0.000 A 
ATOM     27  C   UNL     1       7.385   4.590  11.929  0.00  0.00    +0.000 A 
ATOM     28  C   UNL     1       6.376   3.628  12.035  0.00  0.00    +0.000 A 
ATOM     29  C   UNL     1       5.797   3.353  13.276  0.00  0.00    +0.000 A 
ENDBRANCH  23  24
ENDBRANCH  21  22
ENDBRANCH   4  21
TORSDOF 5
ENDMDL
MODEL 3
REMARK VINA RESULT:      -8.1      6.304     10.020
REMARK  Name = 
REMARK  5 active torsions:
REMARK  status: ('A' for Active; 'I' for Inactive)
REMARK    1  A    between atoms: C_7  and  C_8
REMARK    2  A    between atoms: C_8  and  N_9
REMARK    3  A    between atoms: N_12  and  C_13
REMARK    4  A    between atoms: C_13  and  C_14
REMARK    5  A    between atoms: C_15  and  C_16
REMARK                            x       y       z     vdW  Elec       q    Type
REMARK                         _______ _______ _______ _____ _____    ______ ____
ROOT
ATOM      1  N   UNL     1       0.814  11.734  21.116  0.00  0.00    +0.000 NA
ATOM      2  C   UNL     1       0.744  10.278  20.884  0.00  0.00    +0.000 C 
ATOM      3  C   UNL     1       0.231   9.967  19.465  0.00  0.00    +0.000 C 
ATOM      4  N   UNL     1       1.126  10.461  18.405  0.00  0.00    +0.000 NA
ATOM      5  C   UNL     1       1.541  11.857  18.683  0.00  0.00    +0.000 C 
ATOM      6  C   UNL     1       1.750  12.308  20.155  0.00  0.00    +0.000 C 
ENDROOT
BRANCH   1   7
ATOM      7  C   UNL     1      -0.525  12.389  21.129  0.00  0.00    +0.000 C 
BRANCH   7  14
ATOM      8  C   UNL     1      -4.021  14.066  24.324  0.00  0.00    +0.000 C 
ATOM      9  C   UNL     1      -2.751  14.480  23.975  0.00  0.00    +0.000 C 
ATOM     10  C   UNL     1      -2.044  14.084  22.594  0.00  0.00    +0.000 C 
ATOM     11  C   UNL     1      -2.844  12.867  22.451  0.00  0.00    +0.000 C 
ATOM     12  N   UNL     1      -2.369  11.807  23.046  0.00  0.00    +0.000 NA
ATOM     13  O   UNL     1      -1.055  12.208  23.436  0.00  0.00    +0.000 OA
ATOM     14  C   UNL     1      -0.744  13.238  22.474  0.00  0.00    +0.000 C 
ATOM     15  C   UNL     1      -4.216  13.063  22.127  0.00  0.00    +0.000 A 
ATOM     16  C   UNL     1      -4.785  12.825  20.895  0.00  0.00    +0.000 A 
ATOM     17  C   UNL     1      -6.132  12.541  20.913  0.00  0.00    +0.000 A 
ATOM     18  C   UNL     1      -6.791  12.450  22.154  0.00  0.00    +0.000 A 
ATOM     19  C   UNL     1      -6.178  12.884  23.356  0.00  0.00    +0.000 A 
ATOM     20  C   UNL     1      -4.876  13.348  23.313  0.00  0.00    +0.000 A 
ENDBRANCH   7  14
ENDBRANCH   1   7
BRANCH   4  21
ATOM     21  C   UNL     1       2.200   9.486  18.214  0.00  0.00    +0.000 C 
BRANCH  21  22
ATOM     22  C   UNL     1       1.786   8.063  18.352  0.00  0.00    +0.000 C 
ATOM     23  C   UNL     1       2.527   7.160  19.011  0.00  0.00    +0.000 C 
BRANCH  23  24
ATOM     24  C   UNL     1       2.093   5.776  19.069  0.00  0.00    +0.000 A 
ATOM     25  C   UNL     1       1.738   5.241  20.312  0.00  0.00    +0.000 A 
ATOM     26  C   UNL     1       1.410   3.892  20.425  0.00  0.00    +0.000 A 
ATOM     27  C   UNL     1       1.425   3.079  19.280  0.00  0.00    +0.000 A 
ATOM     28  C   UNL     1       1.761   3.620  18.035  0.00  0.00    +0.000 A 
ATOM     29  C   UNL     1       2.102   4.970  17.927  0.00  0.00    +0.000 A 
ENDBRANCH  23  24
ENDBRANCH  21  22
ENDBRANCH   4  21
TORSDOF 5
ENDMDL
MODEL 4
REMARK VINA RESULT:      -7.9      6.378      9.854
REMARK  Name = 
REMARK  5 active torsions:
REMARK  status: ('A' for Active; 'I' for Inactive)
REMARK    1  A    between atoms: C_7  and  C_8
REMARK    2  A    between atoms: C_8  and  N_9
REMARK    3  A    between atoms: N_12  and  C_13
REMARK    4  A    between atoms: C_13  and  C_14
REMARK    5  A    between atoms: C_15  and  C_16
REMARK                            x       y       z     vdW  Elec       q    Type
REMARK                         _______ _______ _______ _____ _____    ______ ____
ROOT
ATOM      1  N   UNL     1       0.630  11.309  21.405  0.00  0.00    +0.000 NA
ATOM      2  C   UNL     1       0.904   9.926  20.966  0.00  0.00    +0.000 C 
ATOM      3  C   UNL     1       0.307   9.660  19.571  0.00  0.00    +0.000 C 
ATOM      4  N   UNL     1       0.899  10.500  18.517  0.00  0.00    +0.000 NA
ATOM      5  C   UNL     1       0.978  11.913  18.960  0.00  0.00    +0.000 C 
ATOM      6  C   UNL     1       1.256  12.224  20.457  0.00  0.00    +0.000 C 
ENDROOT
BRANCH   1   7
ATOM      7  C   UNL     1      -0.818  11.571  21.642  0.00  0.00    +0.000 C 
BRANCH   7  14
ATOM      8  C   UNL     1      -4.307  14.464  23.810  0.00  0.00    +0.000 C 
ATOM      9  C   UNL     1      -2.978  14.636  23.478  0.00  0.00    +0.000 C 
ATOM     10  C   UNL     1      -2.230  13.765  22.361  0.00  0.00    +0.000 C 
ATOM     11  C   UNL     1      -3.150  12.639  22.519  0.00  0.00    +0.000 C 
ATOM     12  N   UNL     1      -2.839  11.784  23.454  0.00  0.00    +0.000 NA
ATOM     13  O   UNL     1      -1.517  12.171  23.830  0.00  0.00    +0.000 OA
ATOM     14  C   UNL     1      -1.029  12.815  22.634  0.00  0.00    +0.000 C 
ATOM     15  C   UNL     1      -4.467  12.841  22.017  0.00  0.00    +0.000 A 
ATOM     16  C   UNL     1      -4.976  12.278  20.868  0.00  0.00    +0.000 A 
ATOM     17  C   UNL     1      -6.345  12.132  20.839  0.00  0.00    +0.000 A 
ATOM     18  C   UNL     1      -7.091  12.493  21.977  0.00  0.00    +0.000 A 
ATOM     19  C   UNL     1      -6.514  13.228  23.043  0.00  0.00    +0.000 A 
ATOM     20  C   UNL     1      -5.168  13.541  22.988  0.00  0.00    +0.000 A 
ENDBRANCH   7  14
ENDBRANCH   1   7
BRANCH   4  21
ATOM     21  C   UNL     1       2.153   9.882  18.082  0.00  0.00    +0.000 C 
BRANCH  21  22
ATOM     22  C   UNL     1       2.130   8.394  18.025  0.00  0.00    +0.000 C 
ATOM     23  C   UNL     1       3.236   7.668  17.807  0.00  0.00    +0.000 C 
BRANCH  23  24
ATOM     24  C   UNL     1       3.142   6.223  17.714  0.00  0.00    +0.000 A 
ATOM     25  C   UNL     1       4.244   5.513  17.226  0.00  0.00    +0.000 A 
ATOM     26  C   UNL     1       4.160   4.136  17.030  0.00  0.00    +0.000 A 
ATOM     27  C   UNL     1       2.965   3.467  17.339  0.00  0.00    +0.000 A 
ATOM     28  C   UNL     1       1.870   4.174  17.846  0.00  0.00    +0.000 A 
ATOM     29  C   UNL     1       1.954   5.556  18.029  0.00  0.00    +0.000 A 
ENDBRANCH  23  24
ENDBRANCH  21  22
ENDBRANCH   4  21
TORSDOF 5
ENDMDL
MODEL 5
REMARK VINA RESULT:      -7.9      0.964      1.618
REMARK  Name = 
REMARK  5 active torsions:
REMARK  status: ('A' for Active; 'I' for Inactive)
REMARK    1  A    between atoms: C_7  and  C_8
REMARK    2  A    between atoms: C_8  and  N_9
REMARK    3  A    between atoms: N_12  and  C_13
REMARK    4  A    between atoms: C_13  and  C_14
REMARK    5  A    between atoms: C_15  and  C_16
REMARK                            x       y       z     vdW  Elec       q    Type
REMARK                         _______ _______ _______ _____ _____    ______ ____
ROOT
ATOM      1  N   UNL     1       5.276   4.256  16.581  0.00  0.00    +0.000 NA
ATOM      2  C   UNL     1       5.767   5.346  15.715  0.00  0.00    +0.000 C 
ATOM      3  C   UNL     1       5.574   6.717  16.388  0.00  0.00    +0.000 C 
ATOM      4  N   UNL     1       6.348   6.866  17.632  0.00  0.00    +0.000 NA
ATOM      5  C   UNL     1       6.193   5.665  18.488  0.00  0.00    +0.000 C 
ATOM      6  C   UNL     1       6.048   4.270  17.819  0.00  0.00    +0.000 C 
ENDROOT
BRANCH   1   7
ATOM      7  C   UNL     1       3.799   4.288  16.782  0.00  0.00    +0.000 C 
BRANCH   7  14
ATOM      8  C   UNL     1       1.667   6.394  20.814  0.00  0.00    +0.000 C 
ATOM      9  C   UNL     1       2.599   5.394  20.625  0.00  0.00    +0.000 C 
ATOM     10  C   UNL     1       3.475   5.248  19.292  0.00  0.00    +0.000 C 
ATOM     11  C   UNL     1       2.480   5.945  18.476  0.00  0.00    +0.000 C 
ATOM     12  N   UNL     1       1.531   5.196  17.984  0.00  0.00    +0.000 NA
ATOM     13  O   UNL     1       1.984   3.869  18.253  0.00  0.00    +0.000 OA
ATOM     14  C   UNL     1       3.416   4.035  18.320  0.00  0.00    +0.000 C 
ATOM     15  C   UNL     1       2.368   7.346  18.699  0.00  0.00    +0.000 A 
ATOM     16  C   UNL     1       2.827   8.327  17.848  0.00  0.00    +0.000 A 
ATOM     17  C   UNL     1       2.175   9.536  17.935  0.00  0.00    +0.000 A 
ATOM     18  C   UNL     1       1.078   9.654  18.809  0.00  0.00    +0.000 A 
ATOM     19  C   UNL     1       0.785   8.659  19.775  0.00  0.00    +0.000 A 
ATOM     20  C   UNL     1       1.561   7.515  19.814  0.00  0.00    +0.000 A 
ENDBRANCH   7  14
ENDBRANCH   1   7
BRANCH   4  21
ATOM     21  C   UNL     1       7.718   7.246  17.283  0.00  0.00    +0.000 C 
BRANCH  21  22
ATOM     22  C   UNL     1       8.282   8.362  18.090  0.00  0.00    +0.000 C 
ATOM     23  C   UNL     1       8.274   9.633  17.661  0.00  0.00    +0.000 C 
BRANCH  23  24
ATOM     24  C   UNL     1       8.883  10.671  18.472  0.00  0.00    +0.000 A 
ATOM     25  C   UNL     1       9.005  11.955  17.929  0.00  0.00    +0.000 A 
ATOM     26  C   UNL     1       9.670  12.953  18.637  0.00  0.00    +0.000 A 
ATOM     27  C   UNL     1      10.203  12.664  19.904  0.00  0.00    +0.000 A 
ATOM     28  C   UNL     1      10.061  11.386  20.454  0.00  0.00    +0.000 A 
ATOM     29  C   UNL     1       9.406  10.383  19.736  0.00  0.00    +0.000 A 
ENDBRANCH  23  24
ENDBRANCH  21  22
ENDBRANCH   4  21
TORSDOF 5
ENDMDL
MODEL 6
REMARK VINA RESULT:      -7.9      6.692     10.060
REMARK  Name = 
REMARK  5 active torsions:
REMARK  status: ('A' for Active; 'I' for Inactive)
REMARK    1  A    between atoms: C_7  and  C_8
REMARK    2  A    between atoms: C_8  and  N_9
REMARK    3  A    between atoms: N_12  and  C_13
REMARK    4  A    between atoms: C_13  and  C_14
REMARK    5  A    between atoms: C_15  and  C_16
REMARK                            x       y       z     vdW  Elec       q    Type
REMARK                         _______ _______ _______ _____ _____    ______ ____
ROOT
ATOM      1  N   UNL     1      -0.237  12.301  20.344  0.00  0.00    +0.000 NA
ATOM      2  C   UNL     1       0.875  11.376  20.641  0.00  0.00    +0.000 C 
ATOM      3  C   UNL     1       0.503   9.927  20.277  0.00  0.00    +0.000 C 
ATOM      4  N   UNL     1       0.248   9.738  18.840  0.00  0.00    +0.000 NA
ATOM      5  C   UNL     1      -0.633  10.813  18.321  0.00  0.00    +0.000 C 
ATOM      6  C   UNL     1      -0.511  12.244  18.912  0.00  0.00    +0.000 C 
ENDROOT
BRANCH   1   7
ATOM      7  C   UNL     1      -1.433  12.072  21.204  0.00  0.00    +0.000 C 
BRANCH   7  14
ATOM      8  C   UNL     1      -4.770  14.436  24.122  0.00  0.00    +0.000 C 
ATOM      9  C   UNL     1      -3.548  14.777  23.578  0.00  0.00    +0.000 C 
ATOM     10  C   UNL     1      -2.922  14.051  22.295  0.00  0.00    +0.000 C 
ATOM     11  C   UNL     1      -3.673  12.820  22.536  0.00  0.00    +0.000 C 
ATOM     12  N   UNL     1      -3.111  11.965  23.346  0.00  0.00    +0.000 NA
ATOM     13  O   UNL     1      -1.792  12.487  23.513  0.00  0.00    +0.000 OA
ATOM     14  C   UNL     1      -1.596  13.237  22.296  0.00  0.00    +0.000 C 
ATOM     15  C   UNL     1      -5.072  12.889  22.282  0.00  0.00    +0.000 A 
ATOM     16  C   UNL     1      -5.715  12.322  21.203  0.00  0.00    +0.000 A 
ATOM     17  C   UNL     1      -7.043  12.018  21.400  0.00  0.00    +0.000 A 
ATOM     18  C   UNL     1      -7.609  12.238  22.670  0.00  0.00    +0.000 A 
ATOM     19  C   UNL     1      -6.934  12.987  23.667  0.00  0.00    +0.000 A 
ATOM     20  C   UNL     1      -5.660  13.457  23.402  0.00  0.00    +0.000 A 
ENDBRANCH   7  14
ENDBRANCH   1   7
BRANCH   4  21
ATOM     21  C   UNL     1       1.533   9.563  18.160  0.00  0.00    +0.000 C 
BRANCH  21  22
ATOM     22  C   UNL     1       1.947   8.147  17.962  0.00  0.00    +0.000 C 
ATOM     23  C   UNL     1       3.232   7.789  17.819  0.00  0.00    +0.000 C 
BRANCH  23  24
ATOM     24  C   UNL     1       3.569   6.398  17.580  0.00  0.00    +0.000 A 
ATOM     25  C   UNL     1       2.690   5.411  18.037  0.00  0.00    +0.000 A 
ATOM     26  C   UNL     1       3.024   4.064  17.914  0.00  0.00    +0.000 A 
ATOM     27  C   UNL     1       4.243   3.707  17.314  0.00  0.00    +0.000 A 
ATOM     28  C   UNL     1       5.112   4.694  16.839  0.00  0.00    +0.000 A 
ATOM     29  C   UNL     1       4.780   6.044  16.976  0.00  0.00    +0.000 A 
ENDBRANCH  23  24
ENDBRANCH  21  22
ENDBRANCH   4  21
TORSDOF 5
ENDMDL
MODEL 7
REMARK VINA RESULT:      -7.9      6.632     10.396
REMARK  Name = 
REMARK  5 active torsions:
REMARK  status: ('A' for Active; 'I' for Inactive)
REMARK    1  A    between atoms: C_7  and  C_8
REMARK    2  A    between atoms: C_8  and  N_9
REMARK    3  A    between atoms: N_12  and  C_13
REMARK    4  A    between atoms: C_13  and  C_14
REMARK    5  A    between atoms: C_15  and  C_16
REMARK                            x       y       z     vdW  Elec       q    Type
REMARK                         _______ _______ _______ _____ _____    ______ ____
ROOT
ATOM      1  N   UNL     1      -0.073  11.532  21.952  0.00  0.00    +0.000 NA
ATOM      2  C   UNL     1      -0.048  10.238  22.663  0.00  0.00    +0.000 C 
ATOM      3  C   UNL     1      -0.459   9.085  21.730  0.00  0.00    +0.000 C 
ATOM      4  N   UNL     1       0.466   8.896  20.600  0.00  0.00    +0.000 NA
ATOM      5  C   UNL     1       0.786  10.197  19.966  0.00  0.00    +0.000 C 
ATOM      6  C   UNL     1       0.884  11.469  20.852  0.00  0.00    +0.000 C 
ENDROOT
BRANCH   1   7
ATOM      7  C   UNL     1      -1.445  11.948  21.544  0.00  0.00    +0.000 C 
BRANCH   7  14
ATOM      8  C   UNL     1      -5.448  14.599  23.022  0.00  0.00    +0.000 C 
ATOM      9  C   UNL     1      -4.134  14.910  22.738  0.00  0.00    +0.000 C 
ATOM     10  C   UNL     1      -3.192  13.997  21.819  0.00  0.00    +0.000 C 
ATOM     11  C   UNL     1      -3.961  12.786  22.109  0.00  0.00    +0.000 C 
ATOM     12  N   UNL     1      -3.608  12.139  23.187  0.00  0.00    +0.000 NA
ATOM     13  O   UNL     1      -2.383  12.769  23.564  0.00  0.00    +0.000 OA
ATOM     14  C   UNL     1      -1.897  13.286  22.307  0.00  0.00    +0.000 C 
ATOM     15  C   UNL     1      -5.250  12.714  21.512  0.00  0.00    +0.000 A 
ATOM     16  C   UNL     1      -5.590  11.913  20.444  0.00  0.00    +0.000 A 
ATOM     17  C   UNL     1      -6.920  11.566  20.366  0.00  0.00    +0.000 A 
ATOM     18  C   UNL     1      -7.792  11.984  21.389  0.00  0.00    +0.000 A 
ATOM     19  C   UNL     1      -7.403  12.951  22.350  0.00  0.00    +0.000 A 
ATOM     20  C   UNL     1      -6.112  13.445  22.317  0.00  0.00    +0.000 A 
ENDBRANCH   7  14
ENDBRANCH   1   7
BRANCH   4  21
ATOM     21  C   UNL     1       1.603   8.098  21.062  0.00  0.00    +0.000 C 
BRANCH  21  22
ATOM     22  C   UNL     1       1.820   6.828  20.314  0.00  0.00    +0.000 C 
ATOM     23  C   UNL     1       2.487   6.785  19.151  0.00  0.00    +0.000 C 
BRANCH  23  24
ATOM     24  C   UNL     1       2.624   5.525  18.446  0.00  0.00    +0.000 A 
ATOM     25  C   UNL     1       1.666   4.530  18.667  0.00  0.00    +0.000 A 
ATOM     26  C   UNL     1       1.815   3.273  18.085  0.00  0.00    +0.000 A 
ATOM     27  C   UNL     1       2.926   3.019  17.264  0.00  0.00    +0.000 A 
ATOM     28  C   UNL     1       3.872   4.021  17.028  0.00  0.00    +0.000 A 
ATOM     29  C   UNL     1       3.727   5.276  17.624  0.00  0.00    +0.000 A 
ENDBRANCH  23  24
ENDBRANCH  21  22
ENDBRANCH   4  21
TORSDOF 5
ENDMDL
MODEL 8
REMARK VINA RESULT:      -7.8      6.766     10.812
REMARK  Name = 
REMARK  5 active torsions:
REMARK  status: ('A' for Active; 'I' for Inactive)
REMARK    1  A    between atoms: C_7  and  C_8
REMARK    2  A    between atoms: C_8  and  N_9
REMARK    3  A    between atoms: N_12  and  C_13
REMARK    4  A    between atoms: C_13  and  C_14
REMARK    5  A    between atoms: C_15  and  C_16
REMARK                            x       y       z     vdW  Elec       q    Type
REMARK                         _______ _______ _______ _____ _____    ______ ____
ROOT
ATOM      1  N   UNL     1      -0.270  11.204  22.608  0.00  0.00    +0.000 NA
ATOM      2  C   UNL     1      -0.052   9.830  23.102  0.00  0.00    +0.000 C 
ATOM      3  C   UNL     1      -0.492   8.789  22.056  0.00  0.00    +0.000 C 
ATOM      4  N   UNL     1       0.290   8.855  20.810  0.00  0.00    +0.000 NA
ATOM      5  C   UNL     1       0.423  10.259  20.351  0.00  0.00    +0.000 C 
ATOM      6  C   UNL     1       0.537  11.394  21.407  0.00  0.00    +0.000 C 
ENDROOT
BRANCH   1   7
ATOM      7  C   UNL     1      -1.711  11.542  22.434  0.00  0.00    +0.000 C 
BRANCH   7  14
ATOM      8  C   UNL     1      -5.251  15.107  22.458  0.00  0.00    +0.000 C 
ATOM      9  C   UNL     1      -3.870  15.114  22.452  0.00  0.00    +0.000 C 
ATOM     10  C   UNL     1      -2.985  13.879  21.947  0.00  0.00    +0.000 C 
ATOM     11  C   UNL     1      -4.043  12.911  22.234  0.00  0.00    +0.000 C 
ATOM     12  N   UNL     1      -4.068  12.448  23.454  0.00  0.00    +0.000 NA
ATOM     13  O   UNL     1      -2.837  12.914  24.009  0.00  0.00    +0.000 OA
ATOM     14  C   UNL     1      -2.005  13.067  22.840  0.00  0.00    +0.000 C 
ATOM     15  C   UNL     1      -5.168  12.947  21.363  0.00  0.00    +0.000 A 
ATOM     16  C   UNL     1      -5.451  12.016  20.388  0.00  0.00    +0.000 A 
ATOM     17  C   UNL     1      -6.780  11.901  20.049  0.00  0.00    +0.000 A 
ATOM     18  C   UNL     1      -7.728  12.669  20.750  0.00  0.00    +0.000 A 
ATOM     19  C   UNL     1      -7.341  13.729  21.609  0.00  0.00    +0.000 A 
ATOM     20  C   UNL     1      -5.993  13.969  21.809  0.00  0.00    +0.000 A 
ENDBRANCH   7  14
ENDBRANCH   1   7
BRANCH   4  21
ATOM     21  C   UNL     1       1.536   8.112  21.004  0.00  0.00    +0.000 C 
BRANCH  21  22
ATOM     22  C   UNL     1       1.684   6.905  20.145  0.00  0.00    +0.000 C 
ATOM     23  C   UNL     1       1.589   5.660  20.635  0.00  0.00    +0.000 C 
BRANCH  23  24
ATOM     24  C   UNL     1       1.792   4.523  19.757  0.00  0.00    +0.000 A 
ATOM     25  C   UNL     1       2.730   4.636  18.725  0.00  0.00    +0.000 A 
ATOM     26  C   UNL     1       2.884   3.604  17.802  0.00  0.00    +0.000 A 
ATOM     27  C   UNL     1       2.101   2.445  17.925  0.00  0.00    +0.000 A 
ATOM     28  C   UNL     1       1.178   2.325  18.968  0.00  0.00    +0.000 A 
ATOM     29  C   UNL     1       1.016   3.367  19.884  0.00  0.00    +0.000 A 
ENDBRANCH  23  24
ENDBRANCH  21  22
ENDBRANCH   4  21
TORSDOF 5
ENDMDL
MODEL 9
REMARK VINA RESULT:      -7.8      6.500     10.157
REMARK  Name = 
REMARK  5 active torsions:
REMARK  status: ('A' for Active; 'I' for Inactive)
REMARK    1  A    between atoms: C_7  and  C_8
REMARK    2  A    between atoms: C_8  and  N_9
REMARK    3  A    between atoms: N_12  and  C_13
REMARK    4  A    between atoms: C_13  and  C_14
REMARK    5  A    between atoms: C_15  and  C_16
REMARK                            x       y       z     vdW  Elec       q    Type
REMARK                         _______ _______ _______ _____ _____    ______ ____
ROOT
ATOM      1  N   UNL     1      -0.056  11.085  21.089  0.00  0.00    +0.000 NA
ATOM      2  C   UNL     1      -0.099   9.815  20.338  0.00  0.00    +0.000 C 
ATOM      3  C   UNL     1      -0.162  10.072  18.820  0.00  0.00    +0.000 C 
ATOM      4  N   UNL     1       1.030  10.762  18.300  0.00  0.00    +0.000 NA
ATOM      5  C   UNL     1       1.385  11.913  19.166  0.00  0.00    +0.000 C 
ATOM      6  C   UNL     1       1.148  11.811  20.697  0.00  0.00    +0.000 C 
ENDROOT
BRANCH   1   7
ATOM      7  C   UNL     1      -1.312  11.878  20.970  0.00  0.00    +0.000 C 
BRANCH   7  14
ATOM      8  C   UNL     1      -4.378  14.464  23.996  0.00  0.00    +0.000 C 
ATOM      9  C   UNL     1      -3.161  14.726  23.399  0.00  0.00    +0.000 C 
ATOM     10  C   UNL     1      -2.633  13.953  22.100  0.00  0.00    +0.000 C 
ATOM     11  C   UNL     1      -3.447  12.771  22.384  0.00  0.00    +0.000 C 
ATOM     12  N   UNL     1      -2.904  11.890  23.180  0.00  0.00    +0.000 NA
ATOM     13  O   UNL     1      -1.551  12.333  23.288  0.00  0.00    +0.000 OA
ATOM     14  C   UNL     1      -1.360  13.060  22.056  0.00  0.00    +0.000 C 
ATOM     15  C   UNL     1      -4.848  12.923  22.186  0.00  0.00    +0.000 A 
ATOM     16  C   UNL     1      -5.568  12.388  21.140  0.00  0.00    +0.000 A 
ATOM     17  C   UNL     1      -6.903  12.167  21.394  0.00  0.00    +0.000 A 
ATOM     18  C   UNL     1      -7.401  12.431  22.684  0.00  0.00    +0.000 A 
ATOM     19  C   UNL     1      -6.642  13.145  23.644  0.00  0.00    +0.000 A 
ATOM     20  C   UNL     1      -5.354  13.535  23.324  0.00  0.00    +0.000 A 
ENDBRANCH   7  14
ENDBRANCH   1   7
BRANCH   4  21
ATOM     21  C   UNL     1       2.079   9.768  18.073  0.00  0.00    +0.000 C 
BRANCH  21  22
ATOM     22  C   UNL     1       1.746   8.391  18.533  0.00  0.00    +0.000 C 
ATOM     23  C   UNL     1       2.623   7.379  18.460  0.00  0.00    +0.000 C 
BRANCH  23  24
ATOM     24  C   UNL     1       2.224   6.049  18.880  0.00  0.00    +0.000 A 
ATOM     25  C   UNL     1       2.026   5.072  17.898  0.00  0.00    +0.000 A 
ATOM     26  C   UNL     1       1.549   3.811  18.252  0.00  0.00    +0.000 A 
ATOM     27  C   UNL     1       1.283   3.526  19.601  0.00  0.00    +0.000 A 
ATOM     28  C   UNL     1       1.501   4.497  20.583  0.00  0.00    +0.000 A 
ATOM     29  C   UNL     1       1.967   5.765  20.224  0.00  0.00    +0.000 A 
ENDBRANCH  23  24
ENDBRANCH  21  22
ENDBRANCH   4  21
TORSDOF 5
ENDMDL
