MODEL 1
REMARK VINA RESULT:      -7.4      0.000      0.000
REMARK  Name = 
REMARK  10 active torsions:
REMARK  status: ('A' for Active; 'I' for Inactive)
REMARK    1  A    between atoms: C_1  and  C_2
REMARK    2  A    between atoms: C_3  and  C_4
REMARK    3  A    between atoms: C_4  and  C_6
REMARK    4  A    between atoms: C_9  and  C_10
REMARK    5  A    between atoms: C_10  and  O_12
REMARK    6  A    between atoms: C_18  and  N_19
REMARK    7  A    between atoms: C_22  and  C_23
REMARK    8  A    between atoms: C_22  and  C_24
REMARK    9  A    between atoms: C_27  and  C_28
REMARK   10  A    between atoms: C_27  and  C_29
REMARK                            x       y       z     vdW  Elec       q    Type
REMARK                         _______ _______ _______ _____ _____    ______ ____
ROOT
ATOM      1  C   UNL     1      -1.943  10.289  17.155  0.00  0.00    +0.000 C 
ATOM      2  C   UNL     1      -2.177  11.187  18.350  0.00  0.00    +0.000 A 
ATOM      3  C   UNL     1      -1.134  11.660  19.151  0.00  0.00    +0.000 A 
ATOM      4  C   UNL     1      -1.446  12.405  20.299  0.00  0.00    +0.000 A 
ATOM      5  C   UNL     1      -2.759  12.793  20.662  0.00  0.00    +0.000 A 
ATOM      6  C   UNL     1      -3.834  12.454  19.803  0.00  0.00    +0.000 A 
ATOM      7  C   UNL     1      -3.499  11.635  18.667  0.00  0.00    +0.000 A 
ATOM      8  C   UNL     1      -5.272  12.925  20.146  0.00  0.00    +0.000 C 
ATOM      9  C   UNL     1      -6.007  13.601  18.963  0.00  0.00    +0.000 C 
ATOM     10  C   UNL     1      -6.103  11.735  20.689  0.00  0.00    +0.000 C 
ATOM     11  C   UNL     1      -5.294  14.028  21.246  0.00  0.00    +0.000 C 
ATOM     12  C   UNL     1      -4.377  13.722  22.409  0.00  0.00    +0.000 C 
ATOM     13  C   UNL     1      -2.912  13.609  21.961  0.00  0.00    +0.000 C 
ATOM     14  C   UNL     1      -2.326  15.024  21.738  0.00  0.00    +0.000 C 
ATOM     15  C   UNL     1      -2.158  12.951  23.144  0.00  0.00    +0.000 C 
ENDROOT
BRANCH   7  16
ATOM     16  N   UNL     1      -4.517  11.243  17.697  0.00  0.00    +0.000 N 
ATOM     17  O   UNL     1      -5.222  10.269  17.996  0.00  0.00    +0.000 OA
ATOM     18  O   UNL     1      -4.656  11.947  16.690  0.00  0.00    +0.000 OA
ENDBRANCH   7  16
BRANCH   3  19
ATOM     19  C   UNL     1       0.319  11.382  18.882  0.00  0.00    +0.000 C 
ATOM     20  O   UNL     1       1.063  12.265  18.471  0.00  0.00    +0.000 OA
BRANCH  19  21
ATOM     21  C   UNL     1       0.871  10.000  19.004  0.00  0.00    +0.000 A 
ATOM     22  C   UNL     1       1.496   9.347  17.935  0.00  0.00    +0.000 A 
ATOM     23  C   UNL     1       2.140   8.125  18.148  0.00  0.00    +0.000 A 
ATOM     24  C   UNL     1       2.144   7.529  19.418  0.00  0.00    +0.000 A 
ATOM     25  C   UNL     1       1.463   8.150  20.473  0.00  0.00    +0.000 A 
ATOM     26  C   UNL     1       0.820   9.375  20.258  0.00  0.00    +0.000 A 
BRANCH  24  27
ATOM     27  C   UNL     1       2.962   6.301  19.606  0.00  0.00    +0.000 C 
ATOM     28  O   UNL     1       3.818   5.962  18.804  0.00  0.00    +0.000 OA
BRANCH  27  29
ATOM     29  O   UNL     1       2.663   5.586  20.709  0.00  0.00    +0.000 OA
ATOM     30  H   UNL     1       1.716   5.429  20.864  0.00  0.00    +0.000 HD
ENDBRANCH  27  29
ENDBRANCH  24  27
ENDBRANCH  19  21
ENDBRANCH   3  19
TORSDOF 5
ENDMDL
MODEL 2
REMARK VINA RESULT:      -7.4      0.891      1.301
REMARK  Name = 
REMARK  10 active torsions:
REMARK  status: ('A' for Active; 'I' for Inactive)
REMARK    1  A    between atoms: C_1  and  C_2
REMARK    2  A    between atoms: C_3  and  C_4
REMARK    3  A    between atoms: C_4  and  C_6
REMARK    4  A    between atoms: C_9  and  C_10
REMARK    5  A    between atoms: C_10  and  O_12
REMARK    6  A    between atoms: C_18  and  N_19
REMARK    7  A    between atoms: C_22  and  C_23
REMARK    8  A    between atoms: C_22  and  C_24
REMARK    9  A    between atoms: C_27  and  C_28
REMARK   10  A    between atoms: C_27  and  C_29
REMARK                            x       y       z     vdW  Elec       q    Type
REMARK                         _______ _______ _______ _____ _____    ______ ____
ROOT
ATOM      1  C   UNL     1      -2.499  11.042  17.056  0.00  0.00    +0.000 C 
ATOM      2  C   UNL     1      -2.820  11.662  18.399  0.00  0.00    +0.000 A 
ATOM      3  C   UNL     1      -1.828  12.073  19.293  0.00  0.00    +0.000 A 
ATOM      4  C   UNL     1      -2.210  12.546  20.559  0.00  0.00    +0.000 A 
ATOM      5  C   UNL     1      -3.555  12.719  20.969  0.00  0.00    +0.000 A 
ATOM      6  C   UNL     1      -4.593  12.446  20.044  0.00  0.00    +0.000 A 
ATOM      7  C   UNL     1      -4.180  11.902  18.776  0.00  0.00    +0.000 A 
ATOM      8  C   UNL     1      -6.070  12.692  20.449  0.00  0.00    +0.000 C 
ATOM      9  C   UNL     1      -6.876  13.507  19.407  0.00  0.00    +0.000 C 
ATOM     10  C   UNL     1      -6.772  11.342  20.737  0.00  0.00    +0.000 C 
ATOM     11  C   UNL     1      -6.201  13.553  21.741  0.00  0.00    +0.000 C 
ATOM     12  C   UNL     1      -5.252  13.121  22.837  0.00  0.00    +0.000 C 
ATOM     13  C   UNL     1      -3.785  13.247  22.399  0.00  0.00    +0.000 C 
ATOM     14  C   UNL     1      -3.350  14.731  22.464  0.00  0.00    +0.000 C 
ATOM     15  C   UNL     1      -2.962  12.453  23.444  0.00  0.00    +0.000 C 
ENDROOT
BRANCH   7  16
ATOM     16  N   UNL     1      -5.156  11.605  17.732  0.00  0.00    +0.000 N 
ATOM     17  O   UNL     1      -5.759  10.527  17.828  0.00  0.00    +0.000 OA
ATOM     18  O   UNL     1      -5.367  12.470  16.876  0.00  0.00    +0.000 OA
ENDBRANCH   7  16
BRANCH   3  19
ATOM     19  C   UNL     1      -0.356  12.003  18.999  0.00  0.00    +0.000 C 
ATOM     20  O   UNL     1       0.222  12.932  18.446  0.00  0.00    +0.000 OA
BRANCH  19  21
ATOM     21  C   UNL     1       0.423  10.759  19.273  0.00  0.00    +0.000 A 
ATOM     22  C   UNL     1       0.381  10.108  20.512  0.00  0.00    +0.000 A 
ATOM     23  C   UNL     1       0.993   8.861  20.664  0.00  0.00    +0.000 A 
ATOM     24  C   UNL     1       1.677   8.264  19.593  0.00  0.00    +0.000 A 
ATOM     25  C   UNL     1       1.774   8.943  18.373  0.00  0.00    +0.000 A 
ATOM     26  C   UNL     1       1.158  10.192  18.223  0.00  0.00    +0.000 A 
BRANCH  24  27
ATOM     27  C   UNL     1       2.186   6.879  19.781  0.00  0.00    +0.000 C 
ATOM     28  O   UNL     1       2.661   6.231  18.862  0.00  0.00    +0.000 OA
BRANCH  27  29
ATOM     29  O   UNL     1       2.052   6.393  21.031  0.00  0.00    +0.000 OA
ATOM     30  H   UNL     1       2.377   6.969  21.744  0.00  0.00    +0.000 HD
ENDBRANCH  27  29
ENDBRANCH  24  27
ENDBRANCH  19  21
ENDBRANCH   3  19
TORSDOF 5
ENDMDL
MODEL 3
REMARK VINA RESULT:      -7.3      0.440      1.262
REMARK  Name = 
REMARK  10 active torsions:
REMARK  status: ('A' for Active; 'I' for Inactive)
REMARK    1  A    between atoms: C_1  and  C_2
REMARK    2  A    between atoms: C_3  and  C_4
REMARK    3  A    between atoms: C_4  and  C_6
REMARK    4  A    between atoms: C_9  and  C_10
REMARK    5  A    between atoms: C_10  and  O_12
REMARK    6  A    between atoms: C_18  and  N_19
REMARK    7  A    between atoms: C_22  and  C_23
REMARK    8  A    between atoms: C_22  and  C_24
REMARK    9  A    between atoms: C_27  and  C_28
REMARK   10  A    between atoms: C_27  and  C_29
REMARK                            x       y       z     vdW  Elec       q    Type
REMARK                         _______ _______ _______ _____ _____    ______ ____
ROOT
ATOM      1  C   UNL     1      -1.916  10.365  17.235  0.00  0.00    +0.000 C 
ATOM      2  C   UNL     1      -2.194  11.266  18.418  0.00  0.00    +0.000 A 
ATOM      3  C   UNL     1      -1.177  11.771  19.233  0.00  0.00    +0.000 A 
ATOM      4  C   UNL     1      -1.528  12.517  20.370  0.00  0.00    +0.000 A 
ATOM      5  C   UNL     1      -2.856  12.875  20.707  0.00  0.00    +0.000 A 
ATOM      6  C   UNL     1      -3.907  12.503  19.832  0.00  0.00    +0.000 A 
ATOM      7  C   UNL     1      -3.532  11.684  18.708  0.00  0.00    +0.000 A 
ATOM      8  C   UNL     1      -5.362  12.941  20.146  0.00  0.00    +0.000 C 
ATOM      9  C   UNL     1      -6.092  13.590  18.944  0.00  0.00    +0.000 C 
ATOM     10  C   UNL     1      -6.173  11.735  20.683  0.00  0.00    +0.000 C 
ATOM     11  C   UNL     1      -5.430  14.052  21.236  0.00  0.00    +0.000 C 
ATOM     12  C   UNL     1      -4.527  13.777  22.417  0.00  0.00    +0.000 C 
ATOM     13  C   UNL     1      -3.052  13.697  21.995  0.00  0.00    +0.000 C 
ATOM     14  C   UNL     1      -2.497  15.124  21.771  0.00  0.00    +0.000 C 
ATOM     15  C   UNL     1      -2.303  13.067  23.197  0.00  0.00    +0.000 C 
ENDROOT
BRANCH   7  16
ATOM     16  N   UNL     1      -4.522  11.260  17.723  0.00  0.00    +0.000 N 
ATOM     17  O   UNL     1      -4.569  11.910  16.669  0.00  0.00    +0.000 OA
ATOM     18  O   UNL     1      -5.186  10.247  17.970  0.00  0.00    +0.000 OA
ENDBRANCH   7  16
BRANCH   3  19
ATOM     19  C   UNL     1       0.287  11.527  18.992  0.00  0.00    +0.000 C 
ATOM     20  O   UNL     1       0.976  12.356  18.409  0.00  0.00    +0.000 OA
BRANCH  19  21
ATOM     21  C   UNL     1       0.918  10.225  19.360  0.00  0.00    +0.000 A 
ATOM     22  C   UNL     1       0.801   9.672  20.641  0.00  0.00    +0.000 A 
ATOM     23  C   UNL     1       1.268   8.378  20.885  0.00  0.00    +0.000 A 
ATOM     24  C   UNL     1       1.880   7.633  19.865  0.00  0.00    +0.000 A 
ATOM     25  C   UNL     1       2.055   8.210  18.601  0.00  0.00    +0.000 A 
ATOM     26  C   UNL     1       1.586   9.506  18.359  0.00  0.00    +0.000 A 
BRANCH  24  27
ATOM     27  C   UNL     1       2.228   6.216  20.153  0.00  0.00    +0.000 C 
ATOM     28  O   UNL     1       1.402   5.413  20.556  0.00  0.00    +0.000 OA
BRANCH  27  29
ATOM     29  O   UNL     1       3.526   5.903  19.965  0.00  0.00    +0.000 OA
ATOM     30  H   UNL     1       4.168   6.554  20.297  0.00  0.00    +0.000 HD
ENDBRANCH  27  29
ENDBRANCH  24  27
ENDBRANCH  19  21
ENDBRANCH   3  19
TORSDOF 5
ENDMDL
MODEL 4
REMARK VINA RESULT:      -7.3      1.356      2.150
REMARK  Name = 
REMARK  10 active torsions:
REMARK  status: ('A' for Active; 'I' for Inactive)
REMARK    1  A    between atoms: C_1  and  C_2
REMARK    2  A    between atoms: C_3  and  C_4
REMARK    3  A    between atoms: C_4  and  C_6
REMARK    4  A    between atoms: C_9  and  C_10
REMARK    5  A    between atoms: C_10  and  O_12
REMARK    6  A    between atoms: C_18  and  N_19
REMARK    7  A    between atoms: C_22  and  C_23
REMARK    8  A    between atoms: C_22  and  C_24
REMARK    9  A    between atoms: C_27  and  C_28
REMARK   10  A    between atoms: C_27  and  C_29
REMARK                            x       y       z     vdW  Elec       q    Type
REMARK                         _______ _______ _______ _____ _____    ______ ____
ROOT
ATOM      1  C   UNL     1      -2.898  11.528  17.705  0.00  0.00    +0.000 C 
ATOM      2  C   UNL     1      -3.387  12.024  19.048  0.00  0.00    +0.000 A 
ATOM      3  C   UNL     1      -2.518  12.481  20.043  0.00  0.00    +0.000 A 
ATOM      4  C   UNL     1      -3.047  12.829  21.296  0.00  0.00    +0.000 A 
ATOM      5  C   UNL     1      -4.430  12.834  21.602  0.00  0.00    +0.000 A 
ATOM      6  C   UNL     1      -5.357  12.512  20.579  0.00  0.00    +0.000 A 
ATOM      7  C   UNL     1      -4.790  12.096  19.323  0.00  0.00    +0.000 A 
ATOM      8  C   UNL     1      -6.880  12.576  20.872  0.00  0.00    +0.000 C 
ATOM      9  C   UNL     1      -7.687  13.366  19.813  0.00  0.00    +0.000 C 
ATOM     10  C   UNL     1      -7.448  11.144  21.027  0.00  0.00    +0.000 C 
ATOM     11  C   UNL     1      -7.203  13.335  22.194  0.00  0.00    +0.000 C 
ATOM     12  C   UNL     1      -6.300  12.937  23.340  0.00  0.00    +0.000 C 
ATOM     13  C   UNL     1      -4.826  13.244  23.033  0.00  0.00    +0.000 C 
ATOM     14  C   UNL     1      -4.563  14.758  23.215  0.00  0.00    +0.000 C 
ATOM     15  C   UNL     1      -4.004  12.476  24.099  0.00  0.00    +0.000 C 
ENDROOT
BRANCH   7  16
ATOM     16  N   UNL     1      -5.644  11.765  18.186  0.00  0.00    +0.000 N 
ATOM     17  O   UNL     1      -5.802  12.651  17.334  0.00  0.00    +0.000 OA
ATOM     18  O   UNL     1      -6.085  10.613  18.111  0.00  0.00    +0.000 OA
ENDBRANCH   7  16
BRANCH   3  19
ATOM     19  C   UNL     1      -1.029  12.585  19.869  0.00  0.00    +0.000 C 
ATOM     20  O   UNL     1      -0.503  13.646  19.555  0.00  0.00    +0.000 OA
BRANCH  19  21
ATOM     21  C   UNL     1      -0.159  11.374  19.967  0.00  0.00    +0.000 A 
ATOM     22  C   UNL     1      -0.195  10.516  21.073  0.00  0.00    +0.000 A 
ATOM     23  C   UNL     1       0.515   9.312  21.041  0.00  0.00    +0.000 A 
ATOM     24  C   UNL     1       1.289   8.966  19.922  0.00  0.00    +0.000 A 
ATOM     25  C   UNL     1       1.376   9.854  18.843  0.00  0.00    +0.000 A 
ATOM     26  C   UNL     1       0.663  11.059  18.877  0.00  0.00    +0.000 A 
BRANCH  24  27
ATOM     27  C   UNL     1       1.905   7.613  19.897  0.00  0.00    +0.000 C 
ATOM     28  O   UNL     1       2.396   7.141  18.883  0.00  0.00    +0.000 OA
BRANCH  27  29
ATOM     29  O   UNL     1       1.851   6.945  21.066  0.00  0.00    +0.000 OA
ATOM     30  H   UNL     1       2.541   6.273  21.200  0.00  0.00    +0.000 HD
ENDBRANCH  27  29
ENDBRANCH  24  27
ENDBRANCH  19  21
ENDBRANCH   3  19
TORSDOF 5
ENDMDL
MODEL 5
REMARK VINA RESULT:      -7.3      1.332      1.725
REMARK  Name = 
REMARK  10 active torsions:
REMARK  status: ('A' for Active; 'I' for Inactive)
REMARK    1  A    between atoms: C_1  and  C_2
REMARK    2  A    between atoms: C_3  and  C_4
REMARK    3  A    between atoms: C_4  and  C_6
REMARK    4  A    between atoms: C_9  and  C_10
REMARK    5  A    between atoms: C_10  and  O_12
REMARK    6  A    between atoms: C_18  and  N_19
REMARK    7  A    between atoms: C_22  and  C_23
REMARK    8  A    between atoms: C_22  and  C_24
REMARK    9  A    between atoms: C_27  and  C_28
REMARK   10  A    between atoms: C_27  and  C_29
REMARK                            x       y       z     vdW  Elec       q    Type
REMARK                         _______ _______ _______ _____ _____    ______ ____
ROOT
ATOM      1  C   UNL     1      -3.334  11.337  17.425  0.00  0.00    +0.000 C 
ATOM      2  C   UNL     1      -3.640  11.881  18.803  0.00  0.00    +0.000 A 
ATOM      3  C   UNL     1      -2.638  12.249  19.706  0.00  0.00    +0.000 A 
ATOM      4  C   UNL     1      -3.006  12.649  21.000  0.00  0.00    +0.000 A 
ATOM      5  C   UNL     1      -4.345  12.793  21.437  0.00  0.00    +0.000 A 
ATOM      6  C   UNL     1      -5.395  12.565  20.511  0.00  0.00    +0.000 A 
ATOM      7  C   UNL     1      -4.996  12.093  19.211  0.00  0.00    +0.000 A 
ATOM      8  C   UNL     1      -6.868  12.781  20.948  0.00  0.00    +0.000 C 
ATOM      9  C   UNL     1      -7.690  13.648  19.963  0.00  0.00    +0.000 C 
ATOM     10  C   UNL     1      -7.559  11.414  21.171  0.00  0.00    +0.000 C 
ATOM     11  C   UNL     1      -6.985  13.570  22.287  0.00  0.00    +0.000 C 
ATOM     12  C   UNL     1      -6.020  13.084  23.345  0.00  0.00    +0.000 C 
ATOM     13  C   UNL     1      -4.559  13.242  22.895  0.00  0.00    +0.000 C 
ATOM     14  C   UNL     1      -4.130  14.722  23.036  0.00  0.00    +0.000 C 
ATOM     15  C   UNL     1      -3.719  12.396  23.885  0.00  0.00    +0.000 C 
ENDROOT
BRANCH   7  16
ATOM     16  N   UNL     1      -5.984  11.848  18.164  0.00  0.00    +0.000 N 
ATOM     17  O   UNL     1      -6.570  10.757  18.200  0.00  0.00    +0.000 OA
ATOM     18  O   UNL     1      -6.222  12.764  17.369  0.00  0.00    +0.000 OA
ENDBRANCH   7  16
BRANCH   3  19
ATOM     19  C   UNL     1      -1.169  12.203  19.389  0.00  0.00    +0.000 C 
ATOM     20  O   UNL     1      -0.571  13.209  19.027  0.00  0.00    +0.000 OA
BRANCH  19  21
ATOM     21  C   UNL     1      -0.423  10.909  19.402  0.00  0.00    +0.000 A 
ATOM     22  C   UNL     1       0.176  10.380  18.252  0.00  0.00    +0.000 A 
ATOM     23  C   UNL     1       1.001   9.256  18.353  0.00  0.00    +0.000 A 
ATOM     24  C   UNL     1       1.214   8.632  19.592  0.00  0.00    +0.000 A 
ATOM     25  C   UNL     1       0.564   9.123  20.731  0.00  0.00    +0.000 A 
ATOM     26  C   UNL     1      -0.261  10.249  20.628  0.00  0.00    +0.000 A 
BRANCH  24  27
ATOM     27  C   UNL     1       2.208   7.528  19.651  0.00  0.00    +0.000 C 
ATOM     28  O   UNL     1       2.944   7.265  18.713  0.00  0.00    +0.000 OA
BRANCH  27  29
ATOM     29  O   UNL     1       2.208   6.829  20.803  0.00  0.00    +0.000 OA
ATOM     30  H   UNL     1       1.622   6.053  20.824  0.00  0.00    +0.000 HD
ENDBRANCH  27  29
ENDBRANCH  24  27
ENDBRANCH  19  21
ENDBRANCH   3  19
TORSDOF 5
ENDMDL
MODEL 6
REMARK VINA RESULT:      -7.2      1.997      3.465
REMARK  Name = 
REMARK  10 active torsions:
REMARK  status: ('A' for Active; 'I' for Inactive)
REMARK    1  A    between atoms: C_1  and  C_2
REMARK    2  A    between atoms: C_3  and  C_4
REMARK    3  A    between atoms: C_4  and  C_6
REMARK    4  A    between atoms: C_9  and  C_10
REMARK    5  A    between atoms: C_10  and  O_12
REMARK    6  A    between atoms: C_18  and  N_19
REMARK    7  A    between atoms: C_22  and  C_23
REMARK    8  A    between atoms: C_22  and  C_24
REMARK    9  A    between atoms: C_27  and  C_28
REMARK   10  A    between atoms: C_27  and  C_29
REMARK                            x       y       z     vdW  Elec       q    Type
REMARK                         _______ _______ _______ _____ _____    ______ ____
ROOT
ATOM      1  C   UNL     1      -0.881  12.985  21.933  0.00  0.00    +0.000 C 
ATOM      2  C   UNL     1      -1.600  12.418  20.729  0.00  0.00    +0.000 A 
ATOM      3  C   UNL     1      -0.938  11.711  19.721  0.00  0.00    +0.000 A 
ATOM      4  C   UNL     1      -1.662  11.305  18.589  0.00  0.00    +0.000 A 
ATOM      5  C   UNL     1      -3.058  11.487  18.432  0.00  0.00    +0.000 A 
ATOM      6  C   UNL     1      -3.795  12.075  19.491  0.00  0.00    +0.000 A 
ATOM      7  C   UNL     1      -3.022  12.541  20.613  0.00  0.00    +0.000 A 
ATOM      8  C   UNL     1      -5.335  12.223  19.369  0.00  0.00    +0.000 C 
ATOM      9  C   UNL     1      -6.112  11.706  20.605  0.00  0.00    +0.000 C 
ATOM     10  C   UNL     1      -5.702  13.699  19.079  0.00  0.00    +0.000 C 
ATOM     11  C   UNL     1      -5.927  11.374  18.205  0.00  0.00    +0.000 C 
ATOM     12  C   UNL     1      -5.124  11.481  16.927  0.00  0.00    +0.000 C 
ATOM     13  C   UNL     1      -3.685  10.978  17.119  0.00  0.00    +0.000 C 
ATOM     14  C   UNL     1      -3.671   9.431  17.121  0.00  0.00    +0.000 C 
ATOM     15  C   UNL     1      -2.897  11.471  15.879  0.00  0.00    +0.000 C 
ENDROOT
BRANCH   7  16
ATOM     16  N   UNL     1      -3.671  13.139  21.776  0.00  0.00    +0.000 N 
ATOM     17  O   UNL     1      -3.955  12.373  22.708  0.00  0.00    +0.000 OA
ATOM     18  O   UNL     1      -3.822  14.366  21.786  0.00  0.00    +0.000 OA
ENDBRANCH   7  16
BRANCH   3  19
ATOM     19  C   UNL     1       0.530  11.389  19.752  0.00  0.00    +0.000 C 
ATOM     20  O   UNL     1       1.370  12.281  19.803  0.00  0.00    +0.000 OA
BRANCH  19  21
ATOM     21  C   UNL     1       1.010   9.982  19.613  0.00  0.00    +0.000 A 
ATOM     22  C   UNL     1       1.563   9.495  18.422  0.00  0.00    +0.000 A 
ATOM     23  C   UNL     1       2.146   8.225  18.395  0.00  0.00    +0.000 A 
ATOM     24  C   UNL     1       2.159   7.418  19.543  0.00  0.00    +0.000 A 
ATOM     25  C   UNL     1       1.548   7.879  20.716  0.00  0.00    +0.000 A 
ATOM     26  C   UNL     1       0.966   9.152  20.741  0.00  0.00    +0.000 A 
BRANCH  24  27
ATOM     27  C   UNL     1       2.915   6.139  19.484  0.00  0.00    +0.000 C 
ATOM     28  O   UNL     1       3.515   5.784  18.481  0.00  0.00    +0.000 OA
BRANCH  27  29
ATOM     29  O   UNL     1       2.858   5.396  20.607  0.00  0.00    +0.000 OA
ATOM     30  H   UNL     1       2.137   5.617  21.222  0.00  0.00    +0.000 HD
ENDBRANCH  27  29
ENDBRANCH  24  27
ENDBRANCH  19  21
ENDBRANCH   3  19
TORSDOF 5
ENDMDL
MODEL 7
REMARK VINA RESULT:      -6.9      3.453      5.484
REMARK  Name = 
REMARK  10 active torsions:
REMARK  status: ('A' for Active; 'I' for Inactive)
REMARK    1  A    between atoms: C_1  and  C_2
REMARK    2  A    between atoms: C_3  and  C_4
REMARK    3  A    between atoms: C_4  and  C_6
REMARK    4  A    between atoms: C_9  and  C_10
REMARK    5  A    between atoms: C_10  and  O_12
REMARK    6  A    between atoms: C_18  and  N_19
REMARK    7  A    between atoms: C_22  and  C_23
REMARK    8  A    between atoms: C_22  and  C_24
REMARK    9  A    between atoms: C_27  and  C_28
REMARK   10  A    between atoms: C_27  and  C_29
REMARK                            x       y       z     vdW  Elec       q    Type
REMARK                         _______ _______ _______ _____ _____    ______ ____
ROOT
ATOM      1  C   UNL     1      -2.022  13.678  22.544  0.00  0.00    +0.000 C 
ATOM      2  C   UNL     1      -2.398  12.943  21.276  0.00  0.00    +0.000 A 
ATOM      3  C   UNL     1      -1.453  12.298  20.473  0.00  0.00    +0.000 A 
ATOM      4  C   UNL     1      -1.871  11.725  19.262  0.00  0.00    +0.000 A 
ATOM      5  C   UNL     1      -3.219  11.677  18.829  0.00  0.00    +0.000 A 
ATOM      6  C   UNL     1      -4.228  12.197  19.677  0.00  0.00    +0.000 A 
ATOM      7  C   UNL     1      -3.770  12.836  20.883  0.00  0.00    +0.000 A 
ATOM      8  C   UNL     1      -5.718  12.096  19.254  0.00  0.00    +0.000 C 
ATOM      9  C   UNL     1      -6.644  11.528  20.358  0.00  0.00    +0.000 C 
ATOM     10  C   UNL     1      -6.227  13.479  18.780  0.00  0.00    +0.000 C 
ATOM     11  C   UNL     1      -5.937  11.105  18.072  0.00  0.00    +0.000 C 
ATOM     12  C   UNL     1      -4.920  11.269  16.965  0.00  0.00    +0.000 C 
ATOM     13  C   UNL     1      -3.491  11.009  17.467  0.00  0.00    +0.000 C 
ATOM     14  C   UNL     1      -3.256   9.485  17.597  0.00  0.00    +0.000 C 
ATOM     15  C   UNL     1      -2.550  11.554  16.362  0.00  0.00    +0.000 C 
ENDROOT
BRANCH   7  16
ATOM     16  N   UNL     1      -4.717  13.385  21.849  0.00  0.00    +0.000 N 
ATOM     17  O   UNL     1      -5.064  12.635  22.773  0.00  0.00    +0.000 OA
ATOM     18  O   UNL     1      -5.045  14.570  21.727  0.00  0.00    +0.000 OA
ENDBRANCH   7  16
BRANCH   3  19
ATOM     19  C   UNL     1       0.010  12.212  20.808  0.00  0.00    +0.000 C 
ATOM     20  O   UNL     1       0.408  11.488  21.713  0.00  0.00    +0.000 OA
BRANCH  19  21
ATOM     21  C   UNL     1       1.006  13.087  20.121  0.00  0.00    +0.000 A 
ATOM     22  C   UNL     1       1.798  12.629  19.061  0.00  0.00    +0.000 A 
ATOM     23  C   UNL     1       2.592  13.531  18.346  0.00  0.00    +0.000 A 
ATOM     24  C   UNL     1       2.627  14.889  18.698  0.00  0.00    +0.000 A 
ATOM     25  C   UNL     1       1.885  15.335  19.799  0.00  0.00    +0.000 A 
ATOM     26  C   UNL     1       1.090  14.430  20.512  0.00  0.00    +0.000 A 
BRANCH  24  27
ATOM     27  C   UNL     1       3.383  15.815  17.813  0.00  0.00    +0.000 C 
ATOM     28  O   UNL     1       3.079  16.992  17.694  0.00  0.00    +0.000 OA
BRANCH  27  29
ATOM     29  O   UNL     1       4.401  15.247  17.138  0.00  0.00    +0.000 OA
ATOM     30  H   UNL     1       5.181  15.013  17.670  0.00  0.00    +0.000 HD
ENDBRANCH  27  29
ENDBRANCH  24  27
ENDBRANCH  19  21
ENDBRANCH   3  19
TORSDOF 5
ENDMDL
MODEL 8
REMARK VINA RESULT:      -6.9      2.867      4.602
REMARK  Name = 
REMARK  10 active torsions:
REMARK  status: ('A' for Active; 'I' for Inactive)
REMARK    1  A    between atoms: C_1  and  C_2
REMARK    2  A    between atoms: C_3  and  C_4
REMARK    3  A    between atoms: C_4  and  C_6
REMARK    4  A    between atoms: C_9  and  C_10
REMARK    5  A    between atoms: C_10  and  O_12
REMARK    6  A    between atoms: C_18  and  N_19
REMARK    7  A    between atoms: C_22  and  C_23
REMARK    8  A    between atoms: C_22  and  C_24
REMARK    9  A    between atoms: C_27  and  C_28
REMARK   10  A    between atoms: C_27  and  C_29
REMARK                            x       y       z     vdW  Elec       q    Type
REMARK                         _______ _______ _______ _____ _____    ______ ____
ROOT
ATOM      1  C   UNL     1      -0.558  10.392  18.218  0.00  0.00    +0.000 C 
ATOM      2  C   UNL     1      -1.643  11.198  18.898  0.00  0.00    +0.000 A 
ATOM      3  C   UNL     1      -1.394  12.006  20.011  0.00  0.00    +0.000 A 
ATOM      4  C   UNL     1      -2.476  12.642  20.642  0.00  0.00    +0.000 A 
ATOM      5  C   UNL     1      -3.811  12.591  20.172  0.00  0.00    +0.000 A 
ATOM      6  C   UNL     1      -4.087  11.897  18.968  0.00  0.00    +0.000 A 
ATOM      7  C   UNL     1      -2.975  11.201  18.374  0.00  0.00    +0.000 A 
ATOM      8  C   UNL     1      -5.530  11.885  18.399  0.00  0.00    +0.000 C 
ATOM      9  C   UNL     1      -5.613  12.252  16.897  0.00  0.00    +0.000 C 
ATOM     10  C   UNL     1      -6.187  10.506  18.654  0.00  0.00    +0.000 C 
ATOM     11  C   UNL     1      -6.447  12.952  19.069  0.00  0.00    +0.000 C 
ATOM     12  C   UNL     1      -6.303  12.993  20.574  0.00  0.00    +0.000 C 
ATOM     13  C   UNL     1      -4.869  13.349  20.997  0.00  0.00    +0.000 C 
ATOM     14  C   UNL     1      -4.643  14.871  20.830  0.00  0.00    +0.000 C 
ATOM     15  C   UNL     1      -4.776  13.006  22.505  0.00  0.00    +0.000 C 
ENDROOT
BRANCH   7  16
ATOM     16  N   UNL     1      -3.129  10.473  17.118  0.00  0.00    +0.000 N 
ATOM     17  O   UNL     1      -2.865  11.097  16.080  0.00  0.00    +0.000 OA
ATOM     18  O   UNL     1      -3.434   9.277  17.177  0.00  0.00    +0.000 OA
ENDBRANCH   7  16
BRANCH   3  19
ATOM     19  C   UNL     1      -0.030  12.209  20.609  0.00  0.00    +0.000 C 
ATOM     20  O   UNL     1       0.272  11.693  21.679  0.00  0.00    +0.000 OA
BRANCH  19  21
ATOM     21  C   UNL     1       0.956  13.131  19.972  0.00  0.00    +0.000 A 
ATOM     22  C   UNL     1       2.025  12.664  19.198  0.00  0.00    +0.000 A 
ATOM     23  C   UNL     1       2.820  13.570  18.490  0.00  0.00    +0.000 A 
ATOM     24  C   UNL     1       2.576  14.950  18.568  0.00  0.00    +0.000 A 
ATOM     25  C   UNL     1       1.547  15.422  19.393  0.00  0.00    +0.000 A 
ATOM     26  C   UNL     1       0.752  14.512  20.101  0.00  0.00    +0.000 A 
BRANCH  24  27
ATOM     27  C   UNL     1       3.368  15.846  17.685  0.00  0.00    +0.000 C 
ATOM     28  O   UNL     1       3.067  17.016  17.507  0.00  0.00    +0.000 OA
BRANCH  27  29
ATOM     29  O   UNL     1       4.418  15.257  17.078  0.00  0.00    +0.000 OA
ATOM     30  H   UNL     1       4.534  15.471  16.136  0.00  0.00    +0.000 HD
ENDBRANCH  27  29
ENDBRANCH  24  27
ENDBRANCH  19  21
ENDBRANCH   3  19
TORSDOF 5
ENDMDL
MODEL 9
REMARK VINA RESULT:      -6.9      9.526     11.674
REMARK  Name = 
REMARK  10 active torsions:
REMARK  status: ('A' for Active; 'I' for Inactive)
REMARK    1  A    between atoms: C_1  and  C_2
REMARK    2  A    between atoms: C_3  and  C_4
REMARK    3  A    between atoms: C_4  and  C_6
REMARK    4  A    between atoms: C_9  and  C_10
REMARK    5  A    between atoms: C_10  and  O_12
REMARK    6  A    between atoms: C_18  and  N_19
REMARK    7  A    between atoms: C_22  and  C_23
REMARK    8  A    between atoms: C_22  and  C_24
REMARK    9  A    between atoms: C_27  and  C_28
REMARK   10  A    between atoms: C_27  and  C_29
REMARK                            x       y       z     vdW  Elec       q    Type
REMARK                         _______ _______ _______ _____ _____    ______ ____
ROOT
ATOM      1  C   UNL     1       7.050  16.208  22.950  0.00  0.00    +0.000 C 
ATOM      2  C   UNL     1       7.760  15.131  22.160  0.00  0.00    +0.000 A 
ATOM      3  C   UNL     1       8.447  14.079  22.773  0.00  0.00    +0.000 A 
ATOM      4  C   UNL     1       9.163  13.178  21.968  0.00  0.00    +0.000 A 
ATOM      5  C   UNL     1       9.168  13.208  20.552  0.00  0.00    +0.000 A 
ATOM      6  C   UNL     1       8.372  14.173  19.886  0.00  0.00    +0.000 A 
ATOM      7  C   UNL     1       7.699  15.126  20.730  0.00  0.00    +0.000 A 
ATOM      8  C   UNL     1       8.309  14.182  18.335  0.00  0.00    +0.000 C 
ATOM      9  C   UNL     1       6.869  14.238  17.769  0.00  0.00    +0.000 C 
ATOM     10  C   UNL     1       9.154  15.355  17.779  0.00  0.00    +0.000 C 
ATOM     11  C   UNL     1       8.881  12.877  17.706  0.00  0.00    +0.000 C 
ATOM     12  C   UNL     1      10.183  12.437  18.337  0.00  0.00    +0.000 C 
ATOM     13  C   UNL     1      10.014  12.139  19.835  0.00  0.00    +0.000 C 
ATOM     14  C   UNL     1       9.341  10.758  20.016  0.00  0.00    +0.000 C 
ATOM     15  C   UNL     1      11.450  12.059  20.413  0.00  0.00    +0.000 C 
ENDROOT
BRANCH   7  16
ATOM     16  N   UNL     1       6.829  16.151  20.161  0.00  0.00    +0.000 N 
ATOM     17  O   UNL     1       5.617  15.894  20.129  0.00  0.00    +0.000 OA
ATOM     18  O   UNL     1       7.343  17.223  19.825  0.00  0.00    +0.000 OA
ENDBRANCH   7  16
BRANCH   3  19
ATOM     19  C   UNL     1       8.504  13.871  24.260  0.00  0.00    +0.000 C 
ATOM     20  O   UNL     1       9.364  14.419  24.941  0.00  0.00    +0.000 OA
BRANCH  19  21
ATOM     21  C   UNL     1       7.585  12.908  24.935  0.00  0.00    +0.000 A 
ATOM     22  C   UNL     1       7.495  12.812  26.329  0.00  0.00    +0.000 A 
ATOM     23  C   UNL     1       6.503  12.015  26.908  0.00  0.00    +0.000 A 
ATOM     24  C   UNL     1       5.611  11.285  26.107  0.00  0.00    +0.000 A 
ATOM     25  C   UNL     1       5.742  11.331  24.713  0.00  0.00    +0.000 A 
ATOM     26  C   UNL     1       6.735  12.130  24.135  0.00  0.00    +0.000 A 
BRANCH  24  27
ATOM     27  C   UNL     1       4.496  10.570  26.783  0.00  0.00    +0.000 C 
ATOM     28  O   UNL     1       3.765  11.121  27.591  0.00  0.00    +0.000 OA
BRANCH  27  29
ATOM     29  O   UNL     1       4.381   9.267  26.457  0.00  0.00    +0.000 OA
ATOM     30  H   UNL     1       4.518   8.637  27.186  0.00  0.00    +0.000 HD
ENDBRANCH  27  29
ENDBRANCH  24  27
ENDBRANCH  19  21
ENDBRANCH   3  19
TORSDOF 5
ENDMDL
