MODEL 1
REMARK VINA RESULT:      -7.2      0.000      0.000
REMARK  Name = 
REMARK  10 active torsions:
REMARK  status: ('A' for Active; 'I' for Inactive)
REMARK    1  A    between atoms: C_1  and  O_2
REMARK    2  A    between atoms: O_2  and  C_3
REMARK    3  A    between atoms: C_6  and  C_7
REMARK    4  A    between atoms: C_13  and  N_14
REMARK    5  A    between atoms: N_14  and  C_15
REMARK    6  A    between atoms: C_15  and  C_16
REMARK    7  A    between atoms: C_16  and  C_17
REMARK    8  A    between atoms: C_17  and  N_18
REMARK    9  A    between atoms: N_18  and  C_19
REMARK   10  A    between atoms: N_18  and  C_20
REMARK                            x       y       z     vdW  Elec       q    Type
REMARK                         _______ _______ _______ _____ _____    ______ ____
ROOT
ATOM      1  C   UNL     1       5.782   4.417  17.175  0.00  0.00    +0.000 C 
ATOM      2  C   UNL     1       6.531   4.599  18.293  0.00  0.00    +0.000 C 
ATOM      3  N   UNL     1       5.845   4.363  19.490  0.00  0.00    +0.000 N 
ATOM      4  N   UNL     1       4.566   4.072  19.126  0.00  0.00    +0.000 N 
ATOM      5  C   UNL     1       4.419   4.343  17.790  0.00  0.00    +0.000 C 
ATOM      6  N   UNL     1       3.332   4.652  17.162  0.00  0.00    +0.000 NA
ATOM      7  C   UNL     1       2.175   4.881  18.042  0.00  0.00    +0.000 C 
ATOM      8  C   UNL     1       2.225   4.269  19.448  0.00  0.00    +0.000 A 
ATOM      9  C   UNL     1       1.072   3.999  20.198  0.00  0.00    +0.000 A 
ATOM     10  C   UNL     1       1.119   3.084  21.255  0.00  0.00    +0.000 A 
ATOM     11  C   UNL     1       2.321   2.457  21.596  0.00  0.00    +0.000 A 
ATOM     12  C   UNL     1       3.500   2.833  20.950  0.00  0.00    +0.000 A 
ATOM     13  C   UNL     1       3.454   3.752  19.899  0.00  0.00    +0.000 A 
ATOM     14  H   UNL     1       5.891   5.189  20.095  0.00  0.00    +0.000 HD
ENDROOT
BRANCH   1  18
ATOM     15  C   UNL     1       6.746   4.170  13.008  0.00  0.00    +0.000 A 
ATOM     16  C   UNL     1       7.565   4.890  13.877  0.00  0.00    +0.000 A 
ATOM     17  C   UNL     1       7.261   4.987  15.242  0.00  0.00    +0.000 A 
ATOM     18  C   UNL     1       6.108   4.389  15.751  0.00  0.00    +0.000 A 
ATOM     19  C   UNL     1       5.289   3.676  14.870  0.00  0.00    +0.000 A 
ATOM     20  C   UNL     1       5.586   3.570  13.493  0.00  0.00    +0.000 A 
BRANCH  15  22
ATOM     21  C   UNL     1       7.296   2.845  11.126  0.00  0.00    +0.000 C 
ATOM     22  O   UNL     1       7.157   4.144  11.704  0.00  0.00    +0.000 OA
ENDBRANCH  15  22
ENDBRANCH   1  18
BRANCH   7  23
ATOM     23  N   UNL     1       1.703   6.258  17.919  0.00  0.00    +0.000 NA
ATOM     24  H   UNL     1       1.545   6.405  16.918  0.00  0.00    +0.000 HD
BRANCH  23  25
ATOM     25  C   UNL     1       2.558   7.368  18.358  0.00  0.00    +0.000 C 
BRANCH  25  26
ATOM     26  C   UNL     1       2.353   8.807  17.837  0.00  0.00    +0.000 C 
BRANCH  26  27
ATOM     27  C   UNL     1       0.993   9.485  18.072  0.00  0.00    +0.000 C 
BRANCH  27  28
ATOM     28  N   UNL     1       0.896  10.382  19.241  0.00  0.00    +0.000 NA
ATOM     29  C   UNL     1       1.318  11.748  18.931  0.00  0.00    +0.000 C 
ATOM     30  C   UNL     1      -0.493  10.408  19.721  0.00  0.00    +0.000 C 
ENDBRANCH  27  28
ENDBRANCH  26  27
ENDBRANCH  25  26
ENDBRANCH  23  25
ENDBRANCH   7  23
TORSDOF 7
ENDMDL
MODEL 2
REMARK VINA RESULT:      -7.2      1.171      1.239
REMARK  Name = 
REMARK  10 active torsions:
REMARK  status: ('A' for Active; 'I' for Inactive)
REMARK    1  A    between atoms: C_1  and  O_2
REMARK    2  A    between atoms: O_2  and  C_3
REMARK    3  A    between atoms: C_6  and  C_7
REMARK    4  A    between atoms: C_13  and  N_14
REMARK    5  A    between atoms: N_14  and  C_15
REMARK    6  A    between atoms: C_15  and  C_16
REMARK    7  A    between atoms: C_16  and  C_17
REMARK    8  A    between atoms: C_17  and  N_18
REMARK    9  A    between atoms: N_18  and  C_19
REMARK   10  A    between atoms: N_18  and  C_20
REMARK                            x       y       z     vdW  Elec       q    Type
REMARK                         _______ _______ _______ _____ _____    ______ ____
ROOT
ATOM      1  C   UNL     1       5.818   4.434  17.285  0.00  0.00    +0.000 C 
ATOM      2  C   UNL     1       6.569   4.528  18.413  0.00  0.00    +0.000 C 
ATOM      3  N   UNL     1       5.862   4.288  19.596  0.00  0.00    +0.000 N 
ATOM      4  N   UNL     1       4.570   4.089  19.216  0.00  0.00    +0.000 N 
ATOM      5  C   UNL     1       4.449   4.419  17.891  0.00  0.00    +0.000 C 
ATOM      6  N   UNL     1       3.387   4.816  17.270  0.00  0.00    +0.000 NA
ATOM      7  C   UNL     1       2.240   5.081  18.153  0.00  0.00    +0.000 C 
ATOM      8  C   UNL     1       2.243   4.414  19.535  0.00  0.00    +0.000 A 
ATOM      9  C   UNL     1       1.071   4.185  20.269  0.00  0.00    +0.000 A 
ATOM     10  C   UNL     1       1.056   3.230  21.289  0.00  0.00    +0.000 A 
ATOM     11  C   UNL     1       2.215   2.519  21.612  0.00  0.00    +0.000 A 
ATOM     12  C   UNL     1       3.420   2.848  20.986  0.00  0.00    +0.000 A 
ATOM     13  C   UNL     1       3.436   3.807  19.971  0.00  0.00    +0.000 A 
ATOM     14  H   UNL     1       5.953   5.087  20.233  0.00  0.00    +0.000 HD
ENDROOT
BRANCH   1  18
ATOM     15  C   UNL     1       6.823   4.290  13.123  0.00  0.00    +0.000 A 
ATOM     16  C   UNL     1       7.545   5.108  13.992  0.00  0.00    +0.000 A 
ATOM     17  C   UNL     1       7.226   5.171  15.355  0.00  0.00    +0.000 A 
ATOM     18  C   UNL     1       6.151   4.441  15.862  0.00  0.00    +0.000 A 
ATOM     19  C   UNL     1       5.429   3.631  14.981  0.00  0.00    +0.000 A 
ATOM     20  C   UNL     1       5.742   3.557  13.606  0.00  0.00    +0.000 A 
BRANCH  15  22
ATOM     21  C   UNL     1       7.245   3.046  11.154  0.00  0.00    +0.000 C 
ATOM     22  O   UNL     1       7.241   4.310  11.821  0.00  0.00    +0.000 OA
ENDBRANCH  15  22
ENDBRANCH   1  18
BRANCH   7  23
ATOM     23  N   UNL     1       1.852   6.487  18.081  0.00  0.00    +0.000 NA
ATOM     24  H   UNL     1       2.128   6.800  17.146  0.00  0.00    +0.000 HD
BRANCH  23  25
ATOM     25  C   UNL     1       2.433   7.457  19.017  0.00  0.00    +0.000 C 
BRANCH  25  26
ATOM     26  C   UNL     1       1.577   8.550  19.691  0.00  0.00    +0.000 C 
BRANCH  26  27
ATOM     27  C   UNL     1       1.227   8.394  21.181  0.00  0.00    +0.000 C 
BRANCH  27  28
ATOM     28  N   UNL     1       1.135   9.638  21.970  0.00  0.00    +0.000 NA
ATOM     29  C   UNL     1       0.726  10.784  21.158  0.00  0.00    +0.000 C 
ATOM     30  C   UNL     1       0.165   9.453  23.059  0.00  0.00    +0.000 C 
ENDBRANCH  27  28
ENDBRANCH  26  27
ENDBRANCH  25  26
ENDBRANCH  23  25
ENDBRANCH   7  23
TORSDOF 7
ENDMDL
MODEL 3
REMARK VINA RESULT:      -7.1      0.931      1.420
REMARK  Name = 
REMARK  10 active torsions:
REMARK  status: ('A' for Active; 'I' for Inactive)
REMARK    1  A    between atoms: C_1  and  O_2
REMARK    2  A    between atoms: O_2  and  C_3
REMARK    3  A    between atoms: C_6  and  C_7
REMARK    4  A    between atoms: C_13  and  N_14
REMARK    5  A    between atoms: N_14  and  C_15
REMARK    6  A    between atoms: C_15  and  C_16
REMARK    7  A    between atoms: C_16  and  C_17
REMARK    8  A    between atoms: C_17  and  N_18
REMARK    9  A    between atoms: N_18  and  C_19
REMARK   10  A    between atoms: N_18  and  C_20
REMARK                            x       y       z     vdW  Elec       q    Type
REMARK                         _______ _______ _______ _____ _____    ______ ____
ROOT
ATOM      1  C   UNL     1       5.906   4.377  17.223  0.00  0.00    +0.000 C 
ATOM      2  C   UNL     1       6.624   4.553  18.362  0.00  0.00    +0.000 C 
ATOM      3  N   UNL     1       5.895   4.347  19.539  0.00  0.00    +0.000 N 
ATOM      4  N   UNL     1       4.621   4.084  19.139  0.00  0.00    +0.000 N 
ATOM      5  C   UNL     1       4.522   4.344  17.796  0.00  0.00    +0.000 C 
ATOM      6  N   UNL     1       3.464   4.673  17.131  0.00  0.00    +0.000 NA
ATOM      7  C   UNL     1       2.287   4.940  17.972  0.00  0.00    +0.000 C 
ATOM      8  C   UNL     1       2.277   4.342  19.385  0.00  0.00    +0.000 A 
ATOM      9  C   UNL     1       1.095   4.109  20.101  0.00  0.00    +0.000 A 
ATOM     10  C   UNL     1       1.087   3.205  21.168  0.00  0.00    +0.000 A 
ATOM     11  C   UNL     1       2.261   2.552  21.553  0.00  0.00    +0.000 A 
ATOM     12  C   UNL     1       3.469   2.892  20.941  0.00  0.00    +0.000 A 
ATOM     13  C   UNL     1       3.478   3.800  19.880  0.00  0.00    +0.000 A 
ATOM     14  H   UNL     1       5.943   5.179  20.137  0.00  0.00    +0.000 HD
ENDROOT
BRANCH   1  18
ATOM     15  C   UNL     1       6.940   4.386  13.066  0.00  0.00    +0.000 A 
ATOM     16  C   UNL     1       5.995   3.482  13.553  0.00  0.00    +0.000 A 
ATOM     17  C   UNL     1       5.650   3.462  14.911  0.00  0.00    +0.000 A 
ATOM     18  C   UNL     1       6.275   4.326  15.810  0.00  0.00    +0.000 A 
ATOM     19  C   UNL     1       7.226   5.222  15.314  0.00  0.00    +0.000 A 
ATOM     20  C   UNL     1       7.581   5.253  13.947  0.00  0.00    +0.000 A 
BRANCH  15  22
ATOM     21  C   UNL     1       7.231   2.990  11.177  0.00  0.00    +0.000 C 
ATOM     22  O   UNL     1       7.180   4.310  11.722  0.00  0.00    +0.000 OA
ENDBRANCH  15  22
ENDBRANCH   1  18
BRANCH   7  23
ATOM     23  N   UNL     1       1.853   6.327  17.820  0.00  0.00    +0.000 NA
ATOM     24  H   UNL     1       2.039   6.567  16.843  0.00  0.00    +0.000 HD
BRANCH  23  25
ATOM     25  C   UNL     1       2.484   7.383  18.620  0.00  0.00    +0.000 C 
BRANCH  25  26
ATOM     26  C   UNL     1       1.820   7.943  19.896  0.00  0.00    +0.000 C 
BRANCH  26  27
ATOM     27  C   UNL     1       1.099   9.300  19.814  0.00  0.00    +0.000 C 
BRANCH  27  28
ATOM     28  N   UNL     1       0.926  10.033  21.083  0.00  0.00    +0.000 NA
ATOM     29  C   UNL     1      -0.449  10.493  21.278  0.00  0.00    +0.000 C 
ATOM     30  C   UNL     1       1.302   9.160  22.204  0.00  0.00    +0.000 C 
ENDBRANCH  27  28
ENDBRANCH  26  27
ENDBRANCH  25  26
ENDBRANCH  23  25
ENDBRANCH   7  23
TORSDOF 7
ENDMDL
MODEL 4
REMARK VINA RESULT:      -7.1      0.347      1.151
REMARK  Name = 
REMARK  10 active torsions:
REMARK  status: ('A' for Active; 'I' for Inactive)
REMARK    1  A    between atoms: C_1  and  O_2
REMARK    2  A    between atoms: O_2  and  C_3
REMARK    3  A    between atoms: C_6  and  C_7
REMARK    4  A    between atoms: C_13  and  N_14
REMARK    5  A    between atoms: N_14  and  C_15
REMARK    6  A    between atoms: C_15  and  C_16
REMARK    7  A    between atoms: C_16  and  C_17
REMARK    8  A    between atoms: C_17  and  N_18
REMARK    9  A    between atoms: N_18  and  C_19
REMARK   10  A    between atoms: N_18  and  C_20
REMARK                            x       y       z     vdW  Elec       q    Type
REMARK                         _______ _______ _______ _____ _____    ______ ____
ROOT
ATOM      1  C   UNL     1       5.877   4.376  17.261  0.00  0.00    +0.000 C 
ATOM      2  C   UNL     1       6.582   4.586  18.403  0.00  0.00    +0.000 C 
ATOM      3  N   UNL     1       5.853   4.372  19.578  0.00  0.00    +0.000 N 
ATOM      4  N   UNL     1       4.589   4.067  19.173  0.00  0.00    +0.000 N 
ATOM      5  C   UNL     1       4.492   4.308  17.826  0.00  0.00    +0.000 C 
ATOM      6  N   UNL     1       3.428   4.598  17.152  0.00  0.00    +0.000 NA
ATOM      7  C   UNL     1       2.238   4.840  17.982  0.00  0.00    +0.000 C 
ATOM      8  C   UNL     1       2.237   4.258  19.402  0.00  0.00    +0.000 A 
ATOM      9  C   UNL     1       1.058   3.999  20.114  0.00  0.00    +0.000 A 
ATOM     10  C   UNL     1       1.070   3.107  21.191  0.00  0.00    +0.000 A 
ATOM     11  C   UNL     1       2.260   2.494  21.591  0.00  0.00    +0.000 A 
ATOM     12  C   UNL     1       3.461   2.862  20.982  0.00  0.00    +0.000 A 
ATOM     13  C   UNL     1       3.451   3.758  19.910  0.00  0.00    +0.000 A 
ATOM     14  H   UNL     1       5.872   5.212  20.167  0.00  0.00    +0.000 HD
ENDROOT
BRANCH   1  18
ATOM     15  C   UNL     1       6.943   4.368  13.113  0.00  0.00    +0.000 A 
ATOM     16  C   UNL     1       5.987   3.474  13.594  0.00  0.00    +0.000 A 
ATOM     17  C   UNL     1       5.631   3.459  14.949  0.00  0.00    +0.000 A 
ATOM     18  C   UNL     1       6.257   4.319  15.852  0.00  0.00    +0.000 A 
ATOM     19  C   UNL     1       7.220   5.206  15.361  0.00  0.00    +0.000 A 
ATOM     20  C   UNL     1       7.585   5.232  13.997  0.00  0.00    +0.000 A 
BRANCH  15  22
ATOM     21  C   UNL     1       7.173   2.971  11.216  0.00  0.00    +0.000 C 
ATOM     22  O   UNL     1       7.193   4.288  11.771  0.00  0.00    +0.000 OA
ENDBRANCH  15  22
ENDBRANCH   1  18
BRANCH   7  23
ATOM     23  N   UNL     1       1.764   6.211  17.811  0.00  0.00    +0.000 NA
ATOM     24  H   UNL     1       1.758   6.375  16.801  0.00  0.00    +0.000 HD
BRANCH  23  25
ATOM     25  C   UNL     1       2.522   7.326  18.393  0.00  0.00    +0.000 C 
BRANCH  25  26
ATOM     26  C   UNL     1       1.819   8.562  18.991  0.00  0.00    +0.000 C 
BRANCH  26  27
ATOM     27  C   UNL     1       1.140   9.556  18.032  0.00  0.00    +0.000 C 
BRANCH  27  28
ATOM     28  N   UNL     1       0.347  10.635  18.653  0.00  0.00    +0.000 NA
ATOM     29  C   UNL     1      -0.394  10.176  19.828  0.00  0.00    +0.000 C 
ATOM     30  C   UNL     1       1.243  11.730  19.050  0.00  0.00    +0.000 C 
ENDBRANCH  27  28
ENDBRANCH  26  27
ENDBRANCH  25  26
ENDBRANCH  23  25
ENDBRANCH   7  23
TORSDOF 7
ENDMDL
MODEL 5
REMARK VINA RESULT:      -6.7      4.697      8.072
REMARK  Name = 
REMARK  10 active torsions:
REMARK  status: ('A' for Active; 'I' for Inactive)
REMARK    1  A    between atoms: C_1  and  O_2
REMARK    2  A    between atoms: O_2  and  C_3
REMARK    3  A    between atoms: C_6  and  C_7
REMARK    4  A    between atoms: C_13  and  N_14
REMARK    5  A    between atoms: N_14  and  C_15
REMARK    6  A    between atoms: C_15  and  C_16
REMARK    7  A    between atoms: C_16  and  C_17
REMARK    8  A    between atoms: C_17  and  N_18
REMARK    9  A    between atoms: N_18  and  C_19
REMARK   10  A    between atoms: N_18  and  C_20
REMARK                            x       y       z     vdW  Elec       q    Type
REMARK                         _______ _______ _______ _____ _____    ______ ____
ROOT
ATOM      1  C   UNL     1       1.931   9.025  18.583  0.00  0.00    +0.000 C 
ATOM      2  C   UNL     1       2.636   9.800  17.719  0.00  0.00    +0.000 C 
ATOM      3  N   UNL     1       2.296  11.157  17.753  0.00  0.00    +0.000 N 
ATOM      4  N   UNL     1       1.271  11.254  18.644  0.00  0.00    +0.000 N 
ATOM      5  C   UNL     1       0.850   9.990  18.966  0.00  0.00    +0.000 C 
ATOM      6  N   UNL     1      -0.321   9.627  19.373  0.00  0.00    +0.000 NA
ATOM      7  C   UNL     1      -1.331  10.695  19.323  0.00  0.00    +0.000 C 
ATOM      8  C   UNL     1      -0.827  12.145  19.300  0.00  0.00    +0.000 A 
ATOM      9  C   UNL     1      -1.614  13.228  19.714  0.00  0.00    +0.000 A 
ATOM     10  C   UNL     1      -1.011  14.437  20.074  0.00  0.00    +0.000 A 
ATOM     11  C   UNL     1       0.375  14.590  19.994  0.00  0.00    +0.000 A 
ATOM     12  C   UNL     1       1.149  13.567  19.441  0.00  0.00    +0.000 A 
ATOM     13  C   UNL     1       0.546  12.361  19.075  0.00  0.00    +0.000 A 
ATOM     14  H   UNL     1       2.021  11.479  16.819  0.00  0.00    +0.000 HD
ENDROOT
BRANCH   1  18
ATOM     15  C   UNL     1       2.169   4.895  19.693  0.00  0.00    +0.000 A 
ATOM     16  C   UNL     1       1.870   5.863  20.651  0.00  0.00    +0.000 A 
ATOM     17  C   UNL     1       1.794   7.220  20.306  0.00  0.00    +0.000 A 
ATOM     18  C   UNL     1       2.053   7.630  18.998  0.00  0.00    +0.000 A 
ATOM     19  C   UNL     1       2.360   6.652  18.047  0.00  0.00    +0.000 A 
ATOM     20  C   UNL     1       2.437   5.282  18.382  0.00  0.00    +0.000 A 
BRANCH  15  22
ATOM     21  C   UNL     1       2.115   3.460  21.574  0.00  0.00    +0.000 C 
ATOM     22  O   UNL     1       2.203   3.609  20.155  0.00  0.00    +0.000 OA
ENDBRANCH  15  22
ENDBRANCH   1  18
BRANCH   7  23
ATOM     23  N   UNL     1      -2.408  10.339  18.402  0.00  0.00    +0.000 NA
ATOM     24  H   UNL     1      -2.320   9.330  18.255  0.00  0.00    +0.000 HD
BRANCH  23  25
ATOM     25  C   UNL     1      -2.455  10.938  17.062  0.00  0.00    +0.000 C 
BRANCH  25  26
ATOM     26  C   UNL     1      -3.784  11.118  16.298  0.00  0.00    +0.000 C 
BRANCH  26  27
ATOM     27  C   UNL     1      -4.956  11.809  17.017  0.00  0.00    +0.000 C 
BRANCH  27  28
ATOM     28  N   UNL     1      -5.301  11.296  18.357  0.00  0.00    +0.000 NA
ATOM     29  C   UNL     1      -5.157  12.315  19.397  0.00  0.00    +0.000 C 
ATOM     30  C   UNL     1      -6.689  10.813  18.351  0.00  0.00    +0.000 C 
ENDBRANCH  27  28
ENDBRANCH  26  27
ENDBRANCH  25  26
ENDBRANCH  23  25
ENDBRANCH   7  23
TORSDOF 7
ENDMDL
MODEL 6
REMARK VINA RESULT:      -6.7      5.100      9.109
REMARK  Name = 
REMARK  10 active torsions:
REMARK  status: ('A' for Active; 'I' for Inactive)
REMARK    1  A    between atoms: C_1  and  O_2
REMARK    2  A    between atoms: O_2  and  C_3
REMARK    3  A    between atoms: C_6  and  C_7
REMARK    4  A    between atoms: C_13  and  N_14
REMARK    5  A    between atoms: N_14  and  C_15
REMARK    6  A    between atoms: C_15  and  C_16
REMARK    7  A    between atoms: C_16  and  C_17
REMARK    8  A    between atoms: C_17  and  N_18
REMARK    9  A    between atoms: N_18  and  C_19
REMARK   10  A    between atoms: N_18  and  C_20
REMARK                            x       y       z     vdW  Elec       q    Type
REMARK                         _______ _______ _______ _____ _____    ______ ____
ROOT
ATOM      1  C   UNL     1       0.266  10.483  18.867  0.00  0.00    +0.000 C 
ATOM      2  C   UNL     1       0.389  11.773  19.274  0.00  0.00    +0.000 C 
ATOM      3  N   UNL     1      -0.813  12.489  19.290  0.00  0.00    +0.000 N 
ATOM      4  N   UNL     1      -1.754  11.633  18.807  0.00  0.00    +0.000 N 
ATOM      5  C   UNL     1      -1.121  10.525  18.304  0.00  0.00    +0.000 C 
ATOM      6  N   UNL     1      -1.544   9.725  17.381  0.00  0.00    +0.000 NA
ATOM      7  C   UNL     1      -2.773  10.177  16.712  0.00  0.00    +0.000 C 
ATOM      8  C   UNL     1      -3.655  11.187  17.460  0.00  0.00    +0.000 A 
ATOM      9  C   UNL     1      -5.021  11.346  17.192  0.00  0.00    +0.000 A 
ATOM     10  C   UNL     1      -5.858  11.941  18.140  0.00  0.00    +0.000 A 
ATOM     11  C   UNL     1      -5.338  12.415  19.348  0.00  0.00    +0.000 A 
ATOM     12  C   UNL     1      -3.958  12.395  19.556  0.00  0.00    +0.000 A 
ATOM     13  C   UNL     1      -3.120  11.807  18.606  0.00  0.00    +0.000 A 
ATOM     14  H   UNL     1      -0.732  13.332  18.711  0.00  0.00    +0.000 HD
ENDROOT
BRANCH   1  18
ATOM     15  C   UNL     1       2.889   7.102  18.686  0.00  0.00    +0.000 A 
ATOM     16  C   UNL     1       2.149   7.355  19.840  0.00  0.00    +0.000 A 
ATOM     17  C   UNL     1       1.291   8.460  19.919  0.00  0.00    +0.000 A 
ATOM     18  C   UNL     1       1.189   9.351  18.850  0.00  0.00    +0.000 A 
ATOM     19  C   UNL     1       1.942   9.093  17.700  0.00  0.00    +0.000 A 
ATOM     20  C   UNL     1       2.808   7.981  17.608  0.00  0.00    +0.000 A 
BRANCH  15  22
ATOM     21  C   UNL     1       3.213   4.866  17.980  0.00  0.00    +0.000 C 
ATOM     22  O   UNL     1       3.681   5.987  18.733  0.00  0.00    +0.000 OA
ENDBRANCH  15  22
ENDBRANCH   1  18
BRANCH   7  23
ATOM     23  N   UNL     1      -2.527  10.416  15.292  0.00  0.00    +0.000 NA
ATOM     24  H   UNL     1      -2.118  11.352  15.238  0.00  0.00    +0.000 HD
BRANCH  23  25
ATOM     25  C   UNL     1      -3.647  10.411  14.343  0.00  0.00    +0.000 C 
BRANCH  25  26
ATOM     26  C   UNL     1      -3.643   9.514  13.086  0.00  0.00    +0.000 C 
BRANCH  26  27
ATOM     27  C   UNL     1      -4.541   9.908  11.901  0.00  0.00    +0.000 C 
BRANCH  27  28
ATOM     28  N   UNL     1      -5.996   9.741  12.091  0.00  0.00    +0.000 NA
ATOM     29  C   UNL     1      -6.767  10.241  10.953  0.00  0.00    +0.000 C 
ATOM     30  C   UNL     1      -6.300   8.316  12.286  0.00  0.00    +0.000 C 
ENDBRANCH  27  28
ENDBRANCH  26  27
ENDBRANCH  25  26
ENDBRANCH  23  25
ENDBRANCH   7  23
TORSDOF 7
ENDMDL
MODEL 7
REMARK VINA RESULT:      -6.5      5.738     10.026
REMARK  Name = 
REMARK  10 active torsions:
REMARK  status: ('A' for Active; 'I' for Inactive)
REMARK    1  A    between atoms: C_1  and  O_2
REMARK    2  A    between atoms: O_2  and  C_3
REMARK    3  A    between atoms: C_6  and  C_7
REMARK    4  A    between atoms: C_13  and  N_14
REMARK    5  A    between atoms: N_14  and  C_15
REMARK    6  A    between atoms: C_15  and  C_16
REMARK    7  A    between atoms: C_16  and  C_17
REMARK    8  A    between atoms: C_17  and  N_18
REMARK    9  A    between atoms: N_18  and  C_19
REMARK   10  A    between atoms: N_18  and  C_20
REMARK                            x       y       z     vdW  Elec       q    Type
REMARK                         _______ _______ _______ _____ _____    ______ ____
ROOT
ATOM      1  C   UNL     1       0.049  11.149  19.120  0.00  0.00    +0.000 C 
ATOM      2  C   UNL     1      -1.061  11.459  18.401  0.00  0.00    +0.000 C 
ATOM      3  N   UNL     1      -1.372  12.823  18.382  0.00  0.00    +0.000 N 
ATOM      4  N   UNL     1      -0.447  13.420  19.183  0.00  0.00    +0.000 N 
ATOM      5  C   UNL     1       0.253  12.444  19.844  0.00  0.00    +0.000 C 
ATOM      6  N   UNL     1       0.858  12.541  20.982  0.00  0.00    +0.000 NA
ATOM      7  C   UNL     1       0.612  13.808  21.687  0.00  0.00    +0.000 C 
ATOM      8  C   UNL     1       0.138  15.003  20.849  0.00  0.00    +0.000 A 
ATOM      9  C   UNL     1       0.309  16.332  21.259  0.00  0.00    +0.000 A 
ATOM     10  C   UNL     1       0.259  17.368  20.321  0.00  0.00    +0.000 A 
ATOM     11  C   UNL     1       0.003  17.095  18.975  0.00  0.00    +0.000 A 
ATOM     12  C   UNL     1      -0.316  15.792  18.587  0.00  0.00    +0.000 A 
ATOM     13  C   UNL     1      -0.272  14.758  19.524  0.00  0.00    +0.000 A 
ATOM     14  H   UNL     1      -2.327  12.975  18.723  0.00  0.00    +0.000 HD
ENDROOT
BRANCH   1  18
ATOM     15  C   UNL     1       2.226   7.477  19.468  0.00  0.00    +0.000 A 
ATOM     16  C   UNL     1       1.519   7.980  20.560  0.00  0.00    +0.000 A 
ATOM     17  C   UNL     1       0.807   9.183  20.465  0.00  0.00    +0.000 A 
ATOM     18  C   UNL     1       0.822   9.920  19.281  0.00  0.00    +0.000 A 
ATOM     19  C   UNL     1       1.540   9.411  18.195  0.00  0.00    +0.000 A 
ATOM     20  C   UNL     1       2.260   8.198  18.277  0.00  0.00    +0.000 A 
BRANCH  15  22
ATOM     21  C   UNL     1       2.144   5.326  20.451  0.00  0.00    +0.000 C 
ATOM     22  O   UNL     1       2.870   6.290  19.687  0.00  0.00    +0.000 OA
ENDBRANCH  15  22
ENDBRANCH   1  18
BRANCH   7  23
ATOM     23  N   UNL     1      -0.063  13.564  22.960  0.00  0.00    +0.000 NA
ATOM     24  H   UNL     1       0.596  13.017  23.519  0.00  0.00    +0.000 HD
BRANCH  23  25
ATOM     25  C   UNL     1      -1.328  12.818  22.987  0.00  0.00    +0.000 C 
BRANCH  25  26
ATOM     26  C   UNL     1      -2.689  13.532  23.127  0.00  0.00    +0.000 C 
BRANCH  26  27
ATOM     27  C   UNL     1      -3.917  12.913  22.437  0.00  0.00    +0.000 C 
BRANCH  27  28
ATOM     28  N   UNL     1      -4.937  12.312  23.320  0.00  0.00    +0.000 NA
ATOM     29  C   UNL     1      -4.581  12.420  24.735  0.00  0.00    +0.000 C 
ATOM     30  C   UNL     1      -6.226  12.981  23.098  0.00  0.00    +0.000 C 
ENDBRANCH  27  28
ENDBRANCH  26  27
ENDBRANCH  25  26
ENDBRANCH  23  25
ENDBRANCH   7  23
TORSDOF 7
ENDMDL
MODEL 8
REMARK VINA RESULT:      -6.5      6.847     11.225
REMARK  Name = 
REMARK  10 active torsions:
REMARK  status: ('A' for Active; 'I' for Inactive)
REMARK    1  A    between atoms: C_1  and  O_2
REMARK    2  A    between atoms: O_2  and  C_3
REMARK    3  A    between atoms: C_6  and  C_7
REMARK    4  A    between atoms: C_13  and  N_14
REMARK    5  A    between atoms: N_14  and  C_15
REMARK    6  A    between atoms: C_15  and  C_16
REMARK    7  A    between atoms: C_16  and  C_17
REMARK    8  A    between atoms: C_17  and  N_18
REMARK    9  A    between atoms: N_18  and  C_19
REMARK   10  A    between atoms: N_18  and  C_20
REMARK                            x       y       z     vdW  Elec       q    Type
REMARK                         _______ _______ _______ _____ _____    ______ ____
ROOT
ATOM      1  C   UNL     1      -1.115  11.342  22.609  0.00  0.00    +0.000 C 
ATOM      2  C   UNL     1      -1.009  10.120  23.193  0.00  0.00    +0.000 C 
ATOM      3  N   UNL     1      -0.359   9.161  22.409  0.00  0.00    +0.000 N 
ATOM      4  N   UNL     1      -0.085   9.780  21.228  0.00  0.00    +0.000 N 
ATOM      5  C   UNL     1      -0.739  10.985  21.204  0.00  0.00    +0.000 C 
ATOM      6  N   UNL     1      -1.130  11.650  20.167  0.00  0.00    +0.000 NA
ATOM      7  C   UNL     1      -0.978  10.925  18.896  0.00  0.00    +0.000 C 
ATOM      8  C   UNL     1       0.029   9.768  18.859  0.00  0.00    +0.000 A 
ATOM      9  C   UNL     1       0.614   9.310  17.671  0.00  0.00    +0.000 A 
ATOM     10  C   UNL     1       1.800   8.571  17.711  0.00  0.00    +0.000 A 
ATOM     11  C   UNL     1       2.396   8.252  18.935  0.00  0.00    +0.000 A 
ATOM     12  C   UNL     1       1.740   8.577  20.124  0.00  0.00    +0.000 A 
ATOM     13  C   UNL     1       0.551   9.309  20.084  0.00  0.00    +0.000 A 
ATOM     14  H   UNL     1      -0.961   8.341  22.278  0.00  0.00    +0.000 HD
ENDROOT
BRANCH   1  18
ATOM     15  C   UNL     1      -2.523  15.164  23.934  0.00  0.00    +0.000 A 
ATOM     16  C   UNL     1      -1.228  15.028  23.435  0.00  0.00    +0.000 A 
ATOM     17  C   UNL     1      -0.749  13.783  23.003  0.00  0.00    +0.000 A 
ATOM     18  C   UNL     1      -1.552  12.647  23.099  0.00  0.00    +0.000 A 
ATOM     19  C   UNL     1      -2.846  12.793  23.609  0.00  0.00    +0.000 A 
ATOM     20  C   UNL     1      -3.341  14.042  24.045  0.00  0.00    +0.000 A 
BRANCH  15  22
ATOM     21  C   UNL     1      -4.205  16.584  24.804  0.00  0.00    +0.000 C 
ATOM     22  O   UNL     1      -2.871  16.431  24.313  0.00  0.00    +0.000 OA
ENDBRANCH  15  22
ENDBRANCH   1  18
BRANCH   7  23
ATOM     23  N   UNL     1      -2.280  10.710  18.270  0.00  0.00    +0.000 NA
ATOM     24  H   UNL     1      -2.343   9.702  18.108  0.00  0.00    +0.000 HD
BRANCH  23  25
ATOM     25  C   UNL     1      -2.587  11.344  16.982  0.00  0.00    +0.000 C 
BRANCH  25  26
ATOM     26  C   UNL     1      -3.973  11.205  16.318  0.00  0.00    +0.000 C 
BRANCH  26  27
ATOM     27  C   UNL     1      -5.194  11.808  17.034  0.00  0.00    +0.000 C 
BRANCH  27  28
ATOM     28  N   UNL     1      -5.432  11.361  18.420  0.00  0.00    +0.000 NA
ATOM     29  C   UNL     1      -5.278  12.446  19.389  0.00  0.00    +0.000 C 
ATOM     30  C   UNL     1      -6.792  10.813  18.529  0.00  0.00    +0.000 C 
ENDBRANCH  27  28
ENDBRANCH  26  27
ENDBRANCH  25  26
ENDBRANCH  23  25
ENDBRANCH   7  23
TORSDOF 7
ENDMDL
MODEL 9
REMARK VINA RESULT:      -6.5      6.307     10.508
REMARK  Name = 
REMARK  10 active torsions:
REMARK  status: ('A' for Active; 'I' for Inactive)
REMARK    1  A    between atoms: C_1  and  O_2
REMARK    2  A    between atoms: O_2  and  C_3
REMARK    3  A    between atoms: C_6  and  C_7
REMARK    4  A    between atoms: C_13  and  N_14
REMARK    5  A    between atoms: N_14  and  C_15
REMARK    6  A    between atoms: C_15  and  C_16
REMARK    7  A    between atoms: C_16  and  C_17
REMARK    8  A    between atoms: C_17  and  N_18
REMARK    9  A    between atoms: N_18  and  C_19
REMARK   10  A    between atoms: N_18  and  C_20
REMARK                            x       y       z     vdW  Elec       q    Type
REMARK                         _______ _______ _______ _____ _____    ______ ____
ROOT
ATOM      1  C   UNL     1      -0.440  13.239  18.938  0.00  0.00    +0.000 C 
ATOM      2  C   UNL     1      -1.243  12.431  18.198  0.00  0.00    +0.000 C 
ATOM      3  N   UNL     1      -2.479  12.148  18.790  0.00  0.00    +0.000 N 
ATOM      4  N   UNL     1      -2.448  12.757  20.007  0.00  0.00    +0.000 N 
ATOM      5  C   UNL     1      -1.171  13.195  20.245  0.00  0.00    +0.000 C 
ATOM      6  N   UNL     1      -0.603  13.389  21.390  0.00  0.00    +0.000 NA
ATOM      7  C   UNL     1      -1.397  12.926  22.539  0.00  0.00    +0.000 C 
ATOM      8  C   UNL     1      -2.908  12.761  22.333  0.00  0.00    +0.000 A 
ATOM      9  C   UNL     1      -3.825  12.791  23.393  0.00  0.00    +0.000 A 
ATOM     10  C   UNL     1      -5.175  13.057  23.146  0.00  0.00    +0.000 A 
ATOM     11  C   UNL     1      -5.631  13.262  21.841  0.00  0.00    +0.000 A 
ATOM     12  C   UNL     1      -4.752  13.085  20.771  0.00  0.00    +0.000 A 
ATOM     13  C   UNL     1      -3.404  12.813  21.017  0.00  0.00    +0.000 A 
ATOM     14  H   UNL     1      -2.609  11.135  18.873  0.00  0.00    +0.000 HD
ENDROOT
BRANCH   1  18
ATOM     15  C   UNL     1       3.344  15.125  18.249  0.00  0.00    +0.000 A 
ATOM     16  C   UNL     1       2.220  15.894  18.548  0.00  0.00    +0.000 A 
ATOM     17  C   UNL     1       0.973  15.294  18.770  0.00  0.00    +0.000 A 
ATOM     18  C   UNL     1       0.827  13.911  18.660  0.00  0.00    +0.000 A 
ATOM     19  C   UNL     1       1.958  13.149  18.353  0.00  0.00    +0.000 A 
ATOM     20  C   UNL     1       3.220  13.742  18.129  0.00  0.00    +0.000 A 
BRANCH  15  22
ATOM     21  C   UNL     1       5.706  15.063  18.118  0.00  0.00    +0.000 C 
ATOM     22  O   UNL     1       4.501  15.829  18.065  0.00  0.00    +0.000 OA
ENDBRANCH  15  22
ENDBRANCH   1  18
BRANCH   7  23
ATOM     23  N   UNL     1      -0.691  11.866  23.256  0.00  0.00    +0.000 NA
ATOM     24  H   UNL     1       0.282  11.926  22.943  0.00  0.00    +0.000 HD
BRANCH  23  25
ATOM     25  C   UNL     1      -1.088  10.465  23.068  0.00  0.00    +0.000 C 
BRANCH  25  26
ATOM     26  C   UNL     1      -0.045   9.333  22.953  0.00  0.00    +0.000 C 
BRANCH  26  27
ATOM     27  C   UNL     1       0.067   8.572  21.620  0.00  0.00    +0.000 C 
BRANCH  27  28
ATOM     28  N   UNL     1       1.245   8.876  20.785  0.00  0.00    +0.000 NA
ATOM     29  C   UNL     1       1.839   7.673  20.201  0.00  0.00    +0.000 C 
ATOM     30  C   UNL     1       0.852   9.788  19.702  0.00  0.00    +0.000 C 
ENDBRANCH  27  28
ENDBRANCH  26  27
ENDBRANCH  25  26
ENDBRANCH  23  25
ENDBRANCH   7  23
TORSDOF 7
ENDMDL
