MODEL 1
REMARK VINA RESULT:      -7.1      0.000      0.000
REMARK  Name = 
REMARK  8 active torsions:
REMARK  status: ('A' for Active; 'I' for Inactive)
REMARK    1  A    between atoms: C_1  and  C_2
REMARK    2  A    between atoms: C_4  and  C_5
REMARK    3  A    between atoms: C_5  and  N_6
REMARK    4  A    between atoms: C_9  and  C_10
REMARK    5  A    between atoms: N_13  and  C_14
REMARK    6  A    between atoms: C_14  and  C_15
REMARK    7  A    between atoms: C_15  and  C_16
REMARK    8  A    between atoms: C_15  and  C_17
REMARK                            x       y       z     vdW  Elec       q    Type
REMARK                         _______ _______ _______ _____ _____    ______ ____
ROOT
ATOM      1  N   UNL     1       6.457   4.182  15.116  0.00  0.00    +0.000 NA
ATOM      2  C   UNL     1       7.427   4.553  16.148  0.00  0.00    +0.000 C 
ATOM      3  C   UNL     1       6.613   4.168  17.359  0.00  0.00    +0.000 C 
ATOM      4  C   UNL     1       5.204   4.714  17.053  0.00  0.00    +0.000 C 
ATOM      5  C   UNL     1       5.229   4.887  15.507  0.00  0.00    +0.000 C 
ENDROOT
BRANCH   4   6
ATOM      6  C   UNL     1       4.901   6.011  17.859  0.00  0.00    +0.000 C 
ATOM      7  C   UNL     1       4.948   5.812  19.388  0.00  0.00    +0.000 C 
ATOM      8  C   UNL     1       3.783   4.973  19.915  0.00  0.00    +0.000 C 
ATOM      9  N   UNL     1       2.469   5.534  19.574  0.00  0.00    +0.000 NA
ATOM     10  C   UNL     1       2.355   5.873  18.142  0.00  0.00    +0.000 C 
ATOM     11  C   UNL     1       3.540   6.646  17.549  0.00  0.00    +0.000 C 
BRANCH   9  12
ATOM     12  C   UNL     1       1.379   4.588  19.916  0.00  0.00    +0.000 C 
BRANCH  12  13
ATOM     13  C   UNL     1       1.760   3.105  20.136  0.00  0.00    +0.000 C 
ATOM     14  C   UNL     1       1.355   2.596  21.519  0.00  0.00    +0.000 C 
ATOM     15  C   UNL     1       1.093   2.246  19.053  0.00  0.00    +0.000 C 
ENDBRANCH  12  13
ENDBRANCH   9  12
ENDBRANCH   4   6
BRANCH   1  16
ATOM     16  C   UNL     1       6.941   4.410  13.762  0.00  0.00    +0.000 C 
BRANCH  16  20
ATOM     17  C   UNL     1       3.279   2.869  10.509  0.00  0.00    +0.000 C 
ATOM     18  C   UNL     1       4.484   3.017  11.362  0.00  0.00    +0.000 A 
ATOM     19  C   UNL     1       4.837   4.103  12.199  0.00  0.00    +0.000 A 
ATOM     20  C   UNL     1       6.022   3.731  12.796  0.00  0.00    +0.000 A 
ATOM     21  N   UNL     1       6.330   2.511  12.255  0.00  0.00    +0.000 N 
ATOM     22  N   UNL     1       5.404   2.046  11.401  0.00  0.00    +0.000 NA
ATOM     23  H   UNL     1       7.172   1.966  12.409  0.00  0.00    +0.000 HD
ENDBRANCH  16  20
ENDBRANCH   1  16
TORSDOF 5
ENDMDL
MODEL 2
REMARK VINA RESULT:      -6.5      2.070      4.112
REMARK  Name = 
REMARK  8 active torsions:
REMARK  status: ('A' for Active; 'I' for Inactive)
REMARK    1  A    between atoms: C_1  and  C_2
REMARK    2  A    between atoms: C_4  and  C_5
REMARK    3  A    between atoms: C_5  and  N_6
REMARK    4  A    between atoms: C_9  and  C_10
REMARK    5  A    between atoms: N_13  and  C_14
REMARK    6  A    between atoms: C_14  and  C_15
REMARK    7  A    between atoms: C_15  and  C_16
REMARK    8  A    between atoms: C_15  and  C_17
REMARK                            x       y       z     vdW  Elec       q    Type
REMARK                         _______ _______ _______ _____ _____    ______ ____
ROOT
ATOM      1  N   UNL     1       4.945   3.791  18.004  0.00  0.00    +0.000 NA
ATOM      2  C   UNL     1       4.906   3.741  19.466  0.00  0.00    +0.000 C 
ATOM      3  C   UNL     1       4.396   2.329  19.622  0.00  0.00    +0.000 C 
ATOM      4  C   UNL     1       3.268   2.221  18.577  0.00  0.00    +0.000 C 
ATOM      5  C   UNL     1       3.595   3.382  17.595  0.00  0.00    +0.000 C 
ENDROOT
BRANCH   4   6
ATOM      6  C   UNL     1       1.860   2.291  19.238  0.00  0.00    +0.000 C 
ATOM      7  C   UNL     1       0.946   3.374  18.628  0.00  0.00    +0.000 C 
ATOM      8  C   UNL     1       1.397   4.794  18.971  0.00  0.00    +0.000 C 
ATOM      9  N   UNL     1       1.484   5.039  20.417  0.00  0.00    +0.000 NA
ATOM     10  C   UNL     1       2.245   3.989  21.122  0.00  0.00    +0.000 C 
ATOM     11  C   UNL     1       1.881   2.546  20.750  0.00  0.00    +0.000 C 
BRANCH   9  12
ATOM     12  C   UNL     1       2.123   6.347  20.700  0.00  0.00    +0.000 C 
BRANCH  12  13
ATOM     13  C   UNL     1       1.284   7.623  20.453  0.00  0.00    +0.000 C 
ATOM     14  C   UNL     1       1.267   8.556  21.663  0.00  0.00    +0.000 C 
ATOM     15  C   UNL     1       1.846   8.368  19.234  0.00  0.00    +0.000 C 
ENDBRANCH  12  13
ENDBRANCH   9  12
ENDBRANCH   4   6
BRANCH   1  16
ATOM     16  C   UNL     1       5.432   5.059  17.483  0.00  0.00    +0.000 C 
BRANCH  16  20
ATOM     17  C   UNL     1       6.588   3.771  12.649  0.00  0.00    +0.000 C 
ATOM     18  C   UNL     1       6.533   4.341  14.018  0.00  0.00    +0.000 A 
ATOM     19  C   UNL     1       5.566   4.108  15.026  0.00  0.00    +0.000 A 
ATOM     20  C   UNL     1       5.991   4.840  16.112  0.00  0.00    +0.000 A 
ATOM     21  N   UNL     1       7.116   5.494  15.688  0.00  0.00    +0.000 N 
ATOM     22  N   UNL     1       7.479   5.192  14.430  0.00  0.00    +0.000 NA
ATOM     23  H   UNL     1       7.658   6.182  16.201  0.00  0.00    +0.000 HD
ENDBRANCH  16  20
ENDBRANCH   1  16
TORSDOF 5
ENDMDL
MODEL 3
REMARK VINA RESULT:      -6.5      2.001      4.191
REMARK  Name = 
REMARK  8 active torsions:
REMARK  status: ('A' for Active; 'I' for Inactive)
REMARK    1  A    between atoms: C_1  and  C_2
REMARK    2  A    between atoms: C_4  and  C_5
REMARK    3  A    between atoms: C_5  and  N_6
REMARK    4  A    between atoms: C_9  and  C_10
REMARK    5  A    between atoms: N_13  and  C_14
REMARK    6  A    between atoms: C_14  and  C_15
REMARK    7  A    between atoms: C_15  and  C_16
REMARK    8  A    between atoms: C_15  and  C_17
REMARK                            x       y       z     vdW  Elec       q    Type
REMARK                         _______ _______ _______ _____ _____    ______ ____
ROOT
ATOM      1  N   UNL     1       5.417   3.572  18.318  0.00  0.00    +0.000 NA
ATOM      2  C   UNL     1       5.275   3.492  19.772  0.00  0.00    +0.000 C 
ATOM      3  C   UNL     1       4.539   2.177  19.847  0.00  0.00    +0.000 C 
ATOM      4  C   UNL     1       3.478   2.278  18.733  0.00  0.00    +0.000 C 
ATOM      5  C   UNL     1       4.048   3.396  17.814  0.00  0.00    +0.000 C 
ENDROOT
BRANCH   4   6
ATOM      6  C   UNL     1       2.059   2.555  19.311  0.00  0.00    +0.000 C 
ATOM      7  C   UNL     1       1.171   3.406  18.379  0.00  0.00    +0.000 C 
ATOM      8  C   UNL     1       1.633   4.860  18.282  0.00  0.00    +0.000 C 
ATOM      9  N   UNL     1       1.697   5.534  19.585  0.00  0.00    +0.000 NA
ATOM     10  C   UNL     1       2.431   4.745  20.594  0.00  0.00    +0.000 C 
ATOM     11  C   UNL     1       2.056   3.260  20.673  0.00  0.00    +0.000 C 
BRANCH   9  12
ATOM     12  C   UNL     1       2.347   6.862  19.470  0.00  0.00    +0.000 C 
BRANCH  12  13
ATOM     13  C   UNL     1       2.389   7.520  18.070  0.00  0.00    +0.000 C 
ATOM     14  C   UNL     1       1.889   8.964  18.088  0.00  0.00    +0.000 C 
ATOM     15  C   UNL     1       3.827   7.478  17.536  0.00  0.00    +0.000 C 
ENDBRANCH  12  13
ENDBRANCH   9  12
ENDBRANCH   4   6
BRANCH   1  16
ATOM     16  C   UNL     1       6.131   4.759  17.872  0.00  0.00    +0.000 C 
BRANCH  16  20
ATOM     17  C   UNL     1       6.389   3.705  12.854  0.00  0.00    +0.000 C 
ATOM     18  C   UNL     1       6.548   4.249  14.225  0.00  0.00    +0.000 A 
ATOM     19  C   UNL     1       5.870   3.859  15.405  0.00  0.00    +0.000 A 
ATOM     20  C   UNL     1       6.405   4.641  16.406  0.00  0.00    +0.000 A 
ATOM     21  N   UNL     1       7.300   5.466  15.778  0.00  0.00    +0.000 N 
ATOM     22  N   UNL     1       7.422   5.234  14.461  0.00  0.00    +0.000 NA
ATOM     23  H   UNL     1       7.831   6.225  16.193  0.00  0.00    +0.000 HD
ENDBRANCH  16  20
ENDBRANCH   1  16
TORSDOF 5
ENDMDL
MODEL 4
REMARK VINA RESULT:      -6.2      1.957      3.314
REMARK  Name = 
REMARK  8 active torsions:
REMARK  status: ('A' for Active; 'I' for Inactive)
REMARK    1  A    between atoms: C_1  and  C_2
REMARK    2  A    between atoms: C_4  and  C_5
REMARK    3  A    between atoms: C_5  and  N_6
REMARK    4  A    between atoms: C_9  and  C_10
REMARK    5  A    between atoms: N_13  and  C_14
REMARK    6  A    between atoms: C_14  and  C_15
REMARK    7  A    between atoms: C_15  and  C_16
REMARK    8  A    between atoms: C_15  and  C_17
REMARK                            x       y       z     vdW  Elec       q    Type
REMARK                         _______ _______ _______ _____ _____    ______ ____
ROOT
ATOM      1  N   UNL     1       5.474   5.714  17.897  0.00  0.00    +0.000 NA
ATOM      2  C   UNL     1       4.616   6.150  16.795  0.00  0.00    +0.000 C 
ATOM      3  C   UNL     1       3.995   7.351  17.464  0.00  0.00    +0.000 C 
ATOM      4  C   UNL     1       3.645   6.852  18.880  0.00  0.00    +0.000 C 
ATOM      5  C   UNL     1       4.560   5.604  19.041  0.00  0.00    +0.000 C 
ENDROOT
BRANCH   4   6
ATOM      6  C   UNL     1       2.120   6.578  19.036  0.00  0.00    +0.000 C 
ATOM      7  C   UNL     1       1.722   6.091  20.445  0.00  0.00    +0.000 C 
ATOM      8  C   UNL     1       2.210   4.673  20.743  0.00  0.00    +0.000 C 
ATOM      9  N   UNL     1       1.730   3.682  19.771  0.00  0.00    +0.000 NA
ATOM     10  C   UNL     1       1.958   4.105  18.375  0.00  0.00    +0.000 C 
ATOM     11  C   UNL     1       1.556   5.549  18.049  0.00  0.00    +0.000 C 
BRANCH   9  12
ATOM     12  C   UNL     1       2.393   2.371  19.973  0.00  0.00    +0.000 C 
BRANCH  12  13
ATOM     13  C   UNL     1       3.831   2.202  19.427  0.00  0.00    +0.000 C 
ATOM     14  C   UNL     1       4.830   1.820  20.519  0.00  0.00    +0.000 C 
ATOM     15  C   UNL     1       3.832   1.132  18.328  0.00  0.00    +0.000 C 
ENDBRANCH  12  13
ENDBRANCH   9  12
ENDBRANCH   4   6
BRANCH   1  16
ATOM     16  C   UNL     1       6.270   4.539  17.578  0.00  0.00    +0.000 C 
BRANCH  16  20
ATOM     17  C   UNL     1       6.514   3.795  12.504  0.00  0.00    +0.000 C 
ATOM     18  C   UNL     1       6.673   4.257  13.905  0.00  0.00    +0.000 A 
ATOM     19  C   UNL     1       6.008   3.786  15.063  0.00  0.00    +0.000 A 
ATOM     20  C   UNL     1       6.537   4.515  16.106  0.00  0.00    +0.000 A 
ATOM     21  N   UNL     1       7.414   5.390  15.525  0.00  0.00    +0.000 N 
ATOM     22  N   UNL     1       7.532   5.240  14.195  0.00  0.00    +0.000 NA
ATOM     23  H   UNL     1       7.936   6.132  15.982  0.00  0.00    +0.000 HD
ENDBRANCH  16  20
ENDBRANCH   1  16
TORSDOF 5
ENDMDL
MODEL 5
REMARK VINA RESULT:      -6.1      4.318      8.387
REMARK  Name = 
REMARK  8 active torsions:
REMARK  status: ('A' for Active; 'I' for Inactive)
REMARK    1  A    between atoms: C_1  and  C_2
REMARK    2  A    between atoms: C_4  and  C_5
REMARK    3  A    between atoms: C_5  and  N_6
REMARK    4  A    between atoms: C_9  and  C_10
REMARK    5  A    between atoms: N_13  and  C_14
REMARK    6  A    between atoms: C_14  and  C_15
REMARK    7  A    between atoms: C_15  and  C_16
REMARK    8  A    between atoms: C_15  and  C_17
REMARK                            x       y       z     vdW  Elec       q    Type
REMARK                         _______ _______ _______ _____ _____    ______ ____
ROOT
ATOM      1  N   UNL     1       1.332   9.282  19.615  0.00  0.00    +0.000 NA
ATOM      2  C   UNL     1       0.581   8.479  20.581  0.00  0.00    +0.000 C 
ATOM      3  C   UNL     1       1.708   7.592  21.050  0.00  0.00    +0.000 C 
ATOM      4  C   UNL     1       2.434   7.191  19.751  0.00  0.00    +0.000 C 
ATOM      5  C   UNL     1       1.977   8.288  18.747  0.00  0.00    +0.000 C 
ENDROOT
BRANCH   4   6
ATOM      6  C   UNL     1       2.100   5.730  19.330  0.00  0.00    +0.000 C 
ATOM      7  C   UNL     1       2.908   4.667  20.104  0.00  0.00    +0.000 C 
ATOM      8  C   UNL     1       4.388   4.650  19.722  0.00  0.00    +0.000 C 
ATOM      9  N   UNL     1       4.611   4.429  18.287  0.00  0.00    +0.000 NA
ATOM     10  C   UNL     1       3.792   5.323  17.445  0.00  0.00    +0.000 C 
ATOM     11  C   UNL     1       2.314   5.433  17.841  0.00  0.00    +0.000 C 
BRANCH   9  12
ATOM     12  C   UNL     1       6.036   4.631  17.930  0.00  0.00    +0.000 C 
BRANCH  12  13
ATOM     13  C   UNL     1       6.722   5.927  18.424  0.00  0.00    +0.000 C 
ATOM     14  C   UNL     1       7.881   5.647  19.380  0.00  0.00    +0.000 C 
ATOM     15  C   UNL     1       7.231   6.721  17.213  0.00  0.00    +0.000 C 
ENDBRANCH  12  13
ENDBRANCH   9  12
ENDBRANCH   4   6
BRANCH   1  16
ATOM     16  C   UNL     1       0.525  10.300  18.959  0.00  0.00    +0.000 C 
BRANCH  16  20
ATOM     17  C   UNL     1       2.738  14.877  19.676  0.00  0.00    +0.000 C 
ATOM     18  C   UNL     1       2.300  13.545  19.191  0.00  0.00    +0.000 A 
ATOM     19  C   UNL     1       1.370  12.658  19.787  0.00  0.00    +0.000 A 
ATOM     20  C   UNL     1       1.292  11.584  18.927  0.00  0.00    +0.000 A 
ATOM     21  N   UNL     1       2.192  11.853  17.931  0.00  0.00    +0.000 N 
ATOM     22  N   UNL     1       2.800  13.045  18.056  0.00  0.00    +0.000 NA
ATOM     23  H   UNL     1       2.455  11.248  17.161  0.00  0.00    +0.000 HD
ENDBRANCH  16  20
ENDBRANCH   1  16
TORSDOF 5
ENDMDL
MODEL 6
REMARK VINA RESULT:      -6.1      3.679      6.189
REMARK  Name = 
REMARK  8 active torsions:
REMARK  status: ('A' for Active; 'I' for Inactive)
REMARK    1  A    between atoms: C_1  and  C_2
REMARK    2  A    between atoms: C_4  and  C_5
REMARK    3  A    between atoms: C_5  and  N_6
REMARK    4  A    between atoms: C_9  and  C_10
REMARK    5  A    between atoms: N_13  and  C_14
REMARK    6  A    between atoms: C_14  and  C_15
REMARK    7  A    between atoms: C_15  and  C_16
REMARK    8  A    between atoms: C_15  and  C_17
REMARK                            x       y       z     vdW  Elec       q    Type
REMARK                         _______ _______ _______ _____ _____    ______ ____
ROOT
ATOM      1  N   UNL     1       2.311   3.962  18.966  0.00  0.00    +0.000 NA
ATOM      2  C   UNL     1       2.667   4.304  20.344  0.00  0.00    +0.000 C 
ATOM      3  C   UNL     1       1.633   5.378  20.576  0.00  0.00    +0.000 C 
ATOM      4  C   UNL     1       1.669   6.219  19.285  0.00  0.00    +0.000 C 
ATOM      5  C   UNL     1       2.328   5.251  18.261  0.00  0.00    +0.000 C 
ENDROOT
BRANCH   4   6
ATOM      6  C   UNL     1       2.417   7.568  19.496  0.00  0.00    +0.000 C 
ATOM      7  C   UNL     1       1.760   8.478  20.554  0.00  0.00    +0.000 C 
ATOM      8  C   UNL     1       0.425   9.062  20.090  0.00  0.00    +0.000 C 
ATOM      9  N   UNL     1       0.534   9.827  18.841  0.00  0.00    +0.000 NA
ATOM     10  C   UNL     1       1.256   9.088  17.787  0.00  0.00    +0.000 C 
ATOM     11  C   UNL     1       2.563   8.417  18.228  0.00  0.00    +0.000 C 
BRANCH   9  12
ATOM     12  C   UNL     1      -0.806  10.192  18.319  0.00  0.00    +0.000 C 
BRANCH  12  13
ATOM     13  C   UNL     1      -1.190  11.690  18.316  0.00  0.00    +0.000 C 
ATOM     14  C   UNL     1      -2.359  11.996  19.252  0.00  0.00    +0.000 C 
ATOM     15  C   UNL     1       0.031  12.526  18.723  0.00  0.00    +0.000 C 
ENDBRANCH  12  13
ENDBRANCH   9  12
ENDBRANCH   4   6
BRANCH   1  16
ATOM     16  C   UNL     1       3.128   2.897  18.406  0.00  0.00    +0.000 C 
BRANCH  16  20
ATOM     17  C   UNL     1       7.033   4.965  15.792  0.00  0.00    +0.000 C 
ATOM     18  C   UNL     1       6.119   4.399  16.814  0.00  0.00    +0.000 A 
ATOM     19  C   UNL     1       4.789   3.943  16.643  0.00  0.00    +0.000 A 
ATOM     20  C   UNL     1       4.401   3.483  17.882  0.00  0.00    +0.000 A 
ATOM     21  N   UNL     1       5.463   3.737  18.709  0.00  0.00    +0.000 N 
ATOM     22  N   UNL     1       6.525   4.271  18.082  0.00  0.00    +0.000 NA
ATOM     23  H   UNL     1       5.508   3.595  19.713  0.00  0.00    +0.000 HD
ENDBRANCH  16  20
ENDBRANCH   1  16
TORSDOF 5
ENDMDL
MODEL 7
REMARK VINA RESULT:      -6.1      2.894      7.929
REMARK  Name = 
REMARK  8 active torsions:
REMARK  status: ('A' for Active; 'I' for Inactive)
REMARK    1  A    between atoms: C_1  and  C_2
REMARK    2  A    between atoms: C_4  and  C_5
REMARK    3  A    between atoms: C_5  and  N_6
REMARK    4  A    between atoms: C_9  and  C_10
REMARK    5  A    between atoms: N_13  and  C_14
REMARK    6  A    between atoms: C_14  and  C_15
REMARK    7  A    between atoms: C_15  and  C_16
REMARK    8  A    between atoms: C_15  and  C_17
REMARK                            x       y       z     vdW  Elec       q    Type
REMARK                         _______ _______ _______ _____ _____    ______ ____
ROOT
ATOM      1  N   UNL     1       1.857   6.111  19.342  0.00  0.00    +0.000 NA
ATOM      2  C   UNL     1       2.223   5.625  18.011  0.00  0.00    +0.000 C 
ATOM      3  C   UNL     1       1.379   4.375  17.997  0.00  0.00    +0.000 C 
ATOM      4  C   UNL     1       1.598   3.759  19.393  0.00  0.00    +0.000 C 
ATOM      5  C   UNL     1       2.115   4.967  20.226  0.00  0.00    +0.000 C 
ENDROOT
BRANCH   4   6
ATOM      6  C   UNL     1       2.558   2.534  19.339  0.00  0.00    +0.000 C 
ATOM      7  C   UNL     1       3.884   2.756  20.097  0.00  0.00    +0.000 C 
ATOM      8  C   UNL     1       4.804   3.761  19.402  0.00  0.00    +0.000 C 
ATOM      9  N   UNL     1       5.131   3.384  18.021  0.00  0.00    +0.000 NA
ATOM     10  C   UNL     1       3.933   3.034  17.233  0.00  0.00    +0.000 C 
ATOM     11  C   UNL     1       2.940   2.090  17.922  0.00  0.00    +0.000 C 
BRANCH   9  12
ATOM     12  C   UNL     1       5.844   4.480  17.322  0.00  0.00    +0.000 C 
BRANCH  12  13
ATOM     13  C   UNL     1       5.321   4.902  15.929  0.00  0.00    +0.000 C 
ATOM     14  C   UNL     1       5.136   6.414  15.807  0.00  0.00    +0.000 C 
ATOM     15  C   UNL     1       6.298   4.412  14.852  0.00  0.00    +0.000 C 
ENDBRANCH  12  13
ENDBRANCH   9  12
ENDBRANCH   4   6
BRANCH   1  16
ATOM     16  C   UNL     1       2.499   7.369  19.694  0.00  0.00    +0.000 C 
BRANCH  16  20
ATOM     17  C   UNL     1      -0.613   9.845  22.941  0.00  0.00    +0.000 C 
ATOM     18  C   UNL     1       0.167   9.358  21.776  0.00  0.00    +0.000 A 
ATOM     19  C   UNL     1       1.110   8.303  21.733  0.00  0.00    +0.000 A 
ATOM     20  C   UNL     1       1.516   8.233  20.418  0.00  0.00    +0.000 A 
ATOM     21  N   UNL     1       0.860   9.254  19.784  0.00  0.00    +0.000 N 
ATOM     22  N   UNL     1       0.019   9.937  20.579  0.00  0.00    +0.000 NA
ATOM     23  H   UNL     1       0.970   9.549  18.819  0.00  0.00    +0.000 HD
ENDBRANCH  16  20
ENDBRANCH   1  16
TORSDOF 5
ENDMDL
MODEL 8
REMARK VINA RESULT:      -6.0      1.101      1.216
REMARK  Name = 
REMARK  8 active torsions:
REMARK  status: ('A' for Active; 'I' for Inactive)
REMARK    1  A    between atoms: C_1  and  C_2
REMARK    2  A    between atoms: C_4  and  C_5
REMARK    3  A    between atoms: C_5  and  N_6
REMARK    4  A    between atoms: C_9  and  C_10
REMARK    5  A    between atoms: N_13  and  C_14
REMARK    6  A    between atoms: C_14  and  C_15
REMARK    7  A    between atoms: C_15  and  C_16
REMARK    8  A    between atoms: C_15  and  C_17
REMARK                            x       y       z     vdW  Elec       q    Type
REMARK                         _______ _______ _______ _____ _____    ______ ____
ROOT
ATOM      1  N   UNL     1       6.024   4.487  14.683  0.00  0.00    +0.000 NA
ATOM      2  C   UNL     1       7.034   4.410  15.739  0.00  0.00    +0.000 C 
ATOM      3  C   UNL     1       6.122   4.048  16.885  0.00  0.00    +0.000 C 
ATOM      4  C   UNL     1       4.911   4.987  16.711  0.00  0.00    +0.000 C 
ATOM      5  C   UNL     1       5.014   5.409  15.218  0.00  0.00    +0.000 C 
ENDROOT
BRANCH   4   6
ATOM      6  C   UNL     1       4.939   6.160  17.734  0.00  0.00    +0.000 C 
ATOM      7  C   UNL     1       5.190   5.705  19.187  0.00  0.00    +0.000 C 
ATOM      8  C   UNL     1       4.005   4.948  19.786  0.00  0.00    +0.000 C 
ATOM      9  N   UNL     1       2.756   5.720  19.765  0.00  0.00    +0.000 NA
ATOM     10  C   UNL     1       2.476   6.304  18.438  0.00  0.00    +0.000 C 
ATOM     11  C   UNL     1       3.660   7.007  17.762  0.00  0.00    +0.000 C 
BRANCH   9  12
ATOM     12  C   UNL     1       1.599   4.878  20.156  0.00  0.00    +0.000 C 
BRANCH  12  13
ATOM     13  C   UNL     1       1.801   3.345  20.170  0.00  0.00    +0.000 C 
ATOM     14  C   UNL     1       1.469   2.723  21.525  0.00  0.00    +0.000 C 
ATOM     15  C   UNL     1       0.926   2.710  19.081  0.00  0.00    +0.000 C 
ENDBRANCH  12  13
ENDBRANCH   9  12
ENDBRANCH   4   6
BRANCH   1  16
ATOM     16  C   UNL     1       6.579   4.808  13.376  0.00  0.00    +0.000 C 
BRANCH  16  20
ATOM     17  C   UNL     1       5.814   0.407  10.845  0.00  0.00    +0.000 C 
ATOM     18  C   UNL     1       6.329   1.684  11.399  0.00  0.00    +0.000 A 
ATOM     19  C   UNL     1       5.704   2.550  12.329  0.00  0.00    +0.000 A 
ATOM     20  C   UNL     1       6.608   3.568  12.540  0.00  0.00    +0.000 A 
ATOM     21  N   UNL     1       7.660   3.294  11.708  0.00  0.00    +0.000 N 
ATOM     22  N   UNL     1       7.526   2.146  11.022  0.00  0.00    +0.000 NA
ATOM     23  H   UNL     1       8.480   3.868  11.544  0.00  0.00    +0.000 HD
ENDBRANCH  16  20
ENDBRANCH   1  16
TORSDOF 5
ENDMDL
MODEL 9
REMARK VINA RESULT:      -6.0      4.665      9.183
REMARK  Name = 
REMARK  8 active torsions:
REMARK  status: ('A' for Active; 'I' for Inactive)
REMARK    1  A    between atoms: C_1  and  C_2
REMARK    2  A    between atoms: C_4  and  C_5
REMARK    3  A    between atoms: C_5  and  N_6
REMARK    4  A    between atoms: C_9  and  C_10
REMARK    5  A    between atoms: N_13  and  C_14
REMARK    6  A    between atoms: C_14  and  C_15
REMARK    7  A    between atoms: C_15  and  C_16
REMARK    8  A    between atoms: C_15  and  C_17
REMARK                            x       y       z     vdW  Elec       q    Type
REMARK                         _______ _______ _______ _____ _____    ______ ____
ROOT
ATOM      1  N   UNL     1       1.268   9.298  19.794  0.00  0.00    +0.000 NA
ATOM      2  C   UNL     1       0.681   8.451  20.833  0.00  0.00    +0.000 C 
ATOM      3  C   UNL     1       1.889   7.594  21.122  0.00  0.00    +0.000 C 
ATOM      4  C   UNL     1       2.443   7.244  19.727  0.00  0.00    +0.000 C 
ATOM      5  C   UNL     1       1.819   8.345  18.822  0.00  0.00    +0.000 C 
ENDROOT
BRANCH   4   6
ATOM      6  C   UNL     1       2.101   5.781  19.320  0.00  0.00    +0.000 C 
ATOM      7  C   UNL     1       2.906   4.720  20.100  0.00  0.00    +0.000 C 
ATOM      8  C   UNL     1       4.385   4.693  19.713  0.00  0.00    +0.000 C 
ATOM      9  N   UNL     1       4.602   4.460  18.279  0.00  0.00    +0.000 NA
ATOM     10  C   UNL     1       3.784   5.350  17.433  0.00  0.00    +0.000 C 
ATOM     11  C   UNL     1       2.308   5.471  17.832  0.00  0.00    +0.000 C 
BRANCH   9  12
ATOM     12  C   UNL     1       6.027   4.652  17.916  0.00  0.00    +0.000 C 
BRANCH  12  13
ATOM     13  C   UNL     1       6.719   5.951  18.392  0.00  0.00    +0.000 C 
ATOM     14  C   UNL     1       7.899   5.677  19.323  0.00  0.00    +0.000 C 
ATOM     15  C   UNL     1       7.199   6.744  17.168  0.00  0.00    +0.000 C 
ENDBRANCH  12  13
ENDBRANCH   9  12
ENDBRANCH   4   6
BRANCH   1  16
ATOM     16  C   UNL     1       0.347  10.301  19.279  0.00  0.00    +0.000 C 
BRANCH  16  20
ATOM     17  C   UNL     1      -1.085  13.648  22.899  0.00  0.00    +0.000 C 
ATOM     18  C   UNL     1      -0.369  12.842  21.880  0.00  0.00    +0.000 A 
ATOM     19  C   UNL     1      -0.860  11.748  21.126  0.00  0.00    +0.000 A 
ATOM     20  C   UNL     1       0.181  11.381  20.301  0.00  0.00    +0.000 A 
ATOM     21  N   UNL     1       1.218  12.209  20.639  0.00  0.00    +0.000 N 
ATOM     22  N   UNL     1       0.904  13.118  21.577  0.00  0.00    +0.000 NA
ATOM     23  H   UNL     1       2.169  12.179  20.285  0.00  0.00    +0.000 HD
ENDBRANCH  16  20
ENDBRANCH   1  16
TORSDOF 5
ENDMDL
