MODEL 1
REMARK VINA RESULT:      -7.4      0.000      0.000
REMARK  Name = 
REMARK  4 active torsions:
REMARK  status: ('A' for Active; 'I' for Inactive)
REMARK    1  A    between atoms: S_2  and  C_4
REMARK    2  A    between atoms: S_2  and  C_10
REMARK    3  A    between atoms: N_13  and  S_14
REMARK    4  A    between atoms: S_14  and  C_17
REMARK                            x       y       z     vdW  Elec       q    Type
REMARK                         _______ _______ _______ _____ _____    ______ ____
ROOT
ATOM      1  C   UNL     1       5.707   4.271  17.110  0.00  0.00    +0.000 C 
ATOM      2  C   UNL     1       5.956   4.496  18.590  0.00  0.00    +0.000 C 
ATOM      3  C   UNL     1       4.954   3.562  19.241  0.00  0.00    +0.000 C 
ATOM      4  N   UNL     1       3.731   3.688  18.396  0.00  0.00    +0.000 NA
ATOM      5  C   UNL     1       4.224   3.919  16.997  0.00  0.00    +0.000 C 
ENDROOT
BRANCH   1   7
ATOM      6  O   UNL     1       7.362   6.238  16.503  0.00  0.00    +0.000 OA
ATOM      7  S   UNL     1       6.116   5.640  16.065  0.00  0.00    +0.000 S 
ATOM      8  O   UNL     1       4.923   6.457  15.950  0.00  0.00    +0.000 OA
BRANCH   7   9
ATOM      9  C   UNL     1       6.411   4.915  14.469  0.00  0.00    +0.000 A 
ATOM     10  C   UNL     1       5.515   3.971  13.962  0.00  0.00    +0.000 A 
ATOM     11  C   UNL     1       5.742   3.420  12.701  0.00  0.00    +0.000 A 
ATOM     12  C   UNL     1       6.854   3.814  11.955  0.00  0.00    +0.000 A 
ATOM     13  C   UNL     1       7.738   4.770  12.459  0.00  0.00    +0.000 A 
ATOM     14  C   UNL     1       7.514   5.332  13.714  0.00  0.00    +0.000 A 
ENDBRANCH   7   9
ENDBRANCH   1   7
BRANCH   4  15
ATOM     15  S   UNL     1       2.617   4.861  18.984  0.00  0.00    +0.000 S 
ATOM     16  O   UNL     1       3.216   5.448  20.165  0.00  0.00    +0.000 OA
ATOM     17  O   UNL     1       2.249   5.687  17.859  0.00  0.00    +0.000 OA
BRANCH  15  18
ATOM     18  C   UNL     1       1.094   3.999  19.482  0.00  0.00    +0.000 C 
ATOM     19  C   UNL     1       0.999   2.558  19.064  0.00  0.00    +0.000 C 
ATOM     20  C   UNL     1       1.297   2.903  20.498  0.00  0.00    +0.000 C 
ENDBRANCH  15  18
ENDBRANCH   4  15
TORSDOF 4
ENDMDL
MODEL 2
REMARK VINA RESULT:      -7.3      0.140      1.094
REMARK  Name = 
REMARK  4 active torsions:
REMARK  status: ('A' for Active; 'I' for Inactive)
REMARK    1  A    between atoms: S_2  and  C_4
REMARK    2  A    between atoms: S_2  and  C_10
REMARK    3  A    between atoms: N_13  and  S_14
REMARK    4  A    between atoms: S_14  and  C_17
REMARK                            x       y       z     vdW  Elec       q    Type
REMARK                         _______ _______ _______ _____ _____    ______ ____
ROOT
ATOM      1  C   UNL     1       5.720   4.303  17.080  0.00  0.00    +0.000 C 
ATOM      2  C   UNL     1       5.992   4.522  18.558  0.00  0.00    +0.000 C 
ATOM      3  C   UNL     1       4.995   3.591  19.221  0.00  0.00    +0.000 C 
ATOM      4  N   UNL     1       3.761   3.726  18.395  0.00  0.00    +0.000 NA
ATOM      5  C   UNL     1       4.234   3.959  16.989  0.00  0.00    +0.000 C 
ENDROOT
BRANCH   1   7
ATOM      6  O   UNL     1       7.372   6.267  16.459  0.00  0.00    +0.000 OA
ATOM      7  S   UNL     1       6.120   5.673  16.034  0.00  0.00    +0.000 S 
ATOM      8  O   UNL     1       4.927   6.493  15.935  0.00  0.00    +0.000 OA
BRANCH   7   9
ATOM      9  C   UNL     1       6.394   4.951  14.433  0.00  0.00    +0.000 A 
ATOM     10  C   UNL     1       7.519   5.321  13.691  0.00  0.00    +0.000 A 
ATOM     11  C   UNL     1       7.739   4.736  12.444  0.00  0.00    +0.000 A 
ATOM     12  C   UNL     1       6.842   3.788  11.947  0.00  0.00    +0.000 A 
ATOM     13  C   UNL     1       5.729   3.409  12.700  0.00  0.00    +0.000 A 
ATOM     14  C   UNL     1       5.507   3.983  13.951  0.00  0.00    +0.000 A 
ENDBRANCH   7   9
ENDBRANCH   1   7
BRANCH   4  15
ATOM     15  S   UNL     1       2.662   4.903  19.003  0.00  0.00    +0.000 S 
ATOM     16  O   UNL     1       3.273   5.470  20.187  0.00  0.00    +0.000 OA
ATOM     17  O   UNL     1       2.295   5.745  17.890  0.00  0.00    +0.000 OA
BRANCH  15  18
ATOM     18  C   UNL     1       1.133   4.050  19.500  0.00  0.00    +0.000 C 
ATOM     19  C   UNL     1       1.177   2.548  19.429  0.00  0.00    +0.000 C 
ATOM     20  C   UNL     1       1.251   3.237  20.765  0.00  0.00    +0.000 C 
ENDBRANCH  15  18
ENDBRANCH   4  15
TORSDOF 4
ENDMDL
MODEL 3
REMARK VINA RESULT:      -7.1      1.763      2.592
REMARK  Name = 
REMARK  4 active torsions:
REMARK  status: ('A' for Active; 'I' for Inactive)
REMARK    1  A    between atoms: S_2  and  C_4
REMARK    2  A    between atoms: S_2  and  C_10
REMARK    3  A    between atoms: N_13  and  S_14
REMARK    4  A    between atoms: S_14  and  C_17
REMARK                            x       y       z     vdW  Elec       q    Type
REMARK                         _______ _______ _______ _____ _____    ______ ____
ROOT
ATOM      1  C   UNL     1       5.254   6.034  18.326  0.00  0.00    +0.000 C 
ATOM      2  C   UNL     1       4.212   6.124  17.225  0.00  0.00    +0.000 C 
ATOM      3  C   UNL     1       2.911   5.934  17.982  0.00  0.00    +0.000 C 
ATOM      4  N   UNL     1       3.224   4.877  18.988  0.00  0.00    +0.000 NA
ATOM      5  C   UNL     1       4.660   5.087  19.368  0.00  0.00    +0.000 C 
ENDROOT
BRANCH   1   7
ATOM      6  O   UNL     1       7.267   4.348  18.605  0.00  0.00    +0.000 OA
ATOM      7  S   UNL     1       6.851   5.481  17.801  0.00  0.00    +0.000 S 
ATOM      8  O   UNL     1       7.698   6.655  17.712  0.00  0.00    +0.000 OA
BRANCH   7   9
ATOM      9  C   UNL     1       6.599   4.888  16.145  0.00  0.00    +0.000 A 
ATOM     10  C   UNL     1       7.335   5.440  15.093  0.00  0.00    +0.000 A 
ATOM     11  C   UNL     1       7.146   4.957  13.798  0.00  0.00    +0.000 A 
ATOM     12  C   UNL     1       6.232   3.929  13.560  0.00  0.00    +0.000 A 
ATOM     13  C   UNL     1       5.512   3.369  14.617  0.00  0.00    +0.000 A 
ATOM     14  C   UNL     1       5.700   3.840  15.915  0.00  0.00    +0.000 A 
ENDBRANCH   7   9
ENDBRANCH   1   7
BRANCH   4  15
ATOM     15  S   UNL     1       2.832   3.290  18.449  0.00  0.00    +0.000 S 
ATOM     16  O   UNL     1       2.086   3.441  17.217  0.00  0.00    +0.000 OA
ATOM     17  O   UNL     1       4.057   2.527  18.476  0.00  0.00    +0.000 OA
BRANCH  15  18
ATOM     18  C   UNL     1       1.745   2.521  19.688  0.00  0.00    +0.000 C 
ATOM     19  C   UNL     1       2.009   2.914  21.115  0.00  0.00    +0.000 C 
ATOM     20  C   UNL     1       0.817   3.481  20.391  0.00  0.00    +0.000 C 
ENDBRANCH  15  18
ENDBRANCH   4  15
TORSDOF 4
ENDMDL
MODEL 4
REMARK VINA RESULT:      -7.1      1.741      2.331
REMARK  Name = 
REMARK  4 active torsions:
REMARK  status: ('A' for Active; 'I' for Inactive)
REMARK    1  A    between atoms: S_2  and  C_4
REMARK    2  A    between atoms: S_2  and  C_10
REMARK    3  A    between atoms: N_13  and  S_14
REMARK    4  A    between atoms: S_14  and  C_17
REMARK                            x       y       z     vdW  Elec       q    Type
REMARK                         _______ _______ _______ _____ _____    ______ ____
ROOT
ATOM      1  C   UNL     1       5.398   6.040  18.219  0.00  0.00    +0.000 C 
ATOM      2  C   UNL     1       4.337   6.139  17.137  0.00  0.00    +0.000 C 
ATOM      3  C   UNL     1       3.047   5.996  17.923  0.00  0.00    +0.000 C 
ATOM      4  N   UNL     1       3.352   4.949  18.941  0.00  0.00    +0.000 NA
ATOM      5  C   UNL     1       4.801   5.128  19.289  0.00  0.00    +0.000 C 
ENDROOT
BRANCH   1   7
ATOM      6  O   UNL     1       7.376   4.312  18.494  0.00  0.00    +0.000 OA
ATOM      7  S   UNL     1       6.969   5.435  17.673  0.00  0.00    +0.000 S 
ATOM      8  O   UNL     1       7.842   6.586  17.537  0.00  0.00    +0.000 OA
BRANCH   7   9
ATOM      9  C   UNL     1       6.666   4.810  16.037  0.00  0.00    +0.000 A 
ATOM     10  C   UNL     1       5.708   3.810  15.845  0.00  0.00    +0.000 A 
ATOM     11  C   UNL     1       5.461   3.338  14.557  0.00  0.00    +0.000 A 
ATOM     12  C   UNL     1       6.164   3.864  13.470  0.00  0.00    +0.000 A 
ATOM     13  C   UNL     1       7.107   4.875  13.666  0.00  0.00    +0.000 A 
ATOM     14  C   UNL     1       7.354   5.358  14.949  0.00  0.00    +0.000 A 
ENDBRANCH   7   9
ENDBRANCH   1   7
BRANCH   4  15
ATOM     15  S   UNL     1       2.908   3.364  18.439  0.00  0.00    +0.000 S 
ATOM     16  O   UNL     1       2.236   3.504  17.163  0.00  0.00    +0.000 OA
ATOM     17  O   UNL     1       4.089   2.543  18.561  0.00  0.00    +0.000 OA
BRANCH  15  18
ATOM     18  C   UNL     1       1.718   2.697  19.643  0.00  0.00    +0.000 C 
ATOM     19  C   UNL     1       2.067   2.920  21.089  0.00  0.00    +0.000 C 
ATOM     20  C   UNL     1       0.985   3.744  20.445  0.00  0.00    +0.000 C 
ENDBRANCH  15  18
ENDBRANCH   4  15
TORSDOF 4
ENDMDL
MODEL 5
REMARK VINA RESULT:      -7.0      1.879      6.412
REMARK  Name = 
REMARK  4 active torsions:
REMARK  status: ('A' for Active; 'I' for Inactive)
REMARK    1  A    between atoms: S_2  and  C_4
REMARK    2  A    between atoms: S_2  and  C_10
REMARK    3  A    between atoms: N_13  and  S_14
REMARK    4  A    between atoms: S_14  and  C_17
REMARK                            x       y       z     vdW  Elec       q    Type
REMARK                         _______ _______ _______ _____ _____    ______ ____
ROOT
ATOM      1  C   UNL     1       4.434   5.795  18.641  0.00  0.00    +0.000 C 
ATOM      2  C   UNL     1       5.435   4.805  19.208  0.00  0.00    +0.000 C 
ATOM      3  C   UNL     1       6.760   5.514  18.997  0.00  0.00    +0.000 C 
ATOM      4  N   UNL     1       6.625   6.151  17.655  0.00  0.00    +0.000 NA
ATOM      5  C   UNL     1       5.178   6.529  17.526  0.00  0.00    +0.000 C 
ENDROOT
BRANCH   1   7
ATOM      6  O   UNL     1       3.229   4.149  16.964  0.00  0.00    +0.000 OA
ATOM      7  S   UNL     1       2.932   5.078  18.036  0.00  0.00    +0.000 S 
ATOM      8  O   UNL     1       2.002   6.168  17.813  0.00  0.00    +0.000 OA
BRANCH   7   9
ATOM      9  C   UNL     1       2.309   4.126  19.402  0.00  0.00    +0.000 A 
ATOM     10  C   UNL     1       1.565   2.969  19.156  0.00  0.00    +0.000 A 
ATOM     11  C   UNL     1       1.094   2.216  20.231  0.00  0.00    +0.000 A 
ATOM     12  C   UNL     1       1.369   2.617  21.541  0.00  0.00    +0.000 A 
ATOM     13  C   UNL     1       2.127   3.765  21.781  0.00  0.00    +0.000 A 
ATOM     14  C   UNL     1       2.608   4.518  20.711  0.00  0.00    +0.000 A 
ENDBRANCH   7   9
ENDBRANCH   1   7
BRANCH   4  15
ATOM     15  S   UNL     1       7.246   5.180  16.377  0.00  0.00    +0.000 S 
ATOM     16  O   UNL     1       7.771   6.089  15.380  0.00  0.00    +0.000 OA
ATOM     17  O   UNL     1       8.097   4.185  16.985  0.00  0.00    +0.000 OA
BRANCH  15  18
ATOM     18  C   UNL     1       5.861   4.258  15.639  0.00  0.00    +0.000 C 
ATOM     19  C   UNL     1       5.314   4.826  14.359  0.00  0.00    +0.000 C 
ATOM     20  C   UNL     1       6.179   3.595  14.322  0.00  0.00    +0.000 C 
ENDBRANCH  15  18
ENDBRANCH   4  15
TORSDOF 4
ENDMDL
MODEL 6
REMARK VINA RESULT:      -7.0      1.896      6.451
REMARK  Name = 
REMARK  4 active torsions:
REMARK  status: ('A' for Active; 'I' for Inactive)
REMARK    1  A    between atoms: S_2  and  C_4
REMARK    2  A    between atoms: S_2  and  C_10
REMARK    3  A    between atoms: N_13  and  S_14
REMARK    4  A    between atoms: S_14  and  C_17
REMARK                            x       y       z     vdW  Elec       q    Type
REMARK                         _______ _______ _______ _____ _____    ______ ____
ROOT
ATOM      1  C   UNL     1       4.449   5.875  18.649  0.00  0.00    +0.000 C 
ATOM      2  C   UNL     1       5.435   4.873  19.223  0.00  0.00    +0.000 C 
ATOM      3  C   UNL     1       6.771   5.558  19.004  0.00  0.00    +0.000 C 
ATOM      4  N   UNL     1       6.644   6.187  17.657  0.00  0.00    +0.000 NA
ATOM      5  C   UNL     1       5.203   6.587  17.527  0.00  0.00    +0.000 C 
ENDROOT
BRANCH   1   7
ATOM      6  O   UNL     1       3.206   4.300  16.933  0.00  0.00    +0.000 OA
ATOM      7  S   UNL     1       2.935   5.177  18.054  0.00  0.00    +0.000 S 
ATOM      8  O   UNL     1       1.994   6.271  17.906  0.00  0.00    +0.000 OA
BRANCH   7   9
ATOM      9  C   UNL     1       2.352   4.161  19.391  0.00  0.00    +0.000 A 
ATOM     10  C   UNL     1       2.486   4.608  20.708  0.00  0.00    +0.000 A 
ATOM     11  C   UNL     1       2.010   3.815  21.752  0.00  0.00    +0.000 A 
ATOM     12  C   UNL     1       1.402   2.587  21.477  0.00  0.00    +0.000 A 
ATOM     13  C   UNL     1       1.256   2.154  20.159  0.00  0.00    +0.000 A 
ATOM     14  C   UNL     1       1.722   2.944  19.109  0.00  0.00    +0.000 A 
ENDBRANCH   7   9
ENDBRANCH   1   7
BRANCH   4  15
ATOM     15  S   UNL     1       7.246   5.195  16.386  0.00  0.00    +0.000 S 
ATOM     16  O   UNL     1       7.805   6.087  15.391  0.00  0.00    +0.000 OA
ATOM     17  O   UNL     1       8.063   4.177  17.003  0.00  0.00    +0.000 OA
BRANCH  15  18
ATOM     18  C   UNL     1       5.841   4.312  15.639  0.00  0.00    +0.000 C 
ATOM     19  C   UNL     1       5.352   4.864  14.329  0.00  0.00    +0.000 C 
ATOM     20  C   UNL     1       6.163   3.596  14.351  0.00  0.00    +0.000 C 
ENDBRANCH  15  18
ENDBRANCH   4  15
TORSDOF 4
ENDMDL
MODEL 7
REMARK VINA RESULT:      -7.0      1.417      2.041
REMARK  Name = 
REMARK  4 active torsions:
REMARK  status: ('A' for Active; 'I' for Inactive)
REMARK    1  A    between atoms: S_2  and  C_4
REMARK    2  A    between atoms: S_2  and  C_10
REMARK    3  A    between atoms: N_13  and  S_14
REMARK    4  A    between atoms: S_14  and  C_17
REMARK                            x       y       z     vdW  Elec       q    Type
REMARK                         _______ _______ _______ _____ _____    ______ ____
ROOT
ATOM      1  C   UNL     1       4.367   5.016  16.396  0.00  0.00    +0.000 C 
ATOM      2  C   UNL     1       3.913   3.651  16.882  0.00  0.00    +0.000 C 
ATOM      3  C   UNL     1       2.561   3.952  17.502  0.00  0.00    +0.000 C 
ATOM      4  N   UNL     1       2.760   5.254  18.202  0.00  0.00    +0.000 NA
ATOM      5  C   UNL     1       3.748   6.018  17.370  0.00  0.00    +0.000 C 
ENDROOT
BRANCH   1   7
ATOM      6  O   UNL     1       6.784   4.253  17.138  0.00  0.00    +0.000 OA
ATOM      7  S   UNL     1       6.122   5.229  16.296  0.00  0.00    +0.000 S 
ATOM      8  O   UNL     1       6.388   6.642  16.480  0.00  0.00    +0.000 OA
BRANCH   7   9
ATOM      9  C   UNL     1       6.526   4.833  14.611  0.00  0.00    +0.000 A 
ATOM     10  C   UNL     1       7.593   5.482  13.985  0.00  0.00    +0.000 A 
ATOM     11  C   UNL     1       7.917   5.154  12.669  0.00  0.00    +0.000 A 
ATOM     12  C   UNL     1       7.182   4.181  11.988  0.00  0.00    +0.000 A 
ATOM     13  C   UNL     1       6.128   3.522  12.625  0.00  0.00    +0.000 A 
ATOM     14  C   UNL     1       5.802   3.839  13.942  0.00  0.00    +0.000 A 
ENDBRANCH   7   9
ENDBRANCH   1   7
BRANCH   4  15
ATOM     15  S   UNL     1       3.183   5.075  19.861  0.00  0.00    +0.000 S 
ATOM     16  O   UNL     1       4.625   5.182  19.937  0.00  0.00    +0.000 OA
ATOM     17  O   UNL     1       2.339   5.978  20.606  0.00  0.00    +0.000 OA
BRANCH  15  18
ATOM     18  C   UNL     1       2.703   3.401  20.392  0.00  0.00    +0.000 C 
ATOM     19  C   UNL     1       2.172   3.295  21.795  0.00  0.00    +0.000 C 
ATOM     20  C   UNL     1       1.225   3.218  20.628  0.00  0.00    +0.000 C 
ENDBRANCH  15  18
ENDBRANCH   4  15
TORSDOF 4
ENDMDL
MODEL 8
REMARK VINA RESULT:      -6.9      1.363      1.657
REMARK  Name = 
REMARK  4 active torsions:
REMARK  status: ('A' for Active; 'I' for Inactive)
REMARK    1  A    between atoms: S_2  and  C_4
REMARK    2  A    between atoms: S_2  and  C_10
REMARK    3  A    between atoms: N_13  and  S_14
REMARK    4  A    between atoms: S_14  and  C_17
REMARK                            x       y       z     vdW  Elec       q    Type
REMARK                         _______ _______ _______ _____ _____    ______ ____
ROOT
ATOM      1  C   UNL     1       4.405   4.600  16.419  0.00  0.00    +0.000 C 
ATOM      2  C   UNL     1       4.177   3.237  17.049  0.00  0.00    +0.000 C 
ATOM      3  C   UNL     1       2.787   3.373  17.641  0.00  0.00    +0.000 C 
ATOM      4  N   UNL     1       2.760   4.757  18.199  0.00  0.00    +0.000 NA
ATOM      5  C   UNL     1       3.618   5.582  17.285  0.00  0.00    +0.000 C 
ENDROOT
BRANCH   1   7
ATOM      6  O   UNL     1       6.923   4.246  17.133  0.00  0.00    +0.000 OA
ATOM      7  S   UNL     1       6.101   5.088  16.286  0.00  0.00    +0.000 S 
ATOM      8  O   UNL     1       6.140   6.530  16.443  0.00  0.00    +0.000 OA
BRANCH   7   9
ATOM      9  C   UNL     1       6.541   4.731  14.602  0.00  0.00    +0.000 A 
ATOM     10  C   UNL     1       5.793   3.801  13.874  0.00  0.00    +0.000 A 
ATOM     11  C   UNL     1       6.131   3.540  12.547  0.00  0.00    +0.000 A 
ATOM     12  C   UNL     1       7.206   4.206  11.953  0.00  0.00    +0.000 A 
ATOM     13  C   UNL     1       7.939   5.146  12.679  0.00  0.00    +0.000 A 
ATOM     14  C   UNL     1       7.602   5.420  14.004  0.00  0.00    +0.000 A 
ENDBRANCH   7   9
ENDBRANCH   1   7
BRANCH   4  15
ATOM     15  S   UNL     1       3.187   4.825  19.865  0.00  0.00    +0.000 S 
ATOM     16  O   UNL     1       4.613   5.071  19.919  0.00  0.00    +0.000 OA
ATOM     17  O   UNL     1       2.260   5.734  20.496  0.00  0.00    +0.000 OA
BRANCH  15  18
ATOM     18  C   UNL     1       2.857   3.195  20.604  0.00  0.00    +0.000 C 
ATOM     19  C   UNL     1       2.151   3.217  21.931  0.00  0.00    +0.000 C 
ATOM     20  C   UNL     1       1.396   2.828  20.688  0.00  0.00    +0.000 C 
ENDBRANCH  15  18
ENDBRANCH   4  15
TORSDOF 4
ENDMDL
MODEL 9
REMARK VINA RESULT:      -6.9      1.712      2.143
REMARK  Name = 
REMARK  4 active torsions:
REMARK  status: ('A' for Active; 'I' for Inactive)
REMARK    1  A    between atoms: S_2  and  C_4
REMARK    2  A    between atoms: S_2  and  C_10
REMARK    3  A    between atoms: N_13  and  S_14
REMARK    4  A    between atoms: S_14  and  C_17
REMARK                            x       y       z     vdW  Elec       q    Type
REMARK                         _______ _______ _______ _____ _____    ______ ____
ROOT
ATOM      1  C   UNL     1       4.710   5.056  16.713  0.00  0.00    +0.000 C 
ATOM      2  C   UNL     1       4.112   3.734  16.265  0.00  0.00    +0.000 C 
ATOM      3  C   UNL     1       2.906   3.590  17.175  0.00  0.00    +0.000 C 
ATOM      4  N   UNL     1       3.386   4.080  18.500  0.00  0.00    +0.000 NA
ATOM      5  C   UNL     1       4.374   5.169  18.199  0.00  0.00    +0.000 C 
ENDROOT
BRANCH   1   7
ATOM      6  O   UNL     1       7.165   4.228  17.222  0.00  0.00    +0.000 OA
ATOM      7  S   UNL     1       6.452   5.219  16.441  0.00  0.00    +0.000 S 
ATOM      8  O   UNL     1       6.773   6.625  16.589  0.00  0.00    +0.000 OA
BRANCH   7   9
ATOM      9  C   UNL     1       6.680   4.805  14.728  0.00  0.00    +0.000 A 
ATOM     10  C   UNL     1       5.859   3.842  14.134  0.00  0.00    +0.000 A 
ATOM     11  C   UNL     1       6.030   3.535  12.784  0.00  0.00    +0.000 A 
ATOM     12  C   UNL     1       7.012   4.189  12.036  0.00  0.00    +0.000 A 
ATOM     13  C   UNL     1       7.817   5.162  12.631  0.00  0.00    +0.000 A 
ATOM     14  C   UNL     1       7.648   5.480  13.977  0.00  0.00    +0.000 A 
ENDBRANCH   7   9
ENDBRANCH   1   7
BRANCH   4  15
ATOM     15  S   UNL     1       3.971   2.821  19.518  0.00  0.00    +0.000 S 
ATOM     16  O   UNL     1       3.709   1.574  18.830  0.00  0.00    +0.000 OA
ATOM     17  O   UNL     1       5.316   3.182  19.897  0.00  0.00    +0.000 OA
BRANCH  15  18
ATOM     18  C   UNL     1       3.003   2.840  21.059  0.00  0.00    +0.000 C 
ATOM     19  C   UNL     1       2.124   4.043  21.256  0.00  0.00    +0.000 C 
ATOM     20  C   UNL     1       1.512   2.726  20.864  0.00  0.00    +0.000 C 
ENDBRANCH  15  18
ENDBRANCH   4  15
TORSDOF 4
ENDMDL
