MODEL 1
REMARK VINA RESULT:      -8.6      0.000      0.000
REMARK  Name = 
REMARK  6 active torsions:
REMARK  status: ('A' for Active; 'I' for Inactive)
REMARK    1  A    between atoms: C_1  and  O_2
REMARK    2  A    between atoms: O_2  and  C_3
REMARK    3  A    between atoms: C_12  and  C_13
REMARK    4  A    between atoms: N_15  and  C_16
REMARK    5  A    between atoms: C_19  and  N_20
REMARK    6  A    between atoms: C_21  and  C_23
REMARK                            x       y       z     vdW  Elec       q    Type
REMARK                         _______ _______ _______ _____ _____    ______ ____
ROOT
ATOM      1  C   UNL     1       1.798   8.154  19.411  0.00  0.00    +0.000 C 
ATOM      2  O   UNL     1       1.445   8.969  18.559  0.00  0.00    +0.000 OA
ATOM      3  N   UNL     1       1.566   8.297  20.770  0.00  0.00    +0.000 N 
ATOM      4  H   UNL     1       2.026   7.634  21.388  0.00  0.00    +0.000 HD
ENDROOT
BRANCH   1  14
ATOM      5  C   UNL     1       2.554   5.681  19.471  0.00  0.00    +0.000 A 
ATOM      6  C   UNL     1       3.404   4.702  18.927  0.00  0.00    +0.000 A 
ATOM      7  C   UNL     1       4.234   4.968  17.821  0.00  0.00    +0.000 A 
ATOM      8  C   UNL     1       5.080   3.987  17.280  0.00  0.00    +0.000 A 
ATOM      9  C   UNL     1       5.881   4.270  16.171  0.00  0.00    +0.000 A 
ATOM     10  C   UNL     1       5.843   5.533  15.587  0.00  0.00    +0.000 A 
ATOM     11  C   UNL     1       5.013   6.518  16.119  0.00  0.00    +0.000 A 
ATOM     12  C   UNL     1       4.211   6.244  17.238  0.00  0.00    +0.000 A 
ATOM     13  C   UNL     1       3.393   7.230  17.799  0.00  0.00    +0.000 A 
ATOM     14  C   UNL     1       2.578   6.973  18.925  0.00  0.00    +0.000 A 
BRANCH   5  16
ATOM     15  C   UNL     1       1.217   4.086  20.606  0.00  0.00    +0.000 C 
ATOM     16  O   UNL     1       1.727   5.421  20.538  0.00  0.00    +0.000 OA
ENDBRANCH   5  16
ENDBRANCH   1  14
BRANCH   3  17
ATOM     17  C   UNL     1       0.806   9.338  21.354  0.00  0.00    +0.000 A 
ATOM     18  C   UNL     1       0.718  10.607  20.783  0.00  0.00    +0.000 A 
ATOM     19  C   UNL     1      -0.057  11.615  21.357  0.00  0.00    +0.000 A 
ATOM     20  C   UNL     1      -0.786  11.380  22.515  0.00  0.00    +0.000 A 
ATOM     21  C   UNL     1      -0.689  10.116  23.115  0.00  0.00    +0.000 A 
ATOM     22  C   UNL     1       0.087   9.097  22.529  0.00  0.00    +0.000 A 
BRANCH  20  23
ATOM     23  N   UNL     1      -1.648  12.340  23.087  0.00  0.00    +0.000 N 
ATOM     24  C   UNL     1      -1.354  13.671  23.361  0.00  0.00    +0.000 C 
ATOM     25  O   UNL     1      -0.248  14.184  23.225  0.00  0.00    +0.000 OA
ATOM     26  H   UNL     1      -2.604  12.056  23.256  0.00  0.00    +0.000 HD
BRANCH  24  27
ATOM     27  C   UNL     1      -2.482  14.483  23.812  0.00  0.00    +0.000 A 
ATOM     28  C   UNL     1      -2.406  15.565  24.672  0.00  0.00    +0.000 A 
ATOM     29  C   UNL     1      -3.670  16.175  24.903  0.00  0.00    +0.000 A 
ATOM     30  C   UNL     1      -4.676  15.539  24.211  0.00  0.00    +0.000 A 
ATOM     31  S   UNL     1      -4.094  14.214  23.301  0.00  0.00    +0.000 S 
ENDBRANCH  24  27
ENDBRANCH  20  23
ENDBRANCH   3  17
TORSDOF 5
ENDMDL
MODEL 2
REMARK VINA RESULT:      -8.5      0.801      1.205
REMARK  Name = 
REMARK  6 active torsions:
REMARK  status: ('A' for Active; 'I' for Inactive)
REMARK    1  A    between atoms: C_1  and  O_2
REMARK    2  A    between atoms: O_2  and  C_3
REMARK    3  A    between atoms: C_12  and  C_13
REMARK    4  A    between atoms: N_15  and  C_16
REMARK    5  A    between atoms: C_19  and  N_20
REMARK    6  A    between atoms: C_21  and  C_23
REMARK                            x       y       z     vdW  Elec       q    Type
REMARK                         _______ _______ _______ _____ _____    ______ ____
ROOT
ATOM      1  C   UNL     1       1.831   8.154  19.337  0.00  0.00    +0.000 C 
ATOM      2  O   UNL     1       1.590   9.029  18.505  0.00  0.00    +0.000 OA
ATOM      3  N   UNL     1       1.519   8.251  20.684  0.00  0.00    +0.000 N 
ATOM      4  H   UNL     1       1.892   7.532  21.297  0.00  0.00    +0.000 HD
ENDROOT
BRANCH   1  14
ATOM      5  C   UNL     1       2.464   5.646  19.364  0.00  0.00    +0.000 A 
ATOM      6  C   UNL     1       3.276   4.636  18.819  0.00  0.00    +0.000 A 
ATOM      7  C   UNL     1       4.140   4.882  17.735  0.00  0.00    +0.000 A 
ATOM      8  C   UNL     1       4.949   3.870  17.191  0.00  0.00    +0.000 A 
ATOM      9  C   UNL     1       5.785   4.133  16.104  0.00  0.00    +0.000 A 
ATOM     10  C   UNL     1       5.821   5.407  15.544  0.00  0.00    +0.000 A 
ATOM     11  C   UNL     1       5.030   6.422  16.078  0.00  0.00    +0.000 A 
ATOM     12  C   UNL     1       4.192   6.168  17.176  0.00  0.00    +0.000 A 
ATOM     13  C   UNL     1       3.412   7.182  17.739  0.00  0.00    +0.000 A 
ATOM     14  C   UNL     1       2.563   6.945  18.844  0.00  0.00    +0.000 A 
BRANCH   5  16
ATOM     15  C   UNL     1       1.567   4.056  20.876  0.00  0.00    +0.000 C 
ATOM     16  O   UNL     1       1.603   5.408  20.409  0.00  0.00    +0.000 OA
ENDBRANCH   5  16
ENDBRANCH   1  14
BRANCH   3  17
ATOM     17  C   UNL     1       0.792   9.315  21.269  0.00  0.00    +0.000 A 
ATOM     18  C   UNL     1       0.015   9.145  22.415  0.00  0.00    +0.000 A 
ATOM     19  C   UNL     1      -0.675  10.210  22.995  0.00  0.00    +0.000 A 
ATOM     20  C   UNL     1      -0.597  11.487  22.455  0.00  0.00    +0.000 A 
ATOM     21  C   UNL     1       0.159  11.669  21.289  0.00  0.00    +0.000 A 
ATOM     22  C   UNL     1       0.863  10.595  20.710  0.00  0.00    +0.000 A 
BRANCH  20  23
ATOM     23  N   UNL     1      -1.209  12.610  23.051  0.00  0.00    +0.000 N 
ATOM     24  C   UNL     1      -2.494  13.088  22.814  0.00  0.00    +0.000 C 
ATOM     25  O   UNL     1      -3.258  12.642  21.964  0.00  0.00    +0.000 OA
ATOM     26  H   UNL     1      -0.691  13.084  23.779  0.00  0.00    +0.000 HD
BRANCH  24  27
ATOM     27  C   UNL     1      -2.928  14.180  23.683  0.00  0.00    +0.000 A 
ATOM     28  C   UNL     1      -2.133  14.850  24.596  0.00  0.00    +0.000 A 
ATOM     29  C   UNL     1      -2.829  15.887  25.276  0.00  0.00    +0.000 A 
ATOM     30  C   UNL     1      -4.138  15.978  24.860  0.00  0.00    +0.000 A 
ATOM     31  S   UNL     1      -4.518  14.813  23.668  0.00  0.00    +0.000 S 
ENDBRANCH  24  27
ENDBRANCH  20  23
ENDBRANCH   3  17
TORSDOF 5
ENDMDL
MODEL 3
REMARK VINA RESULT:      -8.3      1.365      1.835
REMARK  Name = 
REMARK  6 active torsions:
REMARK  status: ('A' for Active; 'I' for Inactive)
REMARK    1  A    between atoms: C_1  and  O_2
REMARK    2  A    between atoms: O_2  and  C_3
REMARK    3  A    between atoms: C_12  and  C_13
REMARK    4  A    between atoms: N_15  and  C_16
REMARK    5  A    between atoms: C_19  and  N_20
REMARK    6  A    between atoms: C_21  and  C_23
REMARK                            x       y       z     vdW  Elec       q    Type
REMARK                         _______ _______ _______ _____ _____    ______ ____
ROOT
ATOM      1  C   UNL     1       2.090   6.521  19.528  0.00  0.00    +0.000 C 
ATOM      2  O   UNL     1       1.634   5.893  20.482  0.00  0.00    +0.000 OA
ATOM      3  N   UNL     1       1.847   7.865  19.291  0.00  0.00    +0.000 N 
ATOM      4  H   UNL     1       2.158   8.240  18.399  0.00  0.00    +0.000 HD
ENDROOT
BRANCH   1  14
ATOM      5  C   UNL     1       2.539   4.536  17.931  0.00  0.00    +0.000 A 
ATOM      6  C   UNL     1       3.459   3.905  17.075  0.00  0.00    +0.000 A 
ATOM      7  C   UNL     1       4.710   4.478  16.776  0.00  0.00    +0.000 A 
ATOM      8  C   UNL     1       5.626   3.846  15.919  0.00  0.00    +0.000 A 
ATOM      9  C   UNL     1       6.853   4.442  15.623  0.00  0.00    +0.000 A 
ATOM     10  C   UNL     1       7.179   5.678  16.174  0.00  0.00    +0.000 A 
ATOM     11  C   UNL     1       6.283   6.313  17.032  0.00  0.00    +0.000 A 
ATOM     12  C   UNL     1       5.050   5.717  17.341  0.00  0.00    +0.000 A 
ATOM     13  C   UNL     1       4.152   6.328  18.220  0.00  0.00    +0.000 A 
ATOM     14  C   UNL     1       2.906   5.744  18.543  0.00  0.00    +0.000 A 
BRANCH   5  16
ATOM     15  C   UNL     1       1.337   2.715  18.855  0.00  0.00    +0.000 C 
ATOM     16  O   UNL     1       1.308   3.992  18.211  0.00  0.00    +0.000 OA
ENDBRANCH   5  16
ENDBRANCH   1  14
BRANCH   3  17
ATOM     17  C   UNL     1       1.134   8.722  20.163  0.00  0.00    +0.000 A 
ATOM     18  C   UNL     1       1.292   8.676  21.547  0.00  0.00    +0.000 A 
ATOM     19  C   UNL     1       0.602   9.545  22.392  0.00  0.00    +0.000 A 
ATOM     20  C   UNL     1      -0.260  10.504  21.875  0.00  0.00    +0.000 A 
ATOM     21  C   UNL     1      -0.449  10.547  20.487  0.00  0.00    +0.000 A 
ATOM     22  C   UNL     1       0.256   9.674  19.635  0.00  0.00    +0.000 A 
BRANCH  20  23
ATOM     23  N   UNL     1      -0.918  11.458  22.681  0.00  0.00    +0.000 N 
ATOM     24  C   UNL     1      -0.693  12.831  22.703  0.00  0.00    +0.000 C 
ATOM     25  O   UNL     1       0.193  13.404  22.078  0.00  0.00    +0.000 OA
ATOM     26  H   UNL     1      -1.680  11.128  23.256  0.00  0.00    +0.000 HD
BRANCH  24  27
ATOM     27  C   UNL     1      -1.623  13.606  23.522  0.00  0.00    +0.000 A 
ATOM     28  C   UNL     1      -1.303  14.730  24.262  0.00  0.00    +0.000 A 
ATOM     29  C   UNL     1      -2.427  15.286  24.933  0.00  0.00    +0.000 A 
ATOM     30  C   UNL     1      -3.575  14.568  24.685  0.00  0.00    +0.000 A 
ATOM     31  S   UNL     1      -3.288  13.231  23.658  0.00  0.00    +0.000 S 
ENDBRANCH  24  27
ENDBRANCH  20  23
ENDBRANCH   3  17
TORSDOF 5
ENDMDL
MODEL 4
REMARK VINA RESULT:      -8.2      1.442      1.811
REMARK  Name = 
REMARK  6 active torsions:
REMARK  status: ('A' for Active; 'I' for Inactive)
REMARK    1  A    between atoms: C_1  and  O_2
REMARK    2  A    between atoms: O_2  and  C_3
REMARK    3  A    between atoms: C_12  and  C_13
REMARK    4  A    between atoms: N_15  and  C_16
REMARK    5  A    between atoms: C_19  and  N_20
REMARK    6  A    between atoms: C_21  and  C_23
REMARK                            x       y       z     vdW  Elec       q    Type
REMARK                         _______ _______ _______ _____ _____    ______ ____
ROOT
ATOM      1  C   UNL     1       2.225   6.733  19.399  0.00  0.00    +0.000 C 
ATOM      2  O   UNL     1       1.878   6.206  20.455  0.00  0.00    +0.000 OA
ATOM      3  N   UNL     1       1.892   8.026  19.027  0.00  0.00    +0.000 N 
ATOM      4  H   UNL     1       2.113   8.304  18.075  0.00  0.00    +0.000 HD
ENDROOT
BRANCH   1  14
ATOM      5  C   UNL     1       2.589   4.656  17.900  0.00  0.00    +0.000 A 
ATOM      6  C   UNL     1       3.479   3.951  17.070  0.00  0.00    +0.000 A 
ATOM      7  C   UNL     1       4.745   4.465  16.732  0.00  0.00    +0.000 A 
ATOM      8  C   UNL     1       5.631   3.759  15.901  0.00  0.00    +0.000 A 
ATOM      9  C   UNL     1       6.875   4.297  15.565  0.00  0.00    +0.000 A 
ATOM     10  C   UNL     1       7.248   5.546  16.050  0.00  0.00    +0.000 A 
ATOM     11  C   UNL     1       6.383   6.254  16.882  0.00  0.00    +0.000 A 
ATOM     12  C   UNL     1       5.134   5.717  17.231  0.00  0.00    +0.000 A 
ATOM     13  C   UNL     1       4.266   6.403  18.086  0.00  0.00    +0.000 A 
ATOM     14  C   UNL     1       3.004   5.879  18.447  0.00  0.00    +0.000 A 
BRANCH   5  16
ATOM     15  C   UNL     1       1.331   2.879  18.836  0.00  0.00    +0.000 C 
ATOM     16  O   UNL     1       1.344   4.170  18.218  0.00  0.00    +0.000 OA
ENDBRANCH   5  16
ENDBRANCH   1  14
BRANCH   3  17
ATOM     17  C   UNL     1       1.202   8.950  19.848  0.00  0.00    +0.000 A 
ATOM     18  C   UNL     1       0.538  10.059  19.326  0.00  0.00    +0.000 A 
ATOM     19  C   UNL     1      -0.160  10.946  20.147  0.00  0.00    +0.000 A 
ATOM     20  C   UNL     1      -0.230  10.741  21.519  0.00  0.00    +0.000 A 
ATOM     21  C   UNL     1       0.454   9.644  22.061  0.00  0.00    +0.000 A 
ATOM     22  C   UNL     1       1.150   8.745  21.230  0.00  0.00    +0.000 A 
BRANCH  20  23
ATOM     23  N   UNL     1      -0.991  11.562  22.379  0.00  0.00    +0.000 N 
ATOM     24  C   UNL     1      -0.727  12.883  22.725  0.00  0.00    +0.000 C 
ATOM     25  O   UNL     1       0.279  13.503  22.396  0.00  0.00    +0.000 OA
ATOM     26  H   UNL     1      -1.857  11.179  22.731  0.00  0.00    +0.000 HD
BRANCH  24  27
ATOM     27  C   UNL     1      -1.764  13.544  23.514  0.00  0.00    +0.000 A 
ATOM     28  C   UNL     1      -3.066  13.102  23.669  0.00  0.00    +0.000 A 
ATOM     29  C   UNL     1      -3.835  13.941  24.522  0.00  0.00    +0.000 A 
ATOM     30  C   UNL     1      -3.095  15.002  24.994  0.00  0.00    +0.000 A 
ATOM     31  S   UNL     1      -1.492  14.983  24.401  0.00  0.00    +0.000 S 
ENDBRANCH  24  27
ENDBRANCH  20  23
ENDBRANCH   3  17
TORSDOF 5
ENDMDL
MODEL 5
REMARK VINA RESULT:      -8.1      1.333      1.656
REMARK  Name = 
REMARK  6 active torsions:
REMARK  status: ('A' for Active; 'I' for Inactive)
REMARK    1  A    between atoms: C_1  and  O_2
REMARK    2  A    between atoms: O_2  and  C_3
REMARK    3  A    between atoms: C_12  and  C_13
REMARK    4  A    between atoms: N_15  and  C_16
REMARK    5  A    between atoms: C_19  and  N_20
REMARK    6  A    between atoms: C_21  and  C_23
REMARK                            x       y       z     vdW  Elec       q    Type
REMARK                         _______ _______ _______ _____ _____    ______ ____
ROOT
ATOM      1  C   UNL     1       2.209   6.360  19.637  0.00  0.00    +0.000 C 
ATOM      2  O   UNL     1       1.749   5.837  20.651  0.00  0.00    +0.000 OA
ATOM      3  N   UNL     1       1.988   7.678  19.271  0.00  0.00    +0.000 N 
ATOM      4  H   UNL     1       2.299   7.958  18.345  0.00  0.00    +0.000 HD
ENDROOT
BRANCH   1  14
ATOM      5  C   UNL     1       3.009   4.072  18.732  0.00  0.00    +0.000 A 
ATOM      6  C   UNL     1       3.870   3.397  17.849  0.00  0.00    +0.000 A 
ATOM      7  C   UNL     1       4.682   4.088  16.930  0.00  0.00    +0.000 A 
ATOM      8  C   UNL     1       5.540   3.410  16.048  0.00  0.00    +0.000 A 
ATOM      9  C   UNL     1       6.323   4.117  15.132  0.00  0.00    +0.000 A 
ATOM     10  C   UNL     1       6.257   5.506  15.083  0.00  0.00    +0.000 A 
ATOM     11  C   UNL     1       5.416   6.191  15.957  0.00  0.00    +0.000 A 
ATOM     12  C   UNL     1       4.631   5.490  16.886  0.00  0.00    +0.000 A 
ATOM     13  C   UNL     1       3.802   6.164  17.788  0.00  0.00    +0.000 A 
ATOM     14  C   UNL     1       3.005   5.475  18.729  0.00  0.00    +0.000 A 
BRANCH   5  16
ATOM     15  C   UNL     1       1.141   2.643  19.026  0.00  0.00    +0.000 C 
ATOM     16  O   UNL     1       2.199   3.403  19.618  0.00  0.00    +0.000 OA
ENDBRANCH   5  16
ENDBRANCH   1  14
BRANCH   3  17
ATOM     17  C   UNL     1       1.295   8.629  20.058  0.00  0.00    +0.000 A 
ATOM     18  C   UNL     1       0.607   9.704  19.494  0.00  0.00    +0.000 A 
ATOM     19  C   UNL     1      -0.093  10.618  20.282  0.00  0.00    +0.000 A 
ATOM     20  C   UNL     1      -0.141  10.476  21.663  0.00  0.00    +0.000 A 
ATOM     21  C   UNL     1       0.566   9.415  22.246  0.00  0.00    +0.000 A 
ATOM     22  C   UNL     1       1.264   8.488  21.448  0.00  0.00    +0.000 A 
BRANCH  20  23
ATOM     23  N   UNL     1      -0.902  11.325  22.495  0.00  0.00    +0.000 N 
ATOM     24  C   UNL     1      -0.764  12.702  22.636  0.00  0.00    +0.000 C 
ATOM     25  O   UNL     1       0.121  13.372  22.114  0.00  0.00    +0.000 OA
ATOM     26  H   UNL     1      -1.677  10.907  22.992  0.00  0.00    +0.000 HD
BRANCH  24  27
ATOM     27  C   UNL     1      -1.787  13.355  23.450  0.00  0.00    +0.000 A 
ATOM     28  C   UNL     1      -1.609  14.505  24.200  0.00  0.00    +0.000 A 
ATOM     29  C   UNL     1      -2.798  14.919  24.862  0.00  0.00    +0.000 A 
ATOM     30  C   UNL     1      -3.849  14.071  24.599  0.00  0.00    +0.000 A 
ATOM     31  S   UNL     1      -3.396  12.785  23.567  0.00  0.00    +0.000 S 
ENDBRANCH  24  27
ENDBRANCH  20  23
ENDBRANCH   3  17
TORSDOF 5
ENDMDL
MODEL 6
REMARK VINA RESULT:      -7.9      1.366      1.555
REMARK  Name = 
REMARK  6 active torsions:
REMARK  status: ('A' for Active; 'I' for Inactive)
REMARK    1  A    between atoms: C_1  and  O_2
REMARK    2  A    between atoms: O_2  and  C_3
REMARK    3  A    between atoms: C_12  and  C_13
REMARK    4  A    between atoms: N_15  and  C_16
REMARK    5  A    between atoms: C_19  and  N_20
REMARK    6  A    between atoms: C_21  and  C_23
REMARK                            x       y       z     vdW  Elec       q    Type
REMARK                         _______ _______ _______ _____ _____    ______ ____
ROOT
ATOM      1  C   UNL     1       1.991   8.548  18.597  0.00  0.00    +0.000 C 
ATOM      2  O   UNL     1       2.027   9.419  17.728  0.00  0.00    +0.000 OA
ATOM      3  N   UNL     1       1.323   8.679  19.804  0.00  0.00    +0.000 N 
ATOM      4  H   UNL     1       1.481   7.955  20.499  0.00  0.00    +0.000 HD
ENDROOT
BRANCH   1  14
ATOM      5  C   UNL     1       2.738   6.120  19.082  0.00  0.00    +0.000 A 
ATOM      6  C   UNL     1       3.598   5.065  18.727  0.00  0.00    +0.000 A 
ATOM      7  C   UNL     1       4.453   5.146  17.612  0.00  0.00    +0.000 A 
ATOM      8  C   UNL     1       5.309   4.089  17.260  0.00  0.00    +0.000 A 
ATOM      9  C   UNL     1       6.136   4.186  16.138  0.00  0.00    +0.000 A 
ATOM     10  C   UNL     1       6.115   5.335  15.353  0.00  0.00    +0.000 A 
ATOM     11  C   UNL     1       5.276   6.393  15.695  0.00  0.00    +0.000 A 
ATOM     12  C   UNL     1       4.448   6.308  16.826  0.00  0.00    +0.000 A 
ATOM     13  C   UNL     1       3.620   7.372  17.197  0.00  0.00    +0.000 A 
ATOM     14  C   UNL     1       2.779   7.304  18.331  0.00  0.00    +0.000 A 
BRANCH   5  16
ATOM     15  C   UNL     1       1.946   4.814  20.894  0.00  0.00    +0.000 C 
ATOM     16  O   UNL     1       1.887   6.039  20.158  0.00  0.00    +0.000 OA
ENDBRANCH   5  16
ENDBRANCH   1  14
BRANCH   3  17
ATOM     17  C   UNL     1       0.507   9.779  20.160  0.00  0.00    +0.000 A 
ATOM     18  C   UNL     1      -0.560  10.203  19.368  0.00  0.00    +0.000 A 
ATOM     19  C   UNL     1      -1.371  11.273  19.746  0.00  0.00    +0.000 A 
ATOM     20  C   UNL     1      -1.151  11.945  20.941  0.00  0.00    +0.000 A 
ATOM     21  C   UNL     1      -0.067  11.547  21.737  0.00  0.00    +0.000 A 
ATOM     22  C   UNL     1       0.745  10.461  21.358  0.00  0.00    +0.000 A 
BRANCH  20  23
ATOM     23  N   UNL     1      -1.992  12.979  21.406  0.00  0.00    +0.000 N 
ATOM     24  C   UNL     1      -2.873  12.920  22.482  0.00  0.00    +0.000 C 
ATOM     25  O   UNL     1      -3.114  11.909  23.133  0.00  0.00    +0.000 OA
ATOM     26  H   UNL     1      -1.902  13.881  20.959  0.00  0.00    +0.000 HD
BRANCH  24  27
ATOM     27  C   UNL     1      -3.510  14.185  22.841  0.00  0.00    +0.000 A 
ATOM     28  C   UNL     1      -4.782  14.329  23.365  0.00  0.00    +0.000 A 
ATOM     29  C   UNL     1      -5.115  15.683  23.642  0.00  0.00    +0.000 A 
ATOM     30  C   UNL     1      -4.084  16.536  23.320  0.00  0.00    +0.000 A 
ATOM     31  S   UNL     1      -2.734  15.703  22.682  0.00  0.00    +0.000 S 
ENDBRANCH  24  27
ENDBRANCH  20  23
ENDBRANCH   3  17
TORSDOF 5
ENDMDL
MODEL 7
REMARK VINA RESULT:      -7.8      3.316      4.487
REMARK  Name = 
REMARK  6 active torsions:
REMARK  status: ('A' for Active; 'I' for Inactive)
REMARK    1  A    between atoms: C_1  and  O_2
REMARK    2  A    between atoms: O_2  and  C_3
REMARK    3  A    between atoms: C_12  and  C_13
REMARK    4  A    between atoms: N_15  and  C_16
REMARK    5  A    between atoms: C_19  and  N_20
REMARK    6  A    between atoms: C_21  and  C_23
REMARK                            x       y       z     vdW  Elec       q    Type
REMARK                         _______ _______ _______ _____ _____    ______ ____
ROOT
ATOM      1  C   UNL     1       2.269   8.290  18.219  0.00  0.00    +0.000 C 
ATOM      2  O   UNL     1       2.556   8.733  17.108  0.00  0.00    +0.000 OA
ATOM      3  N   UNL     1       1.562   8.995  19.181  0.00  0.00    +0.000 N 
ATOM      4  H   UNL     1       1.507   8.582  20.107  0.00  0.00    +0.000 HD
ENDROOT
BRANCH   1  14
ATOM      5  C   UNL     1       3.817   6.244  17.889  0.00  0.00    +0.000 A 
ATOM      6  C   UNL     1       4.127   4.932  18.289  0.00  0.00    +0.000 A 
ATOM      7  C   UNL     1       3.465   4.306  19.363  0.00  0.00    +0.000 A 
ATOM      8  C   UNL     1       3.779   2.996  19.760  0.00  0.00    +0.000 A 
ATOM      9  C   UNL     1       3.121   2.403  20.840  0.00  0.00    +0.000 A 
ATOM     10  C   UNL     1       2.147   3.111  21.538  0.00  0.00    +0.000 A 
ATOM     11  C   UNL     1       1.820   4.408  21.149  0.00  0.00    +0.000 A 
ATOM     12  C   UNL     1       2.471   5.009  20.060  0.00  0.00    +0.000 A 
ATOM     13  C   UNL     1       2.136   6.300  19.641  0.00  0.00    +0.000 A 
ATOM     14  C   UNL     1       2.781   6.922  18.547  0.00  0.00    +0.000 A 
BRANCH   5  16
ATOM     15  C   UNL     1       5.901   6.855  16.939  0.00  0.00    +0.000 C 
ATOM     16  O   UNL     1       4.473   6.868  16.854  0.00  0.00    +0.000 OA
ENDBRANCH   5  16
ENDBRANCH   1  14
BRANCH   3  17
ATOM     17  C   UNL     1       0.985  10.272  18.984  0.00  0.00    +0.000 A 
ATOM     18  C   UNL     1      -0.395  10.468  18.943  0.00  0.00    +0.000 A 
ATOM     19  C   UNL     1      -0.949  11.737  18.774  0.00  0.00    +0.000 A 
ATOM     20  C   UNL     1      -0.137  12.858  18.657  0.00  0.00    +0.000 A 
ATOM     21  C   UNL     1       1.253  12.675  18.672  0.00  0.00    +0.000 A 
ATOM     22  C   UNL     1       1.810  11.393  18.852  0.00  0.00    +0.000 A 
BRANCH  20  23
ATOM     23  N   UNL     1      -0.649  14.170  18.568  0.00  0.00    +0.000 N 
ATOM     24  C   UNL     1      -0.554  15.172  19.528  0.00  0.00    +0.000 C 
ATOM     25  O   UNL     1      -0.083  15.021  20.651  0.00  0.00    +0.000 OA
ATOM     26  H   UNL     1      -1.070  14.440  17.690  0.00  0.00    +0.000 HD
BRANCH  24  27
ATOM     27  C   UNL     1      -1.039  16.487  19.113  0.00  0.00    +0.000 A 
ATOM     28  C   UNL     1      -0.583  17.209  18.025  0.00  0.00    +0.000 A 
ATOM     29  C   UNL     1      -1.268  18.443  17.856  0.00  0.00    +0.000 A 
ATOM     30  C   UNL     1      -2.230  18.628  18.824  0.00  0.00    +0.000 A 
ATOM     31  S   UNL     1      -2.292  17.323  19.927  0.00  0.00    +0.000 S 
ENDBRANCH  24  27
ENDBRANCH  20  23
ENDBRANCH   3  17
TORSDOF 5
ENDMDL
MODEL 8
REMARK VINA RESULT:      -7.8      3.310      4.312
REMARK  Name = 
REMARK  6 active torsions:
REMARK  status: ('A' for Active; 'I' for Inactive)
REMARK    1  A    between atoms: C_1  and  O_2
REMARK    2  A    between atoms: O_2  and  C_3
REMARK    3  A    between atoms: C_12  and  C_13
REMARK    4  A    between atoms: N_15  and  C_16
REMARK    5  A    between atoms: C_19  and  N_20
REMARK    6  A    between atoms: C_21  and  C_23
REMARK                            x       y       z     vdW  Elec       q    Type
REMARK                         _______ _______ _______ _____ _____    ______ ____
ROOT
ATOM      1  C   UNL     1       2.017   7.878  19.073  0.00  0.00    +0.000 C 
ATOM      2  O   UNL     1       1.853   8.122  20.268  0.00  0.00    +0.000 OA
ATOM      3  N   UNL     1       1.665   8.739  18.045  0.00  0.00    +0.000 N 
ATOM      4  H   UNL     1       1.718   8.373  17.099  0.00  0.00    +0.000 HD
ENDROOT
BRANCH   1  14
ATOM      5  C   UNL     1       3.680   6.277  17.904  0.00  0.00    +0.000 A 
ATOM      6  C   UNL     1       4.034   4.942  17.642  0.00  0.00    +0.000 A 
ATOM      7  C   UNL     1       3.352   3.862  18.235  0.00  0.00    +0.000 A 
ATOM      8  C   UNL     1       3.710   2.530  17.973  0.00  0.00    +0.000 A 
ATOM      9  C   UNL     1       3.031   1.475  18.586  0.00  0.00    +0.000 A 
ATOM     10  C   UNL     1       1.989   1.738  19.472  0.00  0.00    +0.000 A 
ATOM     11  C   UNL     1       1.618   3.055  19.734  0.00  0.00    +0.000 A 
ATOM     12  C   UNL     1       2.291   4.121  19.116  0.00  0.00    +0.000 A 
ATOM     13  C   UNL     1       1.914   5.446  19.349  0.00  0.00    +0.000 A 
ATOM     14  C   UNL     1       2.580   6.532  18.736  0.00  0.00    +0.000 A 
BRANCH   5  16
ATOM     15  C   UNL     1       5.052   7.044  16.130  0.00  0.00    +0.000 C 
ATOM     16  O   UNL     1       4.354   7.336  17.344  0.00  0.00    +0.000 OA
ENDBRANCH   5  16
ENDBRANCH   1  14
BRANCH   3  17
ATOM     17  C   UNL     1       1.169  10.052  18.226  0.00  0.00    +0.000 A 
ATOM     18  C   UNL     1       2.002  11.171  18.217  0.00  0.00    +0.000 A 
ATOM     19  C   UNL     1       1.494  12.461  18.371  0.00  0.00    +0.000 A 
ATOM     20  C   UNL     1       0.131  12.675  18.523  0.00  0.00    +0.000 A 
ATOM     21  C   UNL     1      -0.717  11.559  18.559  0.00  0.00    +0.000 A 
ATOM     22  C   UNL     1      -0.203  10.258  18.394  0.00  0.00    +0.000 A 
BRANCH  20  23
ATOM     23  N   UNL     1      -0.439  13.964  18.599  0.00  0.00    +0.000 N 
ATOM     24  C   UNL     1      -0.168  14.945  19.547  0.00  0.00    +0.000 C 
ATOM     25  O   UNL     1       0.552  14.787  20.527  0.00  0.00    +0.000 OA
ATOM     26  H   UNL     1      -1.061  14.237  17.849  0.00  0.00    +0.000 HD
BRANCH  24  27
ATOM     27  C   UNL     1      -0.786  16.246  19.300  0.00  0.00    +0.000 A 
ATOM     28  C   UNL     1      -0.547  17.059  18.206  0.00  0.00    +0.000 A 
ATOM     29  C   UNL     1      -1.321  18.252  18.227  0.00  0.00    +0.000 A 
ATOM     30  C   UNL     1      -2.129  18.315  19.339  0.00  0.00    +0.000 A 
ATOM     31  S   UNL     1      -1.944  16.947  20.348  0.00  0.00    +0.000 S 
ENDBRANCH  24  27
ENDBRANCH  20  23
ENDBRANCH   3  17
TORSDOF 5
ENDMDL
MODEL 9
REMARK VINA RESULT:      -7.8      2.243      2.528
REMARK  Name = 
REMARK  6 active torsions:
REMARK  status: ('A' for Active; 'I' for Inactive)
REMARK    1  A    between atoms: C_1  and  O_2
REMARK    2  A    between atoms: O_2  and  C_3
REMARK    3  A    between atoms: C_12  and  C_13
REMARK    4  A    between atoms: N_15  and  C_16
REMARK    5  A    between atoms: C_19  and  N_20
REMARK    6  A    between atoms: C_21  and  C_23
REMARK                            x       y       z     vdW  Elec       q    Type
REMARK                         _______ _______ _______ _____ _____    ______ ____
ROOT
ATOM      1  C   UNL     1       1.972   8.604  18.342  0.00  0.00    +0.000 C 
ATOM      2  O   UNL     1       1.864   9.148  17.244  0.00  0.00    +0.000 OA
ATOM      3  N   UNL     1       1.320   9.027  19.489  0.00  0.00    +0.000 N 
ATOM      4  H   UNL     1       1.594   8.589  20.364  0.00  0.00    +0.000 HD
ENDROOT
BRANCH   1  14
ATOM      5  C   UNL     1       2.895   6.422  19.380  0.00  0.00    +0.000 A 
ATOM      6  C   UNL     1       3.909   5.448  19.352  0.00  0.00    +0.000 A 
ATOM      7  C   UNL     1       4.912   5.448  18.365  0.00  0.00    +0.000 A 
ATOM      8  C   UNL     1       5.922   4.472  18.339  0.00  0.00    +0.000 A 
ATOM      9  C   UNL     1       6.897   4.481  17.339  0.00  0.00    +0.000 A 
ATOM     10  C   UNL     1       6.873   5.461  16.351  0.00  0.00    +0.000 A 
ATOM     11  C   UNL     1       5.881   6.440  16.369  0.00  0.00    +0.000 A 
ATOM     12  C   UNL     1       4.902   6.442  17.376  0.00  0.00    +0.000 A 
ATOM     13  C   UNL     1       3.916   7.432  17.423  0.00  0.00    +0.000 A 
ATOM     14  C   UNL     1       2.922   7.451  18.427  0.00  0.00    +0.000 A 
BRANCH   5  16
ATOM     15  C   UNL     1       1.368   5.128  20.650  0.00  0.00    +0.000 C 
ATOM     16  O   UNL     1       1.901   6.417  20.330  0.00  0.00    +0.000 OA
ENDBRANCH   5  16
ENDBRANCH   1  14
BRANCH   3  17
ATOM     17  C   UNL     1       0.365  10.071  19.536  0.00  0.00    +0.000 A 
ATOM     18  C   UNL     1      -0.802  10.048  18.772  0.00  0.00    +0.000 A 
ATOM     19  C   UNL     1      -1.747  11.071  18.849  0.00  0.00    +0.000 A 
ATOM     20  C   UNL     1      -1.562  12.146  19.709  0.00  0.00    +0.000 A 
ATOM     21  C   UNL     1      -0.383  12.196  20.466  0.00  0.00    +0.000 A 
ATOM     22  C   UNL     1       0.565  11.157  20.393  0.00  0.00    +0.000 A 
BRANCH  20  23
ATOM     23  N   UNL     1      -2.526  13.163  19.884  0.00  0.00    +0.000 N 
ATOM     24  C   UNL     1      -3.398  13.313  20.957  0.00  0.00    +0.000 C 
ATOM     25  O   UNL     1      -3.517  12.512  21.877  0.00  0.00    +0.000 OA
ATOM     26  H   UNL     1      -2.544  13.902  19.195  0.00  0.00    +0.000 HD
BRANCH  24  27
ATOM     27  C   UNL     1      -4.186  14.544  20.957  0.00  0.00    +0.000 A 
ATOM     28  C   UNL     1      -5.441  14.700  20.394  0.00  0.00    +0.000 A 
ATOM     29  C   UNL     1      -5.970  16.006  20.581  0.00  0.00    +0.000 A 
ATOM     30  C   UNL     1      -5.101  16.812  21.282  0.00  0.00    +0.000 A 
ATOM     31  S   UNL     1      -3.660  15.994  21.699  0.00  0.00    +0.000 S 
ENDBRANCH  24  27
ENDBRANCH  20  23
ENDBRANCH   3  17
TORSDOF 5
ENDMDL
