MODEL 1
REMARK VINA RESULT:      -6.7      0.000      0.000
REMARK  Name = 
REMARK  11 active torsions:
REMARK  status: ('A' for Active; 'I' for Inactive)
REMARK    1  A    between atoms: C_8  and  C_9
REMARK    2  A    between atoms: C_11  and  O_12
REMARK    3  A    between atoms: C_14  and  C_15
REMARK    4  A    between atoms: C_17  and  O_18
REMARK    5  A    between atoms: O_18  and  C_19
REMARK    6  A    between atoms: C_19  and  C_21
REMARK    7  A    between atoms: C_21  and  C_22
REMARK    8  A    between atoms: C_23  and  C_24
REMARK    9  A    between atoms: C_24  and  O_25
REMARK   10  A    between atoms: O_25  and  C_26
REMARK   11  A    between atoms: C_26  and  C_27
REMARK                            x       y       z     vdW  Elec       q    Type
REMARK                         _______ _______ _______ _____ _____    ______ ____
ROOT
ATOM      1  C   UNL     1       4.631   7.214  15.525  0.00  0.00    +0.000 C 
ATOM      2  C   UNL     1       5.011   6.124  16.196  0.00  0.00    +0.000 C 
ATOM      3  C   UNL     1       5.569   5.057  15.334  0.00  0.00    +0.000 C 
ATOM      4  O   UNL     1       6.444   5.148  14.512  0.00  0.00    +0.000 OA
ATOM      5  O   UNL     1       4.751   4.003  15.550  0.00  0.00    +0.000 OA
ATOM      6  C   UNL     1       4.198   4.115  16.856  0.00  0.00    +0.000 C 
ATOM      7  C   UNL     1       2.763   3.684  16.902  0.00  0.00    +0.000 C 
ATOM      8  C   UNL     1       2.476   2.468  17.418  0.00  0.00    +0.000 C 
ATOM      9  C   UNL     1       3.524   1.386  17.501  0.00  0.00    +0.000 C 
ATOM     10  C   UNL     1       1.190   2.265  18.186  0.00  0.00    +0.000 C 
ATOM     11  C   UNL     1       1.310   2.687  19.687  0.00  0.00    +0.000 C 
ATOM     12  C   UNL     1       2.248   3.875  19.885  0.00  0.00    +0.000 C 
ATOM     13  C   UNL     1       3.566   3.836  20.204  0.00  0.00    +0.000 C 
ATOM     14  C   UNL     1       4.224   2.593  20.762  0.00  0.00    +0.000 C 
ATOM     15  C   UNL     1       4.461   5.080  20.093  0.00  0.00    +0.000 C 
ATOM     16  C   UNL     1       5.310   5.389  18.779  0.00  0.00    +0.000 C 
ATOM     17  C   UNL     1       4.439   5.509  17.458  0.00  0.00    +0.000 C 
ENDROOT
BRANCH  11  18
ATOM     18  O   UNL     1       0.025   3.051  20.191  0.00  0.00    +0.000 OA
ATOM     19  H   UNL     1      -0.053   4.017  20.147  0.00  0.00    +0.000 HD
ENDBRANCH  11  18
BRANCH  16  20
ATOM     20  O   UNL     1       6.339   4.390  18.535  0.00  0.00    +0.000 OA
BRANCH  20  21
ATOM     21  C   UNL     1       7.583   4.717  18.118  0.00  0.00    +0.000 C 
ATOM     22  O   UNL     1       8.225   4.121  17.273  0.00  0.00    +0.000 OA
BRANCH  21  23
ATOM     23  C   UNL     1       8.053   5.963  18.818  0.00  0.00    +0.000 C 
ATOM     24  C   UNL     1       8.435   5.817  20.265  0.00  0.00    +0.000 C 
ATOM     25  C   UNL     1       8.126   7.153  18.181  0.00  0.00    +0.000 C 
BRANCH  25  26
ATOM     26  C   UNL     1       8.590   8.434  18.812  0.00  0.00    +0.000 C 
BRANCH  26  27
ATOM     27  O   UNL     1       8.238   9.553  17.985  0.00  0.00    +0.000 OA
BRANCH  27  28
ATOM     28  C   UNL     1       8.833  10.733  18.305  0.00  0.00    +0.000 C 
ATOM     29  C   UNL     1       9.615  10.603  19.579  0.00  0.00    +0.000 C 
ATOM     30  O   UNL     1       8.745  11.770  17.665  0.00  0.00    +0.000 OA
ENDBRANCH  27  28
ENDBRANCH  26  27
ENDBRANCH  25  26
ENDBRANCH  21  23
ENDBRANCH  20  21
ENDBRANCH  16  20
TORSDOF 7
ENDMDL
MODEL 2
REMARK VINA RESULT:      -6.4      9.773     12.369
REMARK  Name = 
REMARK  11 active torsions:
REMARK  status: ('A' for Active; 'I' for Inactive)
REMARK    1  A    between atoms: C_8  and  C_9
REMARK    2  A    between atoms: C_11  and  O_12
REMARK    3  A    between atoms: C_14  and  C_15
REMARK    4  A    between atoms: C_17  and  O_18
REMARK    5  A    between atoms: O_18  and  C_19
REMARK    6  A    between atoms: C_19  and  C_21
REMARK    7  A    between atoms: C_21  and  C_22
REMARK    8  A    between atoms: C_23  and  C_24
REMARK    9  A    between atoms: C_24  and  O_25
REMARK   10  A    between atoms: O_25  and  C_26
REMARK   11  A    between atoms: C_26  and  C_27
REMARK                            x       y       z     vdW  Elec       q    Type
REMARK                         _______ _______ _______ _____ _____    ______ ____
ROOT
ATOM      1  C   UNL     1       0.563  15.154  21.761  0.00  0.00    +0.000 C 
ATOM      2  C   UNL     1      -0.274  14.130  21.573  0.00  0.00    +0.000 C 
ATOM      3  C   UNL     1      -0.702  13.471  22.828  0.00  0.00    +0.000 C 
ATOM      4  O   UNL     1      -1.168  13.982  23.813  0.00  0.00    +0.000 OA
ATOM      5  O   UNL     1      -0.282  12.194  22.684  0.00  0.00    +0.000 OA
ATOM      6  C   UNL     1      -0.239  11.882  21.297  0.00  0.00    +0.000 C 
ATOM      7  C   UNL     1       0.941  11.026  20.946  0.00  0.00    +0.000 C 
ATOM      8  C   UNL     1       0.735   9.707  20.734  0.00  0.00    +0.000 C 
ATOM      9  C   UNL     1      -0.486   9.008  21.280  0.00  0.00    +0.000 C 
ATOM     10  C   UNL     1       1.567   8.974  19.706  0.00  0.00    +0.000 C 
ATOM     11  C   UNL     1       1.001   9.124  18.255  0.00  0.00    +0.000 C 
ATOM     12  C   UNL     1       0.352  10.484  18.020  0.00  0.00    +0.000 C 
ATOM     13  C   UNL     1      -0.963  10.797  18.137  0.00  0.00    +0.000 C 
ATOM     14  C   UNL     1      -2.043   9.739  18.179  0.00  0.00    +0.000 C 
ATOM     15  C   UNL     1      -1.448  12.255  18.154  0.00  0.00    +0.000 C 
ATOM     16  C   UNL     1      -1.660  13.054  19.518  0.00  0.00    +0.000 C 
ATOM     17  C   UNL     1      -0.361  13.143  20.425  0.00  0.00    +0.000 C 
ENDROOT
BRANCH  11  18
ATOM     18  O   UNL     1       2.058   8.969  17.308  0.00  0.00    +0.000 OA
ATOM     19  H   UNL     1       1.840   8.218  16.734  0.00  0.00    +0.000 HD
ENDBRANCH  11  18
BRANCH  16  20
ATOM     20  O   UNL     1      -2.725  12.488  20.333  0.00  0.00    +0.000 OA
BRANCH  20  21
ATOM     21  C   UNL     1      -4.029  12.588  19.992  0.00  0.00    +0.000 C 
ATOM     22  O   UNL     1      -4.496  12.328  18.898  0.00  0.00    +0.000 OA
BRANCH  21  23
ATOM     23  C   UNL     1      -4.843  13.027  21.179  0.00  0.00    +0.000 C 
ATOM     24  C   UNL     1      -6.277  13.392  20.913  0.00  0.00    +0.000 C 
ATOM     25  C   UNL     1      -4.312  13.094  22.420  0.00  0.00    +0.000 C 
BRANCH  25  26
ATOM     26  C   UNL     1      -5.064  13.516  23.650  0.00  0.00    +0.000 C 
BRANCH  26  27
ATOM     27  O   UNL     1      -5.689  12.380  24.265  0.00  0.00    +0.000 OA
BRANCH  27  28
ATOM     28  C   UNL     1      -7.035  12.284  24.094  0.00  0.00    +0.000 C 
ATOM     29  C   UNL     1      -7.693  13.613  24.316  0.00  0.00    +0.000 C 
ATOM     30  O   UNL     1      -7.644  11.263  23.812  0.00  0.00    +0.000 OA
ENDBRANCH  27  28
ENDBRANCH  26  27
ENDBRANCH  25  26
ENDBRANCH  21  23
ENDBRANCH  20  21
ENDBRANCH  16  20
TORSDOF 7
ENDMDL
MODEL 3
REMARK VINA RESULT:      -6.1      9.641     12.306
REMARK  Name = 
REMARK  11 active torsions:
REMARK  status: ('A' for Active; 'I' for Inactive)
REMARK    1  A    between atoms: C_8  and  C_9
REMARK    2  A    between atoms: C_11  and  O_12
REMARK    3  A    between atoms: C_14  and  C_15
REMARK    4  A    between atoms: C_17  and  O_18
REMARK    5  A    between atoms: O_18  and  C_19
REMARK    6  A    between atoms: C_19  and  C_21
REMARK    7  A    between atoms: C_21  and  C_22
REMARK    8  A    between atoms: C_23  and  C_24
REMARK    9  A    between atoms: C_24  and  O_25
REMARK   10  A    between atoms: O_25  and  C_26
REMARK   11  A    between atoms: C_26  and  C_27
REMARK                            x       y       z     vdW  Elec       q    Type
REMARK                         _______ _______ _______ _____ _____    ______ ____
ROOT
ATOM      1  C   UNL     1       0.977  14.853  21.918  0.00  0.00    +0.000 C 
ATOM      2  C   UNL     1       0.067  13.912  21.650  0.00  0.00    +0.000 C 
ATOM      3  C   UNL     1      -0.500  13.269  22.857  0.00  0.00    +0.000 C 
ATOM      4  O   UNL     1      -0.984  13.800  23.823  0.00  0.00    +0.000 OA
ATOM      5  O   UNL     1      -0.187  11.963  22.708  0.00  0.00    +0.000 OA
ATOM      6  C   UNL     1      -0.079  11.676  21.319  0.00  0.00    +0.000 C 
ATOM      7  C   UNL     1       1.041  10.725  21.023  0.00  0.00    +0.000 C 
ATOM      8  C   UNL     1       0.733   9.434  20.764  0.00  0.00    +0.000 C 
ATOM      9  C   UNL     1      -0.579   8.837  21.211  0.00  0.00    +0.000 C 
ATOM     10  C   UNL     1       1.563   8.650  19.773  0.00  0.00    +0.000 C 
ATOM     11  C   UNL     1       1.111   8.879  18.293  0.00  0.00    +0.000 C 
ATOM     12  C   UNL     1       0.602  10.297  18.052  0.00  0.00    +0.000 C 
ATOM     13  C   UNL     1      -0.685  10.725  18.091  0.00  0.00    +0.000 C 
ATOM     14  C   UNL     1      -1.854   9.768  18.035  0.00  0.00    +0.000 C 
ATOM     15  C   UNL     1      -1.038  12.220  18.115  0.00  0.00    +0.000 C 
ATOM     16  C   UNL     1      -1.269  13.007  19.483  0.00  0.00    +0.000 C 
ATOM     17  C   UNL     1      -0.031  12.960  20.474  0.00  0.00    +0.000 C 
ENDROOT
BRANCH  11  18
ATOM     18  O   UNL     1       2.210   8.649  17.412  0.00  0.00    +0.000 OA
ATOM     19  H   UNL     1       1.882   8.704  16.500  0.00  0.00    +0.000 HD
ENDBRANCH  11  18
BRANCH  16  20
ATOM     20  O   UNL     1      -2.432  12.523  20.212  0.00  0.00    +0.000 OA
BRANCH  20  21
ATOM     21  C   UNL     1      -3.437  13.341  20.598  0.00  0.00    +0.000 C 
ATOM     22  O   UNL     1      -3.301  14.471  21.032  0.00  0.00    +0.000 OA
BRANCH  21  23
ATOM     23  C   UNL     1      -4.765  12.672  20.373  0.00  0.00    +0.000 C 
ATOM     24  C   UNL     1      -5.043  12.184  18.978  0.00  0.00    +0.000 C 
ATOM     25  C   UNL     1      -5.664  12.521  21.370  0.00  0.00    +0.000 C 
BRANCH  25  26
ATOM     26  C   UNL     1      -7.004  11.859  21.221  0.00  0.00    +0.000 C 
BRANCH  26  27
ATOM     27  O   UNL     1      -7.916  12.353  22.213  0.00  0.00    +0.000 OA
BRANCH  27  28
ATOM     28  C   UNL     1      -7.458  12.339  23.493  0.00  0.00    +0.000 C 
ATOM     29  C   UNL     1      -7.384  13.732  24.044  0.00  0.00    +0.000 C 
ATOM     30  O   UNL     1      -7.133  11.343  24.121  0.00  0.00    +0.000 OA
ENDBRANCH  27  28
ENDBRANCH  26  27
ENDBRANCH  25  26
ENDBRANCH  21  23
ENDBRANCH  20  21
ENDBRANCH  16  20
TORSDOF 7
ENDMDL
MODEL 4
REMARK VINA RESULT:      -6.0      8.980     11.683
REMARK  Name = 
REMARK  11 active torsions:
REMARK  status: ('A' for Active; 'I' for Inactive)
REMARK    1  A    between atoms: C_8  and  C_9
REMARK    2  A    between atoms: C_11  and  O_12
REMARK    3  A    between atoms: C_14  and  C_15
REMARK    4  A    between atoms: C_17  and  O_18
REMARK    5  A    between atoms: O_18  and  C_19
REMARK    6  A    between atoms: C_19  and  C_21
REMARK    7  A    between atoms: C_21  and  C_22
REMARK    8  A    between atoms: C_23  and  C_24
REMARK    9  A    between atoms: C_24  and  O_25
REMARK   10  A    between atoms: O_25  and  C_26
REMARK   11  A    between atoms: C_26  and  C_27
REMARK                            x       y       z     vdW  Elec       q    Type
REMARK                         _______ _______ _______ _____ _____    ______ ____
ROOT
ATOM      1  C   UNL     1       1.595   8.493  20.127  0.00  0.00    +0.000 C 
ATOM      2  C   UNL     1       0.997   9.534  19.541  0.00  0.00    +0.000 C 
ATOM      3  C   UNL     1       1.631   9.948  18.269  0.00  0.00    +0.000 C 
ATOM      4  O   UNL     1       1.904   9.263  17.317  0.00  0.00    +0.000 OA
ATOM      5  O   UNL     1       1.999  11.230  18.491  0.00  0.00    +0.000 OA
ATOM      6  C   UNL     1       1.122  11.794  19.459  0.00  0.00    +0.000 C 
ATOM      7  C   UNL     1       1.840  12.701  20.412  0.00  0.00    +0.000 C 
ATOM      8  C   UNL     1       1.716  14.037  20.241  0.00  0.00    +0.000 C 
ATOM      9  C   UNL     1       1.301  14.621  18.914  0.00  0.00    +0.000 C 
ATOM     10  C   UNL     1       1.706  14.948  21.448  0.00  0.00    +0.000 C 
ATOM     11  C   UNL     1       0.289  15.070  22.099  0.00  0.00    +0.000 C 
ATOM     12  C   UNL     1      -0.513  13.776  21.996  0.00  0.00    +0.000 C 
ATOM     13  C   UNL     1      -1.419  13.445  21.041  0.00  0.00    +0.000 C 
ATOM     14  C   UNL     1      -2.031  14.476  20.119  0.00  0.00    +0.000 C 
ATOM     15  C   UNL     1      -1.943  12.009  20.887  0.00  0.00    +0.000 C 
ATOM     16  C   UNL     1      -1.265  10.971  19.884  0.00  0.00    +0.000 C 
ATOM     17  C   UNL     1       0.277  10.717  20.158  0.00  0.00    +0.000 C 
ENDROOT
BRANCH  11  18
ATOM     18  O   UNL     1       0.420  15.399  23.482  0.00  0.00    +0.000 OA
ATOM     19  H   UNL     1       0.296  14.586  23.998  0.00  0.00    +0.000 HD
ENDBRANCH  11  18
BRANCH  16  20
ATOM     20  O   UNL     1      -1.402  11.375  18.492  0.00  0.00    +0.000 OA
BRANCH  20  21
ATOM     21  C   UNL     1      -1.922  10.559  17.548  0.00  0.00    +0.000 C 
ATOM     22  O   UNL     1      -1.422   9.520  17.159  0.00  0.00    +0.000 OA
BRANCH  21  23
ATOM     23  C   UNL     1      -3.244  11.095  17.071  0.00  0.00    +0.000 C 
ATOM     24  C   UNL     1      -3.475  11.090  15.585  0.00  0.00    +0.000 C 
ATOM     25  C   UNL     1      -4.176  11.560  17.933  0.00  0.00    +0.000 C 
BRANCH  25  26
ATOM     26  C   UNL     1      -5.518  12.102  17.530  0.00  0.00    +0.000 C 
BRANCH  26  27
ATOM     27  O   UNL     1      -6.564  11.232  17.988  0.00  0.00    +0.000 OA
BRANCH  27  28
ATOM     28  C   UNL     1      -7.036  11.485  19.237  0.00  0.00    +0.000 C 
ATOM     29  C   UNL     1      -7.215  10.209  20.004  0.00  0.00    +0.000 C 
ATOM     30  O   UNL     1      -7.297  12.590  19.688  0.00  0.00    +0.000 OA
ENDBRANCH  27  28
ENDBRANCH  26  27
ENDBRANCH  25  26
ENDBRANCH  21  23
ENDBRANCH  20  21
ENDBRANCH  16  20
TORSDOF 7
ENDMDL
MODEL 5
REMARK VINA RESULT:      -6.0     10.125     12.068
REMARK  Name = 
REMARK  11 active torsions:
REMARK  status: ('A' for Active; 'I' for Inactive)
REMARK    1  A    between atoms: C_8  and  C_9
REMARK    2  A    between atoms: C_11  and  O_12
REMARK    3  A    between atoms: C_14  and  C_15
REMARK    4  A    between atoms: C_17  and  O_18
REMARK    5  A    between atoms: O_18  and  C_19
REMARK    6  A    between atoms: C_19  and  C_21
REMARK    7  A    between atoms: C_21  and  C_22
REMARK    8  A    between atoms: C_23  and  C_24
REMARK    9  A    between atoms: C_24  and  O_25
REMARK   10  A    between atoms: O_25  and  C_26
REMARK   11  A    between atoms: C_26  and  C_27
REMARK                            x       y       z     vdW  Elec       q    Type
REMARK                         _______ _______ _______ _____ _____    ______ ____
ROOT
ATOM      1  C   UNL     1      -0.730  10.162  23.320  0.00  0.00    +0.000 C 
ATOM      2  C   UNL     1      -1.031  11.152  22.475  0.00  0.00    +0.000 C 
ATOM      3  C   UNL     1       0.153  11.776  21.841  0.00  0.00    +0.000 C 
ATOM      4  O   UNL     1       1.057  11.233  21.260  0.00  0.00    +0.000 OA
ATOM      5  O   UNL     1       0.080  13.072  22.220  0.00  0.00    +0.000 OA
ATOM      6  C   UNL     1      -1.284  13.403  22.450  0.00  0.00    +0.000 C 
ATOM      7  C   UNL     1      -1.454  14.313  23.629  0.00  0.00    +0.000 C 
ATOM      8  C   UNL     1      -1.686  15.625  23.397  0.00  0.00    +0.000 C 
ATOM      9  C   UNL     1      -1.319  16.263  22.080  0.00  0.00    +0.000 C 
ATOM     10  C   UNL     1      -2.577  16.406  24.335  0.00  0.00    +0.000 C 
ATOM     11  C   UNL     1      -4.096  16.250  23.993  0.00  0.00    +0.000 C 
ATOM     12  C   UNL     1      -4.432  14.866  23.446  0.00  0.00    +0.000 C 
ATOM     13  C   UNL     1      -4.509  14.495  22.143  0.00  0.00    +0.000 C 
ATOM     14  C   UNL     1      -4.618  15.505  21.023  0.00  0.00    +0.000 C 
ATOM     15  C   UNL     1      -4.572  13.018  21.726  0.00  0.00    +0.000 C 
ATOM     16  C   UNL     1      -3.258  12.194  21.355  0.00  0.00    +0.000 C 
ATOM     17  C   UNL     1      -2.172  12.149  22.511  0.00  0.00    +0.000 C 
ENDROOT
BRANCH  11  18
ATOM     18  O   UNL     1      -4.879  16.462  25.168  0.00  0.00    +0.000 OA
ATOM     19  H   UNL     1      -4.397  17.076  25.744  0.00  0.00    +0.000 HD
ENDBRANCH  11  18
BRANCH  16  20
ATOM     20  O   UNL     1      -2.603  12.703  20.159  0.00  0.00    +0.000 OA
BRANCH  20  21
ATOM     21  C   UNL     1      -2.601  12.025  18.989  0.00  0.00    +0.000 C 
ATOM     22  O   UNL     1      -3.590  11.722  18.345  0.00  0.00    +0.000 OA
BRANCH  21  23
ATOM     23  C   UNL     1      -1.189  11.731  18.562  0.00  0.00    +0.000 C 
ATOM     24  C   UNL     1      -0.296  12.919  18.332  0.00  0.00    +0.000 C 
ATOM     25  C   UNL     1      -0.745  10.466  18.391  0.00  0.00    +0.000 C 
BRANCH  25  26
ATOM     26  C   UNL     1       0.649  10.098  17.975  0.00  0.00    +0.000 C 
BRANCH  26  27
ATOM     27  O   UNL     1       1.196   9.121  18.873  0.00  0.00    +0.000 OA
BRANCH  27  28
ATOM     28  C   UNL     1       2.132   8.290  18.341  0.00  0.00    +0.000 C 
ATOM     29  C   UNL     1       2.418   7.149  19.271  0.00  0.00    +0.000 C 
ATOM     30  O   UNL     1       2.685   8.441  17.261  0.00  0.00    +0.000 OA
ENDBRANCH  27  28
ENDBRANCH  26  27
ENDBRANCH  25  26
ENDBRANCH  21  23
ENDBRANCH  20  21
ENDBRANCH  16  20
TORSDOF 7
ENDMDL
MODEL 6
REMARK VINA RESULT:      -6.0      2.806      6.144
REMARK  Name = 
REMARK  11 active torsions:
REMARK  status: ('A' for Active; 'I' for Inactive)
REMARK    1  A    between atoms: C_8  and  C_9
REMARK    2  A    between atoms: C_11  and  O_12
REMARK    3  A    between atoms: C_14  and  C_15
REMARK    4  A    between atoms: C_17  and  O_18
REMARK    5  A    between atoms: O_18  and  C_19
REMARK    6  A    between atoms: C_19  and  C_21
REMARK    7  A    between atoms: C_21  and  C_22
REMARK    8  A    between atoms: C_23  and  C_24
REMARK    9  A    between atoms: C_24  and  O_25
REMARK   10  A    between atoms: O_25  and  C_26
REMARK   11  A    between atoms: C_26  and  C_27
REMARK                            x       y       z     vdW  Elec       q    Type
REMARK                         _______ _______ _______ _____ _____    ______ ____
ROOT
ATOM      1  C   UNL     1       8.278   6.368  19.222  0.00  0.00    +0.000 C 
ATOM      2  C   UNL     1       7.287   6.122  18.360  0.00  0.00    +0.000 C 
ATOM      3  C   UNL     1       6.881   7.303  17.564  0.00  0.00    +0.000 C 
ATOM      4  O   UNL     1       7.581   8.039  16.919  0.00  0.00    +0.000 OA
ATOM      5  O   UNL     1       5.576   7.471  17.875  0.00  0.00    +0.000 OA
ATOM      6  C   UNL     1       5.027   6.209  18.235  0.00  0.00    +0.000 C 
ATOM      7  C   UNL     1       4.056   6.318  19.372  0.00  0.00    +0.000 C 
ATOM      8  C   UNL     1       2.734   6.261  19.092  0.00  0.00    +0.000 C 
ATOM      9  C   UNL     1       2.213   6.562  17.709  0.00  0.00    +0.000 C 
ATOM     10  C   UNL     1       1.788   5.614  20.078  0.00  0.00    +0.000 C 
ATOM     11  C   UNL     1       1.717   4.060  19.915  0.00  0.00    +0.000 C 
ATOM     12  C   UNL     1       3.053   3.458  19.488  0.00  0.00    +0.000 C 
ATOM     13  C   UNL     1       3.458   3.172  18.225  0.00  0.00    +0.000 C 
ATOM     14  C   UNL     1       2.488   3.084  17.068  0.00  0.00    +0.000 C 
ATOM     15  C   UNL     1       4.923   2.839  17.902  0.00  0.00    +0.000 C 
ATOM     16  C   UNL     1       5.956   3.960  17.436  0.00  0.00    +0.000 C 
ATOM     17  C   UNL     1       6.124   5.156  18.465  0.00  0.00    +0.000 C 
ENDROOT
BRANCH  11  18
ATOM     18  O   UNL     1       1.340   3.462  21.155  0.00  0.00    +0.000 OA
ATOM     19  H   UNL     1       1.395   2.498  21.053  0.00  0.00    +0.000 HD
ENDBRANCH  11  18
BRANCH  16  20
ATOM     20  O   UNL     1       5.602   4.538  16.147  0.00  0.00    +0.000 OA
BRANCH  20  21
ATOM     21  C   UNL     1       6.467   4.578  15.109  0.00  0.00    +0.000 C 
ATOM     22  O   UNL     1       7.623   4.957  15.166  0.00  0.00    +0.000 OA
BRANCH  21  23
ATOM     23  C   UNL     1       5.811   4.039  13.867  0.00  0.00    +0.000 C 
ATOM     24  C   UNL     1       4.312   3.918  13.897  0.00  0.00    +0.000 C 
ATOM     25  C   UNL     1       6.531   3.679  12.781  0.00  0.00    +0.000 C 
BRANCH  25  26
ATOM     26  C   UNL     1       5.945   3.141  11.507  0.00  0.00    +0.000 C 
BRANCH  26  27
ATOM     27  O   UNL     1       5.610   1.754  11.661  0.00  0.00    +0.000 OA
BRANCH  27  28
ATOM     28  C   UNL     1       6.450   0.874  11.054  0.00  0.00    +0.000 C 
ATOM     29  C   UNL     1       6.049  -0.539  11.358  0.00  0.00    +0.000 C 
ATOM     30  O   UNL     1       7.413   1.172  10.363  0.00  0.00    +0.000 OA
ENDBRANCH  27  28
ENDBRANCH  26  27
ENDBRANCH  25  26
ENDBRANCH  21  23
ENDBRANCH  20  21
ENDBRANCH  16  20
TORSDOF 7
ENDMDL
MODEL 7
REMARK VINA RESULT:      -6.0      8.379     11.627
REMARK  Name = 
REMARK  11 active torsions:
REMARK  status: ('A' for Active; 'I' for Inactive)
REMARK    1  A    between atoms: C_8  and  C_9
REMARK    2  A    between atoms: C_11  and  O_12
REMARK    3  A    between atoms: C_14  and  C_15
REMARK    4  A    between atoms: C_17  and  O_18
REMARK    5  A    between atoms: O_18  and  C_19
REMARK    6  A    between atoms: C_19  and  C_21
REMARK    7  A    between atoms: C_21  and  C_22
REMARK    8  A    between atoms: C_23  and  C_24
REMARK    9  A    between atoms: C_24  and  O_25
REMARK   10  A    between atoms: O_25  and  C_26
REMARK   11  A    between atoms: C_26  and  C_27
REMARK                            x       y       z     vdW  Elec       q    Type
REMARK                         _______ _______ _______ _____ _____    ______ ____
ROOT
ATOM      1  C   UNL     1      10.074  15.721  23.599  0.00  0.00    +0.000 C 
ATOM      2  C   UNL     1       9.288  15.002  22.792  0.00  0.00    +0.000 C 
ATOM      3  C   UNL     1       8.668  13.830  23.450  0.00  0.00    +0.000 C 
ATOM      4  O   UNL     1       8.043  13.801  24.479  0.00  0.00    +0.000 OA
ATOM      5  O   UNL     1       9.117  12.777  22.731  0.00  0.00    +0.000 OA
ATOM      6  C   UNL     1       9.388  13.213  21.405  0.00  0.00    +0.000 C 
ATOM      7  C   UNL     1      10.617  12.570  20.837  0.00  0.00    +0.000 C 
ATOM      8  C   UNL     1      10.459  11.563  19.948  0.00  0.00    +0.000 C 
ATOM      9  C   UNL     1       9.172  10.779  19.874  0.00  0.00    +0.000 C 
ATOM     10  C   UNL     1      11.453  11.396  18.822  0.00  0.00    +0.000 C 
ATOM     11  C   UNL     1      11.129  12.307  17.592  0.00  0.00    +0.000 C 
ATOM     12  C   UNL     1      10.515  13.642  18.001  0.00  0.00    +0.000 C 
ATOM     13  C   UNL     1       9.195  13.951  18.072  0.00  0.00    +0.000 C 
ATOM     14  C   UNL     1       8.133  13.105  17.407  0.00  0.00    +0.000 C 
ATOM     15  C   UNL     1       8.701  15.228  18.769  0.00  0.00    +0.000 C 
ATOM     16  C   UNL     1       8.264  15.233  20.302  0.00  0.00    +0.000 C 
ATOM     17  C   UNL     1       9.397  14.748  21.301  0.00  0.00    +0.000 C 
ENDROOT
BRANCH  11  18
ATOM     18  O   UNL     1      12.327  12.577  16.863  0.00  0.00    +0.000 OA
ATOM     19  H   UNL     1      12.760  11.731  16.670  0.00  0.00    +0.000 HD
ENDBRANCH  11  18
BRANCH  16  20
ATOM     20  O   UNL     1       7.085  14.414  20.545  0.00  0.00    +0.000 OA
BRANCH  20  21
ATOM     21  C   UNL     1       5.983  14.895  21.163  0.00  0.00    +0.000 C 
ATOM     22  O   UNL     1       5.892  15.149  22.350  0.00  0.00    +0.000 OA
BRANCH  21  23
ATOM     23  C   UNL     1       4.884  15.119  20.160  0.00  0.00    +0.000 C 
ATOM     24  C   UNL     1       5.247  14.934  18.713  0.00  0.00    +0.000 C 
ATOM     25  C   UNL     1       3.636  15.473  20.540  0.00  0.00    +0.000 C 
BRANCH  25  26
ATOM     26  C   UNL     1       2.490  15.707  19.598  0.00  0.00    +0.000 C 
BRANCH  26  27
ATOM     27  O   UNL     1       2.514  17.057  19.111  0.00  0.00    +0.000 OA
BRANCH  27  28
ATOM     28  C   UNL     1       1.742  17.303  18.019  0.00  0.00    +0.000 C 
ATOM     29  C   UNL     1       2.556  17.209  16.763  0.00  0.00    +0.000 C 
ATOM     30  O   UNL     1       0.552  17.577  18.037  0.00  0.00    +0.000 OA
ENDBRANCH  27  28
ENDBRANCH  26  27
ENDBRANCH  25  26
ENDBRANCH  21  23
ENDBRANCH  20  21
ENDBRANCH  16  20
TORSDOF 7
ENDMDL
MODEL 8
REMARK VINA RESULT:      -5.9     11.054     13.414
REMARK  Name = 
REMARK  11 active torsions:
REMARK  status: ('A' for Active; 'I' for Inactive)
REMARK    1  A    between atoms: C_8  and  C_9
REMARK    2  A    between atoms: C_11  and  O_12
REMARK    3  A    between atoms: C_14  and  C_15
REMARK    4  A    between atoms: C_17  and  O_18
REMARK    5  A    between atoms: O_18  and  C_19
REMARK    6  A    between atoms: C_19  and  C_21
REMARK    7  A    between atoms: C_21  and  C_22
REMARK    8  A    between atoms: C_23  and  C_24
REMARK    9  A    between atoms: C_24  and  O_25
REMARK   10  A    between atoms: O_25  and  C_26
REMARK   11  A    between atoms: C_26  and  C_27
REMARK                            x       y       z     vdW  Elec       q    Type
REMARK                         _______ _______ _______ _____ _____    ______ ____
ROOT
ATOM      1  C   UNL     1      -0.266  11.042  20.600  0.00  0.00    +0.000 C 
ATOM      2  C   UNL     1      -1.194  12.000  20.660  0.00  0.00    +0.000 C 
ATOM      3  C   UNL     1      -1.098  12.994  19.567  0.00  0.00    +0.000 C 
ATOM      4  O   UNL     1      -1.041  12.791  18.382  0.00  0.00    +0.000 OA
ATOM      5  O   UNL     1      -0.904  14.168  20.210  0.00  0.00    +0.000 OA
ATOM      6  C   UNL     1      -1.496  14.082  21.501  0.00  0.00    +0.000 C 
ATOM      7  C   UNL     1      -0.671  14.769  22.548  0.00  0.00    +0.000 C 
ATOM      8  C   UNL     1      -1.074  15.984  22.984  0.00  0.00    +0.000 C 
ATOM      9  C   UNL     1      -1.998  16.845  22.160  0.00  0.00    +0.000 C 
ATOM     10  C   UNL     1      -0.842  16.376  24.426  0.00  0.00    +0.000 C 
ATOM     11  C   UNL     1      -1.963  15.849  25.381  0.00  0.00    +0.000 C 
ATOM     12  C   UNL     1      -2.518  14.497  24.939  0.00  0.00    +0.000 C 
ATOM     13  C   UNL     1      -3.616  14.271  24.176  0.00  0.00    +0.000 C 
ATOM     14  C   UNL     1      -4.667  15.333  23.940  0.00  0.00    +0.000 C 
ATOM     15  C   UNL     1      -3.905  12.891  23.565  0.00  0.00    +0.000 C 
ATOM     16  C   UNL     1      -3.428  12.509  22.092  0.00  0.00    +0.000 C 
ATOM     17  C   UNL     1      -1.863  12.633  21.864  0.00  0.00    +0.000 C 
ENDROOT
BRANCH  11  18
ATOM     18  O   UNL     1      -1.441  15.701  26.701  0.00  0.00    +0.000 OA
ATOM     19  H   UNL     1      -2.174  15.808  27.329  0.00  0.00    +0.000 HD
ENDBRANCH  11  18
BRANCH  16  20
ATOM     20  O   UNL     1      -4.085  13.312  21.070  0.00  0.00    +0.000 OA
BRANCH  20  21
ATOM     21  C   UNL     1      -5.376  13.122  20.718  0.00  0.00    +0.000 C 
ATOM     22  O   UNL     1      -6.333  13.698  21.201  0.00  0.00    +0.000 OA
BRANCH  21  23
ATOM     23  C   UNL     1      -5.465  12.120  19.599  0.00  0.00    +0.000 C 
ATOM     24  C   UNL     1      -6.622  11.160  19.647  0.00  0.00    +0.000 C 
ATOM     25  C   UNL     1      -4.552  12.082  18.603  0.00  0.00    +0.000 C 
BRANCH  25  26
ATOM     26  C   UNL     1      -4.581  11.116  17.453  0.00  0.00    +0.000 C 
BRANCH  26  27
ATOM     27  O   UNL     1      -3.711  10.005  17.714  0.00  0.00    +0.000 OA
BRANCH  27  28
ATOM     28  C   UNL     1      -2.641   9.886  16.884  0.00  0.00    +0.000 C 
ATOM     29  C   UNL     1      -3.082   9.881  15.450  0.00  0.00    +0.000 C 
ATOM     30  O   UNL     1      -1.476   9.782  17.236  0.00  0.00    +0.000 OA
ENDBRANCH  27  28
ENDBRANCH  26  27
ENDBRANCH  25  26
ENDBRANCH  21  23
ENDBRANCH  20  21
ENDBRANCH  16  20
TORSDOF 7
ENDMDL
MODEL 9
REMARK VINA RESULT:      -5.9     12.395     14.678
REMARK  Name = 
REMARK  11 active torsions:
REMARK  status: ('A' for Active; 'I' for Inactive)
REMARK    1  A    between atoms: C_8  and  C_9
REMARK    2  A    between atoms: C_11  and  O_12
REMARK    3  A    between atoms: C_14  and  C_15
REMARK    4  A    between atoms: C_17  and  O_18
REMARK    5  A    between atoms: O_18  and  C_19
REMARK    6  A    between atoms: C_19  and  C_21
REMARK    7  A    between atoms: C_21  and  C_22
REMARK    8  A    between atoms: C_23  and  C_24
REMARK    9  A    between atoms: C_24  and  O_25
REMARK   10  A    between atoms: O_25  and  C_26
REMARK   11  A    between atoms: C_26  and  C_27
REMARK                            x       y       z     vdW  Elec       q    Type
REMARK                         _______ _______ _______ _____ _____    ______ ____
ROOT
ATOM      1  C   UNL     1      -1.931  11.792  22.935  0.00  0.00    +0.000 C 
ATOM      2  C   UNL     1      -2.915  12.430  22.295  0.00  0.00    +0.000 C 
ATOM      3  C   UNL     1      -2.579  12.799  20.901  0.00  0.00    +0.000 C 
ATOM      4  O   UNL     1      -2.148  12.090  20.029  0.00  0.00    +0.000 OA
ATOM      5  O   UNL     1      -2.695  14.145  20.884  0.00  0.00    +0.000 OA
ATOM      6  C   UNL     1      -3.640  14.534  21.873  0.00  0.00    +0.000 C 
ATOM      7  C   UNL     1      -3.235  15.794  22.577  0.00  0.00    +0.000 C 
ATOM      8  C   UNL     1      -3.857  16.946  22.236  0.00  0.00    +0.000 C 
ATOM      9  C   UNL     1      -4.560  17.092  20.909  0.00  0.00    +0.000 C 
ATOM     10  C   UNL     1      -4.109  18.001  23.288  0.00  0.00    +0.000 C 
ATOM     11  C   UNL     1      -5.416  17.736  24.107  0.00  0.00    +0.000 C 
ATOM     12  C   UNL     1      -5.689  16.247  24.303  0.00  0.00    +0.000 C 
ATOM     13  C   UNL     1      -6.480  15.450  23.541  0.00  0.00    +0.000 C 
ATOM     14  C   UNL     1      -7.499  16.013  22.576  0.00  0.00    +0.000 C 
ATOM     15  C   UNL     1      -6.446  13.920  23.669  0.00  0.00    +0.000 C 
ATOM     16  C   UNL     1      -5.514  13.020  22.741  0.00  0.00    +0.000 C 
ATOM     17  C   UNL     1      -3.971  13.377  22.831  0.00  0.00    +0.000 C 
ENDROOT
BRANCH  11  18
ATOM     18  O   UNL     1      -5.308  18.338  25.396  0.00  0.00    +0.000 OA
ATOM     19  H   UNL     1      -4.518  17.979  25.832  0.00  0.00    +0.000 HD
ENDBRANCH  11  18
BRANCH  16  20
ATOM     20  O   UNL     1      -5.898  13.086  21.338  0.00  0.00    +0.000 OA
BRANCH  20  21
ATOM     21  C   UNL     1      -6.248  11.990  20.629  0.00  0.00    +0.000 C 
ATOM     22  O   UNL     1      -6.825  11.014  21.075  0.00  0.00    +0.000 OA
BRANCH  21  23
ATOM     23  C   UNL     1      -5.863  12.161  19.185  0.00  0.00    +0.000 C 
ATOM     24  C   UNL     1      -6.232  13.469  18.542  0.00  0.00    +0.000 C 
ATOM     25  C   UNL     1      -5.222  11.188  18.500  0.00  0.00    +0.000 C 
BRANCH  25  26
ATOM     26  C   UNL     1      -4.802  11.291  17.062  0.00  0.00    +0.000 C 
BRANCH  26  27
ATOM     27  O   UNL     1      -3.388  11.521  16.971  0.00  0.00    +0.000 OA
BRANCH  27  28
ATOM     28  C   UNL     1      -2.655  10.492  16.467  0.00  0.00    +0.000 C 
ATOM     29  C   UNL     1      -3.035  10.218  15.043  0.00  0.00    +0.000 C 
ATOM     30  O   UNL     1      -1.809   9.856  17.079  0.00  0.00    +0.000 OA
ENDBRANCH  27  28
ENDBRANCH  26  27
ENDBRANCH  25  26
ENDBRANCH  21  23
ENDBRANCH  20  21
ENDBRANCH  16  20
TORSDOF 7
ENDMDL
