MODEL 1
REMARK VINA RESULT:      -6.6      0.000      0.000
REMARK  Name = 
REMARK  3 active torsions:
REMARK  status: ('A' for Active; 'I' for Inactive)
REMARK    1  A    between atoms: C_2  and  O_3
REMARK    2  A    between atoms: C_2  and  C_4
REMARK    3  A    between atoms: C_4  and  C_5
REMARK                            x       y       z     vdW  Elec       q    Type
REMARK                         _______ _______ _______ _____ _____    ______ ____
ROOT
ATOM      1  C   UNL     1       0.990   9.494  19.038  0.00  0.00    +0.000 A 
ATOM      2  C   UNL     1       1.639   9.340  17.804  0.00  0.00    +0.000 A 
ATOM      3  C   UNL     1       2.506   8.271  17.597  0.00  0.00    +0.000 A 
ATOM      4  C   UNL     1       2.707   7.332  18.612  0.00  0.00    +0.000 A 
ATOM      5  C   UNL     1       2.075   7.463  19.850  0.00  0.00    +0.000 A 
ATOM      6  C   UNL     1       1.204   8.545  20.051  0.00  0.00    +0.000 A 
ATOM      7  C   UNL     1       2.298   6.434  20.916  0.00  0.00    +0.000 C 
ATOM      8  S   UNL     1       1.307   4.959  20.559  0.00  0.00    +0.000 S 
ATOM      9  C   UNL     1       2.106   4.259  19.112  0.00  0.00    +0.000 A 
ATOM     10  C   UNL     1       1.665   2.952  18.824  0.00  0.00    +0.000 A 
ATOM     11  C   UNL     1       2.191   2.211  17.762  0.00  0.00    +0.000 A 
ATOM     12  C   UNL     1       3.184   2.762  16.965  0.00  0.00    +0.000 A 
ATOM     13  C   UNL     1       3.635   4.054  17.225  0.00  0.00    +0.000 A 
ATOM     14  C   UNL     1       3.091   4.817  18.279  0.00  0.00    +0.000 A 
ATOM     15  C   UNL     1       3.615   6.205  18.350  0.00  0.00    +0.000 C 
ATOM     16  O   UNL     1       4.785   6.452  18.073  0.00  0.00    +0.000 OA
ENDROOT
BRANCH   1  17
ATOM     17  C   UNL     1       0.065  10.667  19.277  0.00  0.00    +0.000 C 
BRANCH  17  19
ATOM     18  O   UNL     1      -1.929  10.012  18.119  0.00  0.00    +0.000 OA
ATOM     19  C   UNL     1      -1.068  10.869  18.297  0.00  0.00    +0.000 C 
BRANCH  19  20
ATOM     20  O   UNL     1      -1.104  12.039  17.627  0.00  0.00    +0.000 OA
ATOM     21  H   UNL     1      -1.850  12.139  17.007  0.00  0.00    +0.000 HD
ENDBRANCH  19  20
ENDBRANCH  17  19
ENDBRANCH   1  17
TORSDOF 3
ENDMDL
MODEL 2
REMARK VINA RESULT:      -6.6      4.276      6.924
REMARK  Name = 
REMARK  3 active torsions:
REMARK  status: ('A' for Active; 'I' for Inactive)
REMARK    1  A    between atoms: C_2  and  O_3
REMARK    2  A    between atoms: C_2  and  C_4
REMARK    3  A    between atoms: C_4  and  C_5
REMARK                            x       y       z     vdW  Elec       q    Type
REMARK                         _______ _______ _______ _____ _____    ______ ____
ROOT
ATOM      1  C   UNL     1       5.939   4.457  14.465  0.00  0.00    +0.000 A 
ATOM      2  C   UNL     1       5.776   3.282  15.214  0.00  0.00    +0.000 A 
ATOM      3  C   UNL     1       5.560   3.352  16.588  0.00  0.00    +0.000 A 
ATOM      4  C   UNL     1       5.479   4.598  17.217  0.00  0.00    +0.000 A 
ATOM      5  C   UNL     1       5.640   5.781  16.494  0.00  0.00    +0.000 A 
ATOM      6  C   UNL     1       5.859   5.702  15.110  0.00  0.00    +0.000 A 
ATOM      7  C   UNL     1       5.533   7.103  17.191  0.00  0.00    +0.000 C 
ATOM      8  S   UNL     1       3.790   7.507  17.474  0.00  0.00    +0.000 S 
ATOM      9  C   UNL     1       3.283   6.320  18.722  0.00  0.00    +0.000 A 
ATOM     10  C   UNL     1       2.032   6.629  19.293  0.00  0.00    +0.000 A 
ATOM     11  C   UNL     1       1.474   5.855  20.314  0.00  0.00    +0.000 A 
ATOM     12  C   UNL     1       2.164   4.752  20.797  0.00  0.00    +0.000 A 
ATOM     13  C   UNL     1       3.400   4.422  20.247  0.00  0.00    +0.000 A 
ATOM     14  C   UNL     1       3.959   5.184  19.199  0.00  0.00    +0.000 A 
ATOM     15  C   UNL     1       5.230   4.633  18.666  0.00  0.00    +0.000 C 
ATOM     16  O   UNL     1       6.043   4.088  19.409  0.00  0.00    +0.000 OA
ENDROOT
BRANCH   1  17
ATOM     17  C   UNL     1       6.197   4.387  12.976  0.00  0.00    +0.000 C 
BRANCH  17  19
ATOM     18  O   UNL     1       4.373   3.350  11.818  0.00  0.00    +0.000 OA
ATOM     19  C   UNL     1       5.533   3.266  12.208  0.00  0.00    +0.000 C 
BRANCH  19  20
ATOM     20  O   UNL     1       6.272   2.166  11.957  0.00  0.00    +0.000 OA
ATOM     21  H   UNL     1       6.719   1.781  12.734  0.00  0.00    +0.000 HD
ENDBRANCH  19  20
ENDBRANCH  17  19
ENDBRANCH   1  17
TORSDOF 3
ENDMDL
MODEL 3
REMARK VINA RESULT:      -6.6      3.794      5.661
REMARK  Name = 
REMARK  3 active torsions:
REMARK  status: ('A' for Active; 'I' for Inactive)
REMARK    1  A    between atoms: C_2  and  O_3
REMARK    2  A    between atoms: C_2  and  C_4
REMARK    3  A    between atoms: C_4  and  C_5
REMARK                            x       y       z     vdW  Elec       q    Type
REMARK                         _______ _______ _______ _____ _____    ______ ____
ROOT
ATOM      1  C   UNL     1       5.819   6.474  17.072  0.00  0.00    +0.000 A 
ATOM      2  C   UNL     1       4.628   7.166  17.339  0.00  0.00    +0.000 A 
ATOM      3  C   UNL     1       3.464   6.466  17.643  0.00  0.00    +0.000 A 
ATOM      4  C   UNL     1       3.489   5.070  17.710  0.00  0.00    +0.000 A 
ATOM      5  C   UNL     1       4.660   4.358  17.445  0.00  0.00    +0.000 A 
ATOM      6  C   UNL     1       5.829   5.071  17.139  0.00  0.00    +0.000 A 
ATOM      7  C   UNL     1       4.662   2.863  17.538  0.00  0.00    +0.000 C 
ATOM      8  S   UNL     1       4.739   2.357  19.277  0.00  0.00    +0.000 S 
ATOM      9  C   UNL     1       3.130   2.826  19.920  0.00  0.00    +0.000 A 
ATOM     10  C   UNL     1       2.869   2.276  21.191  0.00  0.00    +0.000 A 
ATOM     11  C   UNL     1       1.655   2.483  21.851  0.00  0.00    +0.000 A 
ATOM     12  C   UNL     1       0.664   3.244  21.247  0.00  0.00    +0.000 A 
ATOM     13  C   UNL     1       0.898   3.803  19.993  0.00  0.00    +0.000 A 
ATOM     14  C   UNL     1       2.130   3.618  19.331  0.00  0.00    +0.000 A 
ATOM     15  C   UNL     1       2.245   4.366  18.053  0.00  0.00    +0.000 C 
ATOM     16  O   UNL     1       1.271   4.512  17.318  0.00  0.00    +0.000 OA
ENDROOT
BRANCH   1  17
ATOM     17  C   UNL     1       7.081   7.229  16.718  0.00  0.00    +0.000 C 
BRANCH  17  19
ATOM     18  O   UNL     1       8.071   9.066  17.896  0.00  0.00    +0.000 OA
ATOM     19  C   UNL     1       7.855   7.859  17.854  0.00  0.00    +0.000 C 
BRANCH  19  20
ATOM     20  O   UNL     1       8.293   7.040  18.832  0.00  0.00    +0.000 OA
ATOM     21  H   UNL     1       8.793   6.260  18.527  0.00  0.00    +0.000 HD
ENDBRANCH  19  20
ENDBRANCH  17  19
ENDBRANCH   1  17
TORSDOF 3
ENDMDL
MODEL 4
REMARK VINA RESULT:      -6.5      3.619      6.414
REMARK  Name = 
REMARK  3 active torsions:
REMARK  status: ('A' for Active; 'I' for Inactive)
REMARK    1  A    between atoms: C_2  and  O_3
REMARK    2  A    between atoms: C_2  and  C_4
REMARK    3  A    between atoms: C_4  and  C_5
REMARK                            x       y       z     vdW  Elec       q    Type
REMARK                         _______ _______ _______ _____ _____    ______ ____
ROOT
ATOM      1  C   UNL     1       6.336   5.016  15.999  0.00  0.00    +0.000 A 
ATOM      2  C   UNL     1       6.273   6.031  16.965  0.00  0.00    +0.000 A 
ATOM      3  C   UNL     1       5.143   6.166  17.768  0.00  0.00    +0.000 A 
ATOM      4  C   UNL     1       4.082   5.268  17.630  0.00  0.00    +0.000 A 
ATOM      5  C   UNL     1       4.119   4.251  16.674  0.00  0.00    +0.000 A 
ATOM      6  C   UNL     1       5.260   4.124  15.868  0.00  0.00    +0.000 A 
ATOM      7  C   UNL     1       2.972   3.293  16.557  0.00  0.00    +0.000 C 
ATOM      8  S   UNL     1       3.066   2.061  17.882  0.00  0.00    +0.000 S 
ATOM      9  C   UNL     1       2.687   3.007  19.360  0.00  0.00    +0.000 A 
ATOM     10  C   UNL     1       2.435   2.190  20.481  0.00  0.00    +0.000 A 
ATOM     11  C   UNL     1       2.080   2.726  21.721  0.00  0.00    +0.000 A 
ATOM     12  C   UNL     1       1.959   4.101  21.868  0.00  0.00    +0.000 A 
ATOM     13  C   UNL     1       2.208   4.931  20.777  0.00  0.00    +0.000 A 
ATOM     14  C   UNL     1       2.591   4.399  19.529  0.00  0.00    +0.000 A 
ATOM     15  C   UNL     1       2.913   5.428  18.508  0.00  0.00    +0.000 C 
ATOM     16  O   UNL     1       2.289   6.485  18.459  0.00  0.00    +0.000 OA
ENDROOT
BRANCH   1  17
ATOM     17  C   UNL     1       7.551   4.880  15.108  0.00  0.00    +0.000 C 
BRANCH  17  19
ATOM     18  O   UNL     1       6.549   4.029  13.105  0.00  0.00    +0.000 OA
ATOM     19  C   UNL     1       7.316   4.839  13.616  0.00  0.00    +0.000 C 
BRANCH  19  20
ATOM     20  O   UNL     1       7.979   5.739  12.861  0.00  0.00    +0.000 OA
ATOM     21  H   UNL     1       7.433   6.466  12.507  0.00  0.00    +0.000 HD
ENDBRANCH  19  20
ENDBRANCH  17  19
ENDBRANCH   1  17
TORSDOF 3
ENDMDL
MODEL 5
REMARK VINA RESULT:      -6.4      0.825      1.124
REMARK  Name = 
REMARK  3 active torsions:
REMARK  status: ('A' for Active; 'I' for Inactive)
REMARK    1  A    between atoms: C_2  and  O_3
REMARK    2  A    between atoms: C_2  and  C_4
REMARK    3  A    between atoms: C_4  and  C_5
REMARK                            x       y       z     vdW  Elec       q    Type
REMARK                         _______ _______ _______ _____ _____    ______ ____
ROOT
ATOM      1  C   UNL     1       0.935   9.514  19.103  0.00  0.00    +0.000 A 
ATOM      2  C   UNL     1       1.565   9.377  17.857  0.00  0.00    +0.000 A 
ATOM      3  C   UNL     1       2.439   8.317  17.626  0.00  0.00    +0.000 A 
ATOM      4  C   UNL     1       2.667   7.373  18.630  0.00  0.00    +0.000 A 
ATOM      5  C   UNL     1       2.055   7.488  19.880  0.00  0.00    +0.000 A 
ATOM      6  C   UNL     1       1.177   8.559  20.104  0.00  0.00    +0.000 A 
ATOM      7  C   UNL     1       2.306   6.453  20.933  0.00  0.00    +0.000 C 
ATOM      8  S   UNL     1       1.324   4.971  20.582  0.00  0.00    +0.000 S 
ATOM      9  C   UNL     1       2.104   4.290  19.115  0.00  0.00    +0.000 A 
ATOM     10  C   UNL     1       1.671   2.981  18.824  0.00  0.00    +0.000 A 
ATOM     11  C   UNL     1       2.185   2.254  17.748  0.00  0.00    +0.000 A 
ATOM     12  C   UNL     1       3.160   2.820  16.938  0.00  0.00    +0.000 A 
ATOM     13  C   UNL     1       3.602   4.115  17.200  0.00  0.00    +0.000 A 
ATOM     14  C   UNL     1       3.069   4.864  18.270  0.00  0.00    +0.000 A 
ATOM     15  C   UNL     1       3.580   6.257  18.343  0.00  0.00    +0.000 C 
ATOM     16  O   UNL     1       4.744   6.518  18.048  0.00  0.00    +0.000 OA
ENDROOT
BRANCH   1  17
ATOM     17  C   UNL     1       0.004  10.676  19.367  0.00  0.00    +0.000 C 
BRANCH  17  19
ATOM     18  O   UNL     1       1.402  12.618  19.488  0.00  0.00    +0.000 OA
ATOM     19  C   UNL     1       0.466  12.049  18.936  0.00  0.00    +0.000 C 
BRANCH  19  20
ATOM     20  O   UNL     1      -0.188  12.625  17.906  0.00  0.00    +0.000 OA
ATOM     21  H   UNL     1      -1.114  12.871  18.089  0.00  0.00    +0.000 HD
ENDBRANCH  19  20
ENDBRANCH  17  19
ENDBRANCH   1  17
TORSDOF 3
ENDMDL
MODEL 6
REMARK VINA RESULT:      -6.4      2.427      3.859
REMARK  Name = 
REMARK  3 active torsions:
REMARK  status: ('A' for Active; 'I' for Inactive)
REMARK    1  A    between atoms: C_2  and  O_3
REMARK    2  A    between atoms: C_2  and  C_4
REMARK    3  A    between atoms: C_4  and  C_5
REMARK                            x       y       z     vdW  Elec       q    Type
REMARK                         _______ _______ _______ _____ _____    ______ ____
ROOT
ATOM      1  C   UNL     1      -2.285  11.270  18.825  0.00  0.00    +0.000 A 
ATOM      2  C   UNL     1      -1.970  10.657  17.604  0.00  0.00    +0.000 A 
ATOM      3  C   UNL     1      -0.728  10.052  17.423  0.00  0.00    +0.000 A 
ATOM      4  C   UNL     1       0.194  10.032  18.472  0.00  0.00    +0.000 A 
ATOM      5  C   UNL     1      -0.094  10.638  19.697  0.00  0.00    +0.000 A 
ATOM      6  C   UNL     1      -1.346  11.246  19.869  0.00  0.00    +0.000 A 
ATOM      7  C   UNL     1       0.908  10.588  20.809  0.00  0.00    +0.000 C 
ATOM      8  S   UNL     1       0.867   8.958  21.599  0.00  0.00    +0.000 S 
ATOM      9  C   UNL     1       1.558   7.870  20.349  0.00  0.00    +0.000 A 
ATOM     10  C   UNL     1       1.875   6.592  20.852  0.00  0.00    +0.000 A 
ATOM     11  C   UNL     1       2.462   5.608  20.054  0.00  0.00    +0.000 A 
ATOM     12  C   UNL     1       2.757   5.884  18.726  0.00  0.00    +0.000 A 
ATOM     13  C   UNL     1       2.450   7.138  18.202  0.00  0.00    +0.000 A 
ATOM     14  C   UNL     1       1.834   8.128  18.995  0.00  0.00    +0.000 A 
ATOM     15  C   UNL     1       1.487   9.366  18.252  0.00  0.00    +0.000 C 
ATOM     16  O   UNL     1       2.214   9.788  17.356  0.00  0.00    +0.000 OA
ENDROOT
BRANCH   1  17
ATOM     17  C   UNL     1      -3.622  11.950  19.019  0.00  0.00    +0.000 C 
BRANCH  17  19
ATOM     18  O   UNL     1      -5.538  10.748  18.226  0.00  0.00    +0.000 OA
ATOM     19  C   UNL     1      -4.713  11.633  18.022  0.00  0.00    +0.000 C 
BRANCH  19  20
ATOM     20  O   UNL     1      -4.753  12.373  16.894  0.00  0.00    +0.000 OA
ATOM     21  H   UNL     1      -5.308  12.010  16.180  0.00  0.00    +0.000 HD
ENDBRANCH  19  20
ENDBRANCH  17  19
ENDBRANCH   1  17
TORSDOF 3
ENDMDL
MODEL 7
REMARK VINA RESULT:      -6.4      4.536      6.618
REMARK  Name = 
REMARK  3 active torsions:
REMARK  status: ('A' for Active; 'I' for Inactive)
REMARK    1  A    between atoms: C_2  and  O_3
REMARK    2  A    between atoms: C_2  and  C_4
REMARK    3  A    between atoms: C_4  and  C_5
REMARK                            x       y       z     vdW  Elec       q    Type
REMARK                         _______ _______ _______ _____ _____    ______ ____
ROOT
ATOM      1  C   UNL     1       5.740   4.711  14.661  0.00  0.00    +0.000 A 
ATOM      2  C   UNL     1       6.002   3.499  15.316  0.00  0.00    +0.000 A 
ATOM      3  C   UNL     1       5.766   3.376  16.683  0.00  0.00    +0.000 A 
ATOM      4  C   UNL     1       5.240   4.455  17.398  0.00  0.00    +0.000 A 
ATOM      5  C   UNL     1       4.973   5.673  16.770  0.00  0.00    +0.000 A 
ATOM      6  C   UNL     1       5.216   5.789  15.393  0.00  0.00    +0.000 A 
ATOM      7  C   UNL     1       4.396   6.809  17.557  0.00  0.00    +0.000 C 
ATOM      8  S   UNL     1       2.621   6.542  17.807  0.00  0.00    +0.000 S 
ATOM      9  C   UNL     1       2.563   5.155  18.946  0.00  0.00    +0.000 A 
ATOM     10  C   UNL     1       1.280   4.951  19.492  0.00  0.00    +0.000 A 
ATOM     11  C   UNL     1       1.027   3.950  20.433  0.00  0.00    +0.000 A 
ATOM     12  C   UNL     1       2.063   3.128  20.858  0.00  0.00    +0.000 A 
ATOM     13  C   UNL     1       3.339   3.305  20.330  0.00  0.00    +0.000 A 
ATOM     14  C   UNL     1       3.596   4.299  19.362  0.00  0.00    +0.000 A 
ATOM     15  C   UNL     1       4.985   4.281  18.835  0.00  0.00    +0.000 C 
ATOM     16  O   UNL     1       5.933   4.002  19.565  0.00  0.00    +0.000 OA
ENDROOT
BRANCH   1  17
ATOM     17  C   UNL     1       6.017   4.859  13.181  0.00  0.00    +0.000 C 
BRANCH  17  19
ATOM     18  O   UNL     1       6.759   2.938  11.956  0.00  0.00    +0.000 OA
ATOM     19  C   UNL     1       5.817   3.638  12.312  0.00  0.00    +0.000 C 
BRANCH  19  20
ATOM     20  O   UNL     1       4.552   3.339  11.949  0.00  0.00    +0.000 OA
ATOM     21  H   UNL     1       3.861   3.645  12.565  0.00  0.00    +0.000 HD
ENDBRANCH  19  20
ENDBRANCH  17  19
ENDBRANCH   1  17
TORSDOF 3
ENDMDL
MODEL 8
REMARK VINA RESULT:      -6.4      1.285      1.378
REMARK  Name = 
REMARK  3 active torsions:
REMARK  status: ('A' for Active; 'I' for Inactive)
REMARK    1  A    between atoms: C_2  and  O_3
REMARK    2  A    between atoms: C_2  and  C_4
REMARK    3  A    between atoms: C_4  and  C_5
REMARK                            x       y       z     vdW  Elec       q    Type
REMARK                         _______ _______ _______ _____ _____    ______ ____
ROOT
ATOM      1  C   UNL     1       1.376   9.251  18.967  0.00  0.00    +0.000 A 
ATOM      2  C   UNL     1       2.164   9.046  17.825  0.00  0.00    +0.000 A 
ATOM      3  C   UNL     1       2.972   7.916  17.725  0.00  0.00    +0.000 A 
ATOM      4  C   UNL     1       2.975   6.970  18.754  0.00  0.00    +0.000 A 
ATOM      5  C   UNL     1       2.202   7.153  19.902  0.00  0.00    +0.000 A 
ATOM      6  C   UNL     1       1.392   8.294  19.995  0.00  0.00    +0.000 A 
ATOM      7  C   UNL     1       2.213   6.115  20.983  0.00  0.00    +0.000 C 
ATOM      8  S   UNL     1       1.173   4.713  20.497  0.00  0.00    +0.000 S 
ATOM      9  C   UNL     1       2.098   3.951  19.160  0.00  0.00    +0.000 A 
ATOM     10  C   UNL     1       1.604   2.677  18.812  0.00  0.00    +0.000 A 
ATOM     11  C   UNL     1       2.207   1.895  17.824  0.00  0.00    +0.000 A 
ATOM     12  C   UNL     1       3.331   2.369  17.161  0.00  0.00    +0.000 A 
ATOM     13  C   UNL     1       3.836   3.627  17.482  0.00  0.00    +0.000 A 
ATOM     14  C   UNL     1       3.218   4.432  18.462  0.00  0.00    +0.000 A 
ATOM     15  C   UNL     1       3.826   5.780  18.604  0.00  0.00    +0.000 C 
ATOM     16  O   UNL     1       5.037   5.942  18.480  0.00  0.00    +0.000 OA
ENDROOT
BRANCH   1  17
ATOM     17  C   UNL     1       0.515  10.488  19.091  0.00  0.00    +0.000 C 
BRANCH  17  19
ATOM     18  O   UNL     1      -0.794  10.765  21.080  0.00  0.00    +0.000 OA
ATOM     19  C   UNL     1       0.250  11.013  20.484  0.00  0.00    +0.000 C 
BRANCH  19  20
ATOM     20  O   UNL     1       1.215  11.761  21.056  0.00  0.00    +0.000 OA
ATOM     21  H   UNL     1       1.167  12.716  20.866  0.00  0.00    +0.000 HD
ENDBRANCH  19  20
ENDBRANCH  17  19
ENDBRANCH   1  17
TORSDOF 3
ENDMDL
MODEL 9
REMARK VINA RESULT:      -6.3      4.831      6.632
REMARK  Name = 
REMARK  3 active torsions:
REMARK  status: ('A' for Active; 'I' for Inactive)
REMARK    1  A    between atoms: C_2  and  O_3
REMARK    2  A    between atoms: C_2  and  C_4
REMARK    3  A    between atoms: C_4  and  C_5
REMARK                            x       y       z     vdW  Elec       q    Type
REMARK                         _______ _______ _______ _____ _____    ______ ____
ROOT
ATOM      1  C   UNL     1       3.189   3.236  18.649  0.00  0.00    +0.000 A 
ATOM      2  C   UNL     1       4.139   3.223  19.682  0.00  0.00    +0.000 A 
ATOM      3  C   UNL     1       5.409   3.753  19.473  0.00  0.00    +0.000 A 
ATOM      4  C   UNL     1       5.729   4.326  18.240  0.00  0.00    +0.000 A 
ATOM      5  C   UNL     1       4.803   4.349  17.195  0.00  0.00    +0.000 A 
ATOM      6  C   UNL     1       3.526   3.811  17.413  0.00  0.00    +0.000 A 
ATOM      7  C   UNL     1       5.168   4.983  15.887  0.00  0.00    +0.000 C 
ATOM      8  S   UNL     1       5.063   6.787  16.030  0.00  0.00    +0.000 S 
ATOM      9  C   UNL     1       6.438   7.202  17.108  0.00  0.00    +0.000 A 
ATOM     10  C   UNL     1       6.711   8.584  17.135  0.00  0.00    +0.000 A 
ATOM     11  C   UNL     1       7.769   9.114  17.879  0.00  0.00    +0.000 A 
ATOM     12  C   UNL     1       8.588   8.265  18.611  0.00  0.00    +0.000 A 
ATOM     13  C   UNL     1       8.336   6.895  18.605  0.00  0.00    +0.000 A 
ATOM     14  C   UNL     1       7.256   6.356  17.876  0.00  0.00    +0.000 A 
ATOM     15  C   UNL     1       7.074   4.894  18.062  0.00  0.00    +0.000 C 
ATOM     16  O   UNL     1       8.042   4.149  18.193  0.00  0.00    +0.000 OA
ENDROOT
BRANCH   1  17
ATOM     17  C   UNL     1       1.816   2.640  18.863  0.00  0.00    +0.000 C 
BRANCH  17  19
ATOM     18  O   UNL     1       1.279   2.258  21.167  0.00  0.00    +0.000 OA
ATOM     19  C   UNL     1       1.119   2.951  20.168  0.00  0.00    +0.000 C 
BRANCH  19  20
ATOM     20  O   UNL     1       0.315   4.035  20.196  0.00  0.00    +0.000 OA
ATOM     21  H   UNL     1      -0.604   3.877  19.909  0.00  0.00    +0.000 HD
ENDBRANCH  19  20
ENDBRANCH  17  19
ENDBRANCH   1  17
TORSDOF 3
ENDMDL
