MODEL 1
REMARK VINA RESULT:      -7.2      0.000      0.000
REMARK  Name = 
REMARK  9 active torsions:
REMARK  status: ('A' for Active; 'I' for Inactive)
REMARK    1  A    between atoms: C_1  and  O_2
REMARK    2  A    between atoms: O_2  and  C_3
REMARK    3  A    between atoms: C_5  and  C_6
REMARK    4  A    between atoms: C_7  and  C_8
REMARK    5  A    between atoms: N_10  and  C_11
REMARK    6  A    between atoms: C_11  and  C_12
REMARK    7  A    between atoms: C_12  and  C_13
REMARK    8  A    between atoms: C_16  and  O_17
REMARK    9  A    between atoms: C_22  and  O_23
REMARK                            x       y       z     vdW  Elec       q    Type
REMARK                         _______ _______ _______ _____ _____    ______ ____
ROOT
ATOM      1  C   UNL     1       1.709   3.175  18.407  0.00  0.00    +0.000 C 
ATOM      2  O   UNL     1       0.848   3.741  17.754  0.00  0.00    +0.000 OA
ATOM      3  N   UNL     1       1.920   3.376  19.754  0.00  0.00    +0.000 N 
ATOM      4  H   UNL     1       2.608   2.842  20.258  0.00  0.00    +0.000 HD
ENDROOT
BRANCH   1   6
ATOM      5  C   UNL     1       3.831   2.420  17.297  0.00  0.00    +0.000 C 
ATOM      6  C   UNL     1       2.610   2.170  17.801  0.00  0.00    +0.000 C 
BRANCH   5   9
ATOM      7  C   UNL     1       6.026   5.414  18.231  0.00  0.00    +0.000 A 
ATOM      8  C   UNL     1       5.316   4.205  18.331  0.00  0.00    +0.000 A 
ATOM      9  C   UNL     1       4.607   3.676  17.244  0.00  0.00    +0.000 A 
ATOM     10  C   UNL     1       4.682   4.364  16.022  0.00  0.00    +0.000 A 
ATOM     11  C   UNL     1       5.326   5.596  15.925  0.00  0.00    +0.000 A 
ATOM     12  C   UNL     1       5.976   6.135  17.036  0.00  0.00    +0.000 A 
BRANCH   7  14
ATOM     13  C   UNL     1       8.087   5.586  19.381  0.00  0.00    +0.000 C 
ATOM     14  O   UNL     1       6.678   5.785  19.381  0.00  0.00    +0.000 OA
ENDBRANCH   7  14
BRANCH  12  15
ATOM     15  O   UNL     1       6.538   7.377  16.929  0.00  0.00    +0.000 OA
ATOM     16  H   UNL     1       6.099   7.980  17.551  0.00  0.00    +0.000 HD
ENDBRANCH  12  15
ENDBRANCH   5   9
ENDBRANCH   1   6
BRANCH   3  17
ATOM     17  C   UNL     1       1.158   4.416  20.422  0.00  0.00    +0.000 C 
BRANCH  17  18
ATOM     18  C   UNL     1       1.943   5.642  20.903  0.00  0.00    +0.000 C 
BRANCH  18  19
ATOM     19  C   UNL     1       1.931   6.834  19.975  0.00  0.00    +0.000 A 
ATOM     20  C   UNL     1       1.330   8.049  20.345  0.00  0.00    +0.000 A 
ATOM     21  C   UNL     1       1.350   9.143  19.474  0.00  0.00    +0.000 A 
ATOM     22  C   UNL     1       1.979   9.031  18.240  0.00  0.00    +0.000 A 
ATOM     23  C   UNL     1       2.601   7.846  17.867  0.00  0.00    +0.000 A 
ATOM     24  C   UNL     1       2.581   6.754  18.734  0.00  0.00    +0.000 A 
BRANCH  22  25
ATOM     25  O   UNL     1       2.015  10.069  17.357  0.00  0.00    +0.000 OA
ATOM     26  H   UNL     1       2.635   9.844  16.645  0.00  0.00    +0.000 HD
ENDBRANCH  22  25
ENDBRANCH  18  19
ENDBRANCH  17  18
ENDBRANCH   3  17
TORSDOF 8
ENDMDL
MODEL 2
REMARK VINA RESULT:      -7.1      0.932      2.123
REMARK  Name = 
REMARK  9 active torsions:
REMARK  status: ('A' for Active; 'I' for Inactive)
REMARK    1  A    between atoms: C_1  and  O_2
REMARK    2  A    between atoms: O_2  and  C_3
REMARK    3  A    between atoms: C_5  and  C_6
REMARK    4  A    between atoms: C_7  and  C_8
REMARK    5  A    between atoms: N_10  and  C_11
REMARK    6  A    between atoms: C_11  and  C_12
REMARK    7  A    between atoms: C_12  and  C_13
REMARK    8  A    between atoms: C_16  and  O_17
REMARK    9  A    between atoms: C_22  and  O_23
REMARK                            x       y       z     vdW  Elec       q    Type
REMARK                         _______ _______ _______ _____ _____    ______ ____
ROOT
ATOM      1  C   UNL     1       1.802   3.450  18.411  0.00  0.00    +0.000 C 
ATOM      2  O   UNL     1       1.193   4.182  17.648  0.00  0.00    +0.000 OA
ATOM      3  N   UNL     1       1.801   3.582  19.783  0.00  0.00    +0.000 N 
ATOM      4  H   UNL     1       2.275   2.917  20.369  0.00  0.00    +0.000 HD
ENDROOT
BRANCH   1   6
ATOM      5  C   UNL     1       3.856   2.369  17.452  0.00  0.00    +0.000 C 
ATOM      6  C   UNL     1       2.598   2.303  17.919  0.00  0.00    +0.000 C 
BRANCH   5   9
ATOM      7  C   UNL     1       6.046   5.194  16.080  0.00  0.00    +0.000 A 
ATOM      8  C   UNL     1       5.150   4.112  16.129  0.00  0.00    +0.000 A 
ATOM      9  C   UNL     1       4.779   3.518  17.343  0.00  0.00    +0.000 A 
ATOM     10  C   UNL     1       5.284   4.083  18.525  0.00  0.00    +0.000 A 
ATOM     11  C   UNL     1       6.225   5.111  18.489  0.00  0.00    +0.000 A 
ATOM     12  C   UNL     1       6.626   5.650  17.266  0.00  0.00    +0.000 A 
BRANCH   7  14
ATOM     13  C   UNL     1       6.969   4.774  13.943  0.00  0.00    +0.000 C 
ATOM     14  O   UNL     1       6.293   5.670  14.816  0.00  0.00    +0.000 OA
ENDBRANCH   7  14
BRANCH  12  15
ATOM     15  O   UNL     1       7.600   6.609  17.260  0.00  0.00    +0.000 OA
ATOM     16  H   UNL     1       7.189   7.483  17.355  0.00  0.00    +0.000 HD
ENDBRANCH  12  15
ENDBRANCH   5   9
ENDBRANCH   1   6
BRANCH   3  17
ATOM     17  C   UNL     1       1.135   4.736  20.362  0.00  0.00    +0.000 C 
BRANCH  17  18
ATOM     18  C   UNL     1       2.032   5.903  20.788  0.00  0.00    +0.000 C 
BRANCH  18  19
ATOM     19  C   UNL     1       2.050   7.092  19.856  0.00  0.00    +0.000 A 
ATOM     20  C   UNL     1       2.714   7.049  18.620  0.00  0.00    +0.000 A 
ATOM     21  C   UNL     1       2.699   8.158  17.768  0.00  0.00    +0.000 A 
ATOM     22  C   UNL     1       2.012   9.306  18.142  0.00  0.00    +0.000 A 
ATOM     23  C   UNL     1       1.327   9.359  19.349  0.00  0.00    +0.000 A 
ATOM     24  C   UNL     1       1.342   8.254  20.200  0.00  0.00    +0.000 A 
BRANCH  22  25
ATOM     25  O   UNL     1       1.978  10.412  17.347  0.00  0.00    +0.000 OA
ATOM     26  H   UNL     1       1.793  10.130  16.437  0.00  0.00    +0.000 HD
ENDBRANCH  22  25
ENDBRANCH  18  19
ENDBRANCH  17  18
ENDBRANCH   3  17
TORSDOF 8
ENDMDL
MODEL 3
REMARK VINA RESULT:      -6.8      0.544      1.143
REMARK  Name = 
REMARK  9 active torsions:
REMARK  status: ('A' for Active; 'I' for Inactive)
REMARK    1  A    between atoms: C_1  and  O_2
REMARK    2  A    between atoms: O_2  and  C_3
REMARK    3  A    between atoms: C_5  and  C_6
REMARK    4  A    between atoms: C_7  and  C_8
REMARK    5  A    between atoms: N_10  and  C_11
REMARK    6  A    between atoms: C_11  and  C_12
REMARK    7  A    between atoms: C_12  and  C_13
REMARK    8  A    between atoms: C_16  and  O_17
REMARK    9  A    between atoms: C_22  and  O_23
REMARK                            x       y       z     vdW  Elec       q    Type
REMARK                         _______ _______ _______ _____ _____    ______ ____
ROOT
ATOM      1  C   UNL     1       1.861   3.481  18.241  0.00  0.00    +0.000 C 
ATOM      2  O   UNL     1       1.136   4.182  17.555  0.00  0.00    +0.000 OA
ATOM      3  N   UNL     1       1.972   3.584  19.611  0.00  0.00    +0.000 N 
ATOM      4  H   UNL     1       2.543   2.943  20.135  0.00  0.00    +0.000 HD
ENDROOT
BRANCH   1   6
ATOM      5  C   UNL     1       3.922   2.562  17.138  0.00  0.00    +0.000 C 
ATOM      6  C   UNL     1       2.689   2.406  17.650  0.00  0.00    +0.000 C 
BRANCH   5   9
ATOM      7  C   UNL     1       6.716   5.112  17.728  0.00  0.00    +0.000 A 
ATOM      8  C   UNL     1       5.941   3.944  17.829  0.00  0.00    +0.000 A 
ATOM      9  C   UNL     1       4.783   3.761  17.061  0.00  0.00    +0.000 A 
ATOM     10  C   UNL     1       4.453   4.760  16.131  0.00  0.00    +0.000 A 
ATOM     11  C   UNL     1       5.174   5.952  16.068  0.00  0.00    +0.000 A 
ATOM     12  C   UNL     1       6.290   6.139  16.884  0.00  0.00    +0.000 A 
BRANCH   7  14
ATOM     13  C   UNL     1       7.632   5.676  19.836  0.00  0.00    +0.000 C 
ATOM     14  O   UNL     1       7.825   5.128  18.537  0.00  0.00    +0.000 OA
ENDBRANCH   7  14
BRANCH  12  15
ATOM     15  O   UNL     1       6.932   7.346  16.849  0.00  0.00    +0.000 OA
ATOM     16  H   UNL     1       7.509   7.377  16.068  0.00  0.00    +0.000 HD
ENDBRANCH  12  15
ENDBRANCH   5   9
ENDBRANCH   1   6
BRANCH   3  17
ATOM     17  C   UNL     1       1.281   4.673  20.277  0.00  0.00    +0.000 C 
BRANCH  17  18
ATOM     18  C   UNL     1       2.140   5.862  20.721  0.00  0.00    +0.000 C 
BRANCH  18  19
ATOM     19  C   UNL     1       2.106   7.071  19.816  0.00  0.00    +0.000 A 
ATOM     20  C   UNL     1       2.736   7.069  18.561  0.00  0.00    +0.000 A 
ATOM     21  C   UNL     1       2.673   8.195  17.735  0.00  0.00    +0.000 A 
ATOM     22  C   UNL     1       1.974   9.320  18.154  0.00  0.00    +0.000 A 
ATOM     23  C   UNL     1       1.323   9.332  19.381  0.00  0.00    +0.000 A 
ATOM     24  C   UNL     1       1.385   8.210  20.206  0.00  0.00    +0.000 A 
BRANCH  22  25
ATOM     25  O   UNL     1       1.895  10.442  17.385  0.00  0.00    +0.000 OA
ATOM     26  H   UNL     1       2.439  11.133  17.795  0.00  0.00    +0.000 HD
ENDBRANCH  22  25
ENDBRANCH  18  19
ENDBRANCH  17  18
ENDBRANCH   3  17
TORSDOF 8
ENDMDL
MODEL 4
REMARK VINA RESULT:      -6.5      2.427      3.269
REMARK  Name = 
REMARK  9 active torsions:
REMARK  status: ('A' for Active; 'I' for Inactive)
REMARK    1  A    between atoms: C_1  and  O_2
REMARK    2  A    between atoms: O_2  and  C_3
REMARK    3  A    between atoms: C_5  and  C_6
REMARK    4  A    between atoms: C_7  and  C_8
REMARK    5  A    between atoms: N_10  and  C_11
REMARK    6  A    between atoms: C_11  and  C_12
REMARK    7  A    between atoms: C_12  and  C_13
REMARK    8  A    between atoms: C_16  and  O_17
REMARK    9  A    between atoms: C_22  and  O_23
REMARK                            x       y       z     vdW  Elec       q    Type
REMARK                         _______ _______ _______ _____ _____    ______ ____
ROOT
ATOM      1  C   UNL     1       2.683   5.974  18.663  0.00  0.00    +0.000 C 
ATOM      2  O   UNL     1       3.159   6.190  19.765  0.00  0.00    +0.000 OA
ATOM      3  N   UNL     1       2.406   6.951  17.731  0.00  0.00    +0.000 N 
ATOM      4  H   UNL     1       2.066   6.714  16.814  0.00  0.00    +0.000 HD
ENDROOT
BRANCH   1   6
ATOM      5  C   UNL     1       3.135   3.874  17.362  0.00  0.00    +0.000 C 
ATOM      6  C   UNL     1       2.379   4.601  18.202  0.00  0.00    +0.000 C 
BRANCH   5   9
ATOM      7  C   UNL     1       6.837   4.663  16.784  0.00  0.00    +0.000 A 
ATOM      8  C   UNL     1       5.631   4.350  17.436  0.00  0.00    +0.000 A 
ATOM      9  C   UNL     1       4.433   4.186  16.727  0.00  0.00    +0.000 A 
ATOM     10  C   UNL     1       4.486   4.279  15.327  0.00  0.00    +0.000 A 
ATOM     11  C   UNL     1       5.659   4.654  14.673  0.00  0.00    +0.000 A 
ATOM     12  C   UNL     1       6.829   4.871  15.403  0.00  0.00    +0.000 A 
BRANCH   7  14
ATOM     13  C   UNL     1       7.800   5.738  18.659  0.00  0.00    +0.000 C 
ATOM     14  O   UNL     1       7.921   4.775  17.619  0.00  0.00    +0.000 OA
ENDBRANCH   7  14
BRANCH  12  15
ATOM     15  O   UNL     1       7.943   5.305  14.741  0.00  0.00    +0.000 OA
ATOM     16  H   UNL     1       7.858   5.090  13.798  0.00  0.00    +0.000 HD
ENDBRANCH  12  15
ENDBRANCH   5   9
ENDBRANCH   1   6
BRANCH   3  17
ATOM     17  C   UNL     1       2.572   8.340  18.121  0.00  0.00    +0.000 C 
BRANCH  17  18
ATOM     18  C   UNL     1       1.299   9.191  18.188  0.00  0.00    +0.000 C 
BRANCH  18  19
ATOM     19  C   UNL     1       0.842   9.582  19.574  0.00  0.00    +0.000 A 
ATOM     20  C   UNL     1       0.027  10.704  19.792  0.00  0.00    +0.000 A 
ATOM     21  C   UNL     1      -0.397  11.032  21.084  0.00  0.00    +0.000 A 
ATOM     22  C   UNL     1      -0.019  10.235  22.157  0.00  0.00    +0.000 A 
ATOM     23  C   UNL     1       0.765   9.106  21.959  0.00  0.00    +0.000 A 
ATOM     24  C   UNL     1       1.189   8.778  20.671  0.00  0.00    +0.000 A 
BRANCH  22  25
ATOM     25  O   UNL     1      -0.402  10.522  23.433  0.00  0.00    +0.000 OA
ATOM     26  H   UNL     1      -0.234  11.464  23.598  0.00  0.00    +0.000 HD
ENDBRANCH  22  25
ENDBRANCH  18  19
ENDBRANCH  17  18
ENDBRANCH   3  17
TORSDOF 8
ENDMDL
MODEL 5
REMARK VINA RESULT:      -6.4      4.671      7.175
REMARK  Name = 
REMARK  9 active torsions:
REMARK  status: ('A' for Active; 'I' for Inactive)
REMARK    1  A    between atoms: C_1  and  O_2
REMARK    2  A    between atoms: O_2  and  C_3
REMARK    3  A    between atoms: C_5  and  C_6
REMARK    4  A    between atoms: C_7  and  C_8
REMARK    5  A    between atoms: N_10  and  C_11
REMARK    6  A    between atoms: C_11  and  C_12
REMARK    7  A    between atoms: C_12  and  C_13
REMARK    8  A    between atoms: C_16  and  O_17
REMARK    9  A    between atoms: C_22  and  O_23
REMARK                            x       y       z     vdW  Elec       q    Type
REMARK                         _______ _______ _______ _____ _____    ______ ____
ROOT
ATOM      1  C   UNL     1       7.408   6.571  17.471  0.00  0.00    +0.000 C 
ATOM      2  O   UNL     1       7.736   6.099  18.547  0.00  0.00    +0.000 OA
ATOM      3  N   UNL     1       7.655   7.872  17.084  0.00  0.00    +0.000 N 
ATOM      4  H   UNL     1       7.413   8.194  16.163  0.00  0.00    +0.000 HD
ENDROOT
BRANCH   1   6
ATOM      5  C   UNL     1       5.481   5.255  16.545  0.00  0.00    +0.000 C 
ATOM      6  C   UNL     1       6.722   5.759  16.441  0.00  0.00    +0.000 C 
BRANCH   5   9
ATOM      7  C   UNL     1       2.848   6.657  18.945  0.00  0.00    +0.000 A 
ATOM      8  C   UNL     1       3.782   6.576  17.898  0.00  0.00    +0.000 A 
ATOM      9  C   UNL     1       4.477   5.391  17.621  0.00  0.00    +0.000 A 
ATOM     10  C   UNL     1       4.162   4.257  18.387  0.00  0.00    +0.000 A 
ATOM     11  C   UNL     1       3.289   4.339  19.471  0.00  0.00    +0.000 A 
ATOM     12  C   UNL     1       2.651   5.545  19.767  0.00  0.00    +0.000 A 
BRANCH   7  14
ATOM     13  C   UNL     1       1.976   8.567  17.856  0.00  0.00    +0.000 C 
ATOM     14  O   UNL     1       2.244   7.883  19.074  0.00  0.00    +0.000 OA
ENDBRANCH   7  14
BRANCH  12  15
ATOM     15  O   UNL     1       1.856   5.610  20.877  0.00  0.00    +0.000 OA
ATOM     16  H   UNL     1       0.985   5.234  20.668  0.00  0.00    +0.000 HD
ENDBRANCH  12  15
ENDBRANCH   5   9
ENDBRANCH   1   6
BRANCH   3  17
ATOM     17  C   UNL     1       8.231   8.781  18.059  0.00  0.00    +0.000 C 
BRANCH  17  18
ATOM     18  C   UNL     1       8.121  10.278  17.750  0.00  0.00    +0.000 C 
BRANCH  18  19
ATOM     19  C   UNL     1       9.239  11.142  18.283  0.00  0.00    +0.000 A 
ATOM     20  C   UNL     1      10.028  10.738  19.373  0.00  0.00    +0.000 A 
ATOM     21  C   UNL     1      11.069  11.549  19.834  0.00  0.00    +0.000 A 
ATOM     22  C   UNL     1      11.334  12.758  19.202  0.00  0.00    +0.000 A 
ATOM     23  C   UNL     1      10.582  13.163  18.106  0.00  0.00    +0.000 A 
ATOM     24  C   UNL     1       9.542  12.355  17.646  0.00  0.00    +0.000 A 
BRANCH  22  25
ATOM     25  O   UNL     1      12.333  13.583  19.623  0.00  0.00    +0.000 OA
ATOM     26  H   UNL     1      12.649  14.095  18.861  0.00  0.00    +0.000 HD
ENDBRANCH  22  25
ENDBRANCH  18  19
ENDBRANCH  17  18
ENDBRANCH   3  17
TORSDOF 8
ENDMDL
MODEL 6
REMARK VINA RESULT:      -6.4      1.341      5.452
REMARK  Name = 
REMARK  9 active torsions:
REMARK  status: ('A' for Active; 'I' for Inactive)
REMARK    1  A    between atoms: C_1  and  O_2
REMARK    2  A    between atoms: O_2  and  C_3
REMARK    3  A    between atoms: C_5  and  C_6
REMARK    4  A    between atoms: C_7  and  C_8
REMARK    5  A    between atoms: N_10  and  C_11
REMARK    6  A    between atoms: C_11  and  C_12
REMARK    7  A    between atoms: C_12  and  C_13
REMARK    8  A    between atoms: C_16  and  O_17
REMARK    9  A    between atoms: C_22  and  O_23
REMARK                            x       y       z     vdW  Elec       q    Type
REMARK                         _______ _______ _______ _____ _____    ______ ____
ROOT
ATOM      1  C   UNL     1       2.508   3.864  18.615  0.00  0.00    +0.000 C 
ATOM      2  O   UNL     1       1.682   3.861  17.717  0.00  0.00    +0.000 OA
ATOM      3  N   UNL     1       3.849   3.598  18.438  0.00  0.00    +0.000 N 
ATOM      4  H   UNL     1       4.497   3.669  19.204  0.00  0.00    +0.000 HD
ENDROOT
BRANCH   1   6
ATOM      5  C   UNL     1       1.954   5.432  20.497  0.00  0.00    +0.000 C 
ATOM      6  C   UNL     1       2.139   4.193  20.010  0.00  0.00    +0.000 C 
BRANCH   5   9
ATOM      7  C   UNL     1       1.487   9.133  19.635  0.00  0.00    +0.000 A 
ATOM      8  C   UNL     1       1.418   7.911  20.326  0.00  0.00    +0.000 A 
ATOM      9  C   UNL     1       2.010   6.746  19.822  0.00  0.00    +0.000 A 
ATOM     10  C   UNL     1       2.738   6.851  18.625  0.00  0.00    +0.000 A 
ATOM     11  C   UNL     1       2.760   8.038  17.896  0.00  0.00    +0.000 A 
ATOM     12  C   UNL     1       2.113   9.173  18.387  0.00  0.00    +0.000 A 
BRANCH   7  14
ATOM     13  C   UNL     1      -0.479  10.424  19.888  0.00  0.00    +0.000 C 
ATOM     14  O   UNL     1       0.869  10.181  20.271  0.00  0.00    +0.000 OA
ENDBRANCH   7  14
BRANCH  12  15
ATOM     15  O   UNL     1       2.093  10.301  17.615  0.00  0.00    +0.000 OA
ATOM     16  H   UNL     1       2.903  10.812  17.775  0.00  0.00    +0.000 HD
ENDBRANCH  12  15
ENDBRANCH   5   9
ENDBRANCH   1   6
BRANCH   3  17
ATOM     17  C   UNL     1       4.297   3.164  17.127  0.00  0.00    +0.000 C 
BRANCH  17  18
ATOM     18  C   UNL     1       5.000   4.213  16.260  0.00  0.00    +0.000 C 
BRANCH  18  19
ATOM     19  C   UNL     1       5.971   5.118  16.981  0.00  0.00    +0.000 A 
ATOM     20  C   UNL     1       6.914   4.612  17.890  0.00  0.00    +0.000 A 
ATOM     21  C   UNL     1       7.814   5.470  18.530  0.00  0.00    +0.000 A 
ATOM     22  C   UNL     1       7.783   6.831  18.254  0.00  0.00    +0.000 A 
ATOM     23  C   UNL     1       6.875   7.348  17.339  0.00  0.00    +0.000 A 
ATOM     24  C   UNL     1       5.977   6.493  16.701  0.00  0.00    +0.000 A 
BRANCH  22  25
ATOM     25  O   UNL     1       8.635   7.704  18.861  0.00  0.00    +0.000 OA
ATOM     26  H   UNL     1       8.450   8.596  18.527  0.00  0.00    +0.000 HD
ENDBRANCH  22  25
ENDBRANCH  18  19
ENDBRANCH  17  18
ENDBRANCH   3  17
TORSDOF 8
ENDMDL
MODEL 7
REMARK VINA RESULT:      -6.4      3.349      7.665
REMARK  Name = 
REMARK  9 active torsions:
REMARK  status: ('A' for Active; 'I' for Inactive)
REMARK    1  A    between atoms: C_1  and  O_2
REMARK    2  A    between atoms: O_2  and  C_3
REMARK    3  A    between atoms: C_5  and  C_6
REMARK    4  A    between atoms: C_7  and  C_8
REMARK    5  A    between atoms: N_10  and  C_11
REMARK    6  A    between atoms: C_11  and  C_12
REMARK    7  A    between atoms: C_12  and  C_13
REMARK    8  A    between atoms: C_16  and  O_17
REMARK    9  A    between atoms: C_22  and  O_23
REMARK                            x       y       z     vdW  Elec       q    Type
REMARK                         _______ _______ _______ _____ _____    ______ ____
ROOT
ATOM      1  C   UNL     1       1.521   9.776  17.931  0.00  0.00    +0.000 C 
ATOM      2  O   UNL     1       2.364  10.619  18.191  0.00  0.00    +0.000 OA
ATOM      3  N   UNL     1       1.786   8.432  17.776  0.00  0.00    +0.000 N 
ATOM      4  H   UNL     1       1.045   7.771  17.618  0.00  0.00    +0.000 HD
ENDROOT
BRANCH   1   6
ATOM      5  C   UNL     1      -0.794  10.238  18.789  0.00  0.00    +0.000 C 
ATOM      6  C   UNL     1       0.090  10.126  17.783  0.00  0.00    +0.000 C 
BRANCH   5   9
ATOM      7  C   UNL     1      -0.736  10.922  22.556  0.00  0.00    +0.000 A 
ATOM      8  C   UNL     1      -0.951  11.095  21.177  0.00  0.00    +0.000 A 
ATOM      9  C   UNL     1      -0.607  10.103  20.249  0.00  0.00    +0.000 A 
ATOM     10  C   UNL     1      -0.098   8.893  20.747  0.00  0.00    +0.000 A 
ATOM     11  C   UNL     1       0.182   8.733  22.104  0.00  0.00    +0.000 A 
ATOM     12  C   UNL     1      -0.113   9.756  23.005  0.00  0.00    +0.000 A 
BRANCH   7  14
ATOM     13  C   UNL     1      -2.541  12.236  23.340  0.00  0.00    +0.000 C 
ATOM     14  O   UNL     1      -1.141  11.981  23.330  0.00  0.00    +0.000 OA
ENDBRANCH   7  14
BRANCH  12  15
ATOM     15  O   UNL     1       0.238   9.596  24.317  0.00  0.00    +0.000 OA
ATOM     16  H   UNL     1      -0.515   9.838  24.880  0.00  0.00    +0.000 HD
ENDBRANCH  12  15
ENDBRANCH   5   9
ENDBRANCH   1   6
BRANCH   3  17
ATOM     17  C   UNL     1       3.172   7.998  17.800  0.00  0.00    +0.000 C 
BRANCH  17  18
ATOM     18  C   UNL     1       3.427   6.504  17.572  0.00  0.00    +0.000 C 
BRANCH  18  19
ATOM     19  C   UNL     1       2.693   5.563  18.498  0.00  0.00    +0.000 A 
ATOM     20  C   UNL     1       2.706   5.741  19.891  0.00  0.00    +0.000 A 
ATOM     21  C   UNL     1       2.002   4.866  20.724  0.00  0.00    +0.000 A 
ATOM     22  C   UNL     1       1.275   3.820  20.168  0.00  0.00    +0.000 A 
ATOM     23  C   UNL     1       1.229   3.643  18.791  0.00  0.00    +0.000 A 
ATOM     24  C   UNL     1       1.932   4.515  17.960  0.00  0.00    +0.000 A 
BRANCH  22  25
ATOM     25  O   UNL     1       0.582   2.939  20.943  0.00  0.00    +0.000 OA
ATOM     26  H   UNL     1      -0.348   2.952  20.665  0.00  0.00    +0.000 HD
ENDBRANCH  22  25
ENDBRANCH  18  19
ENDBRANCH  17  18
ENDBRANCH   3  17
TORSDOF 8
ENDMDL
MODEL 8
REMARK VINA RESULT:      -6.4      2.122      4.704
REMARK  Name = 
REMARK  9 active torsions:
REMARK  status: ('A' for Active; 'I' for Inactive)
REMARK    1  A    between atoms: C_1  and  O_2
REMARK    2  A    between atoms: O_2  and  C_3
REMARK    3  A    between atoms: C_5  and  C_6
REMARK    4  A    between atoms: C_7  and  C_8
REMARK    5  A    between atoms: N_10  and  C_11
REMARK    6  A    between atoms: C_11  and  C_12
REMARK    7  A    between atoms: C_12  and  C_13
REMARK    8  A    between atoms: C_16  and  O_17
REMARK    9  A    between atoms: C_22  and  O_23
REMARK                            x       y       z     vdW  Elec       q    Type
REMARK                         _______ _______ _______ _____ _____    ______ ____
ROOT
ATOM      1  C   UNL     1       2.290   6.687  18.432  0.00  0.00    +0.000 C 
ATOM      2  O   UNL     1       1.995   5.641  17.877  0.00  0.00    +0.000 OA
ATOM      3  N   UNL     1       2.153   6.916  19.784  0.00  0.00    +0.000 N 
ATOM      4  H   UNL     1       2.464   7.777  20.200  0.00  0.00    +0.000 HD
ENDROOT
BRANCH   1   6
ATOM      5  C   UNL     1       4.101   7.870  17.155  0.00  0.00    +0.000 C 
ATOM      6  C   UNL     1       2.867   7.828  17.685  0.00  0.00    +0.000 C 
BRANCH   5   9
ATOM      7  C   UNL     1       6.129   4.722  16.359  0.00  0.00    +0.000 A 
ATOM      8  C   UNL     1       5.096   5.675  16.346  0.00  0.00    +0.000 A 
ATOM      9  C   UNL     1       5.164   6.843  17.117  0.00  0.00    +0.000 A 
ATOM     10  C   UNL     1       6.334   7.066  17.861  0.00  0.00    +0.000 A 
ATOM     11  C   UNL     1       7.336   6.100  17.936  0.00  0.00    +0.000 A 
ATOM     12  C   UNL     1       7.222   4.916  17.205  0.00  0.00    +0.000 A 
BRANCH   7  14
ATOM     13  C   UNL     1       6.241   3.841  14.166  0.00  0.00    +0.000 C 
ATOM     14  O   UNL     1       5.916   3.643  15.537  0.00  0.00    +0.000 OA
ENDBRANCH   7  14
BRANCH  12  15
ATOM     15  O   UNL     1       8.187   3.959  17.355  0.00  0.00    +0.000 OA
ATOM     16  H   UNL     1       8.912   4.318  17.892  0.00  0.00    +0.000 HD
ENDBRANCH  12  15
ENDBRANCH   5   9
ENDBRANCH   1   6
BRANCH   3  17
ATOM     17  C   UNL     1       1.502   5.899  20.591  0.00  0.00    +0.000 C 
BRANCH  17  18
ATOM     18  C   UNL     1       2.410   4.837  21.220  0.00  0.00    +0.000 C 
BRANCH  18  19
ATOM     19  C   UNL     1       2.876   3.738  20.293  0.00  0.00    +0.000 A 
ATOM     20  C   UNL     1       4.193   3.694  19.807  0.00  0.00    +0.000 A 
ATOM     21  C   UNL     1       4.603   2.655  18.965  0.00  0.00    +0.000 A 
ATOM     22  C   UNL     1       3.705   1.654  18.617  0.00  0.00    +0.000 A 
ATOM     23  C   UNL     1       2.406   1.666  19.109  0.00  0.00    +0.000 A 
ATOM     24  C   UNL     1       1.996   2.702  19.948  0.00  0.00    +0.000 A 
BRANCH  22  25
ATOM     25  O   UNL     1       4.060   0.628  17.793  0.00  0.00    +0.000 OA
ATOM     26  H   UNL     1       4.788   0.929  17.226  0.00  0.00    +0.000 HD
ENDBRANCH  22  25
ENDBRANCH  18  19
ENDBRANCH  17  18
ENDBRANCH   3  17
TORSDOF 8
ENDMDL
MODEL 9
REMARK VINA RESULT:      -6.4      2.021      4.655
REMARK  Name = 
REMARK  9 active torsions:
REMARK  status: ('A' for Active; 'I' for Inactive)
REMARK    1  A    between atoms: C_1  and  O_2
REMARK    2  A    between atoms: O_2  and  C_3
REMARK    3  A    between atoms: C_5  and  C_6
REMARK    4  A    between atoms: C_7  and  C_8
REMARK    5  A    between atoms: N_10  and  C_11
REMARK    6  A    between atoms: C_11  and  C_12
REMARK    7  A    between atoms: C_12  and  C_13
REMARK    8  A    between atoms: C_16  and  O_17
REMARK    9  A    between atoms: C_22  and  O_23
REMARK                            x       y       z     vdW  Elec       q    Type
REMARK                         _______ _______ _______ _____ _____    ______ ____
ROOT
ATOM      1  C   UNL     1       2.103   7.490  19.362  0.00  0.00    +0.000 C 
ATOM      2  O   UNL     1       2.140   8.259  20.308  0.00  0.00    +0.000 OA
ATOM      3  N   UNL     1       1.866   6.136  19.470  0.00  0.00    +0.000 N 
ATOM      4  H   UNL     1       1.790   5.556  18.652  0.00  0.00    +0.000 HD
ENDROOT
BRANCH   1   6
ATOM      5  C   UNL     1       3.314   7.637  17.167  0.00  0.00    +0.000 C 
ATOM      6  C   UNL     1       2.286   7.959  17.970  0.00  0.00    +0.000 C 
BRANCH   5   9
ATOM      7  C   UNL     1       6.816   6.292  17.934  0.00  0.00    +0.000 A 
ATOM      8  C   UNL     1       5.749   7.187  17.743  0.00  0.00    +0.000 A 
ATOM      9  C   UNL     1       4.467   6.741  17.397  0.00  0.00    +0.000 A 
ATOM     10  C   UNL     1       4.261   5.354  17.310  0.00  0.00    +0.000 A 
ATOM     11  C   UNL     1       5.323   4.459  17.432  0.00  0.00    +0.000 A 
ATOM     12  C   UNL     1       6.605   4.929  17.718  0.00  0.00    +0.000 A 
BRANCH   7  14
ATOM     13  C   UNL     1       8.122   8.265  17.944  0.00  0.00    +0.000 C 
ATOM     14  O   UNL     1       8.002   6.889  18.284  0.00  0.00    +0.000 OA
ENDBRANCH   7  14
BRANCH  12  15
ATOM     15  O   UNL     1       7.637   4.033  17.761  0.00  0.00    +0.000 OA
ATOM     16  H   UNL     1       7.429   3.279  17.184  0.00  0.00    +0.000 HD
ENDBRANCH  12  15
ENDBRANCH   5   9
ENDBRANCH   1   6
BRANCH   3  17
ATOM     17  C   UNL     1       1.775   5.558  20.798  0.00  0.00    +0.000 C 
BRANCH  17  18
ATOM     18  C   UNL     1       1.357   4.085  20.879  0.00  0.00    +0.000 C 
BRANCH  18  19
ATOM     19  C   UNL     1       2.142   3.131  20.009  0.00  0.00    +0.000 A 
ATOM     20  C   UNL     1       1.665   2.716  18.755  0.00  0.00    +0.000 A 
ATOM     21  C   UNL     1       2.420   1.847  17.961  0.00  0.00    +0.000 A 
ATOM     22  C   UNL     1       3.657   1.401  18.411  0.00  0.00    +0.000 A 
ATOM     23  C   UNL     1       4.157   1.821  19.637  0.00  0.00    +0.000 A 
ATOM     24  C   UNL     1       3.404   2.687  20.430  0.00  0.00    +0.000 A 
BRANCH  22  25
ATOM     25  O   UNL     1       4.421   0.547  17.675  0.00  0.00    +0.000 OA
ATOM     26  H   UNL     1       5.211   1.025  17.374  0.00  0.00    +0.000 HD
ENDBRANCH  22  25
ENDBRANCH  18  19
ENDBRANCH  17  18
ENDBRANCH   3  17
TORSDOF 8
ENDMDL
