MODEL 1
REMARK VINA RESULT:      -6.1      0.000      0.000
REMARK  Name = 
REMARK  15 active torsions:
REMARK  status: ('A' for Active; 'I' for Inactive)
REMARK    1  A    between atoms: C_1  and  C_2
REMARK    2  A    between atoms: C_2  and  O_3
REMARK    3  A    between atoms: O_3  and  C_4
REMARK    4  A    between atoms: C_4  and  C_6
REMARK    5  A    between atoms: C_6  and  C_7
REMARK    6  A    between atoms: C_6  and  N_8
REMARK    7  A    between atoms: C_9  and  C_11
REMARK    8  A    between atoms: C_11  and  O_12
REMARK    9  A    between atoms: C_11  and  C_13
REMARK   10  A    between atoms: C_13  and  N_14
REMARK   11  A    between atoms: C_13  and  C_15
REMARK   12  A    between atoms: C_15  and  S_16
REMARK   13  A    between atoms: S_16  and  C_17
REMARK   14  A    between atoms: C_17  and  C_18
REMARK   15  A    between atoms: C_17  and  C_19
REMARK                            x       y       z     vdW  Elec       q    Type
REMARK                         _______ _______ _______ _____ _____    ______ ____
ROOT
ATOM      1  C   UNL     1       6.675   4.329  16.418  0.00  0.00    +0.000 C 
ENDROOT
BRANCH   1   3
ATOM      2  N   UNL     1       4.798   3.143  17.520  0.00  0.00    +0.000 N 
ATOM      3  C   UNL     1       5.546   4.296  17.477  0.00  0.00    +0.000 C 
ATOM      4  O   UNL     1       5.349   5.250  18.225  0.00  0.00    +0.000 OA
ATOM      5  H   UNL     1       5.222   2.286  17.186  0.00  0.00    +0.000 HD
BRANCH   2   6
ATOM      6  C   UNL     1       3.661   3.028  18.444  0.00  0.00    +0.000 C 
ATOM      7  C   UNL     1       2.629   2.070  17.861  0.00  0.00    +0.000 C 
BRANCH   6   8
ATOM      8  C   UNL     1       3.969   2.612  19.894  0.00  0.00    +0.000 C 
ATOM      9  O   UNL     1       4.975   1.982  20.206  0.00  0.00    +0.000 OA
BRANCH   8  10
ATOM     10  O   UNL     1       2.998   2.996  20.771  0.00  0.00    +0.000 OA
BRANCH  10  12
ATOM     11  C   UNL     1       1.035   4.361  20.529  0.00  0.00    +0.000 C 
ATOM     12  C   UNL     1       2.551   4.354  20.614  0.00  0.00    +0.000 C 
ENDBRANCH  10  12
ENDBRANCH   8  10
ENDBRANCH   6   8
ENDBRANCH   2   6
ENDBRANCH   1   3
BRANCH   1  13
ATOM     13  O   UNL     1       7.892   4.852  16.957  0.00  0.00    +0.000 OA
ATOM     14  H   UNL     1       7.677   5.728  17.330  0.00  0.00    +0.000 HD
ENDBRANCH   1  13
BRANCH   1  15
ATOM     15  C   UNL     1       6.251   5.176  15.187  0.00  0.00    +0.000 C 
BRANCH  15  16
ATOM     16  N   UNL     1       5.429   6.328  15.637  0.00  0.00    +0.000 NA
ATOM     17  H   UNL     1       5.279   6.211  16.646  0.00  0.00    +0.000 HD
ATOM     18  H   UNL     1       4.492   6.223  15.233  0.00  0.00    +0.000 HD
ENDBRANCH  15  16
BRANCH  15  19
ATOM     19  C   UNL     1       5.468   4.337  14.145  0.00  0.00    +0.000 C 
BRANCH  19  20
ATOM     20  S   UNL     1       6.483   3.781  12.709  0.00  0.00    +0.000 S 
BRANCH  20  21
ATOM     21  C   UNL     1       5.407   2.492  11.968  0.00  0.00    +0.000 C 
ATOM     22  C   UNL     1       4.249   3.104  11.188  0.00  0.00    +0.000 C 
ATOM     23  C   UNL     1       6.264   1.617  11.054  0.00  0.00    +0.000 C 
ENDBRANCH  20  21
ENDBRANCH  19  20
ENDBRANCH  15  19
ENDBRANCH   1  15
TORSDOF 11
ENDMDL
MODEL 2
REMARK VINA RESULT:      -6.1      1.864      2.266
REMARK  Name = 
REMARK  15 active torsions:
REMARK  status: ('A' for Active; 'I' for Inactive)
REMARK    1  A    between atoms: C_1  and  C_2
REMARK    2  A    between atoms: C_2  and  O_3
REMARK    3  A    between atoms: O_3  and  C_4
REMARK    4  A    between atoms: C_4  and  C_6
REMARK    5  A    between atoms: C_6  and  C_7
REMARK    6  A    between atoms: C_6  and  N_8
REMARK    7  A    between atoms: C_9  and  C_11
REMARK    8  A    between atoms: C_11  and  O_12
REMARK    9  A    between atoms: C_11  and  C_13
REMARK   10  A    between atoms: C_13  and  N_14
REMARK   11  A    between atoms: C_13  and  C_15
REMARK   12  A    between atoms: C_15  and  S_16
REMARK   13  A    between atoms: S_16  and  C_17
REMARK   14  A    between atoms: C_17  and  C_18
REMARK   15  A    between atoms: C_17  and  C_19
REMARK                            x       y       z     vdW  Elec       q    Type
REMARK                         _______ _______ _______ _____ _____    ______ ____
ROOT
ATOM      1  C   UNL     1       6.976   4.371  16.984  0.00  0.00    +0.000 C 
ENDROOT
BRANCH   1   3
ATOM      2  N   UNL     1       4.551   4.583  17.454  0.00  0.00    +0.000 N 
ATOM      3  C   UNL     1       5.819   4.604  17.986  0.00  0.00    +0.000 C 
ATOM      4  O   UNL     1       6.042   4.790  19.179  0.00  0.00    +0.000 OA
ATOM      5  H   UNL     1       4.401   4.060  16.600  0.00  0.00    +0.000 HD
BRANCH   2   6
ATOM      6  C   UNL     1       3.384   4.855  18.303  0.00  0.00    +0.000 C 
ATOM      7  C   UNL     1       2.966   6.311  18.139  0.00  0.00    +0.000 C 
BRANCH   6   8
ATOM      8  C   UNL     1       2.148   3.954  18.116  0.00  0.00    +0.000 C 
ATOM      9  O   UNL     1       1.184   4.283  17.432  0.00  0.00    +0.000 OA
BRANCH   8  10
ATOM     10  O   UNL     1       2.239   2.782  18.806  0.00  0.00    +0.000 OA
BRANCH  10  12
ATOM     11  C   UNL     1       1.303   3.147  20.990  0.00  0.00    +0.000 C 
ATOM     12  C   UNL     1       1.103   2.486  19.637  0.00  0.00    +0.000 C 
ENDBRANCH  10  12
ENDBRANCH   8  10
ENDBRANCH   6   8
ENDBRANCH   2   6
ENDBRANCH   1   3
BRANCH   1  13
ATOM     13  O   UNL     1       8.210   4.095  17.653  0.00  0.00    +0.000 OA
ATOM     14  H   UNL     1       7.982   3.873  18.575  0.00  0.00    +0.000 HD
ENDBRANCH   1  13
BRANCH   1  15
ATOM     15  C   UNL     1       7.158   5.603  16.057  0.00  0.00    +0.000 C 
BRANCH  15  16
ATOM     16  N   UNL     1       6.348   6.736  16.573  0.00  0.00    +0.000 NA
ATOM     17  H   UNL     1       5.555   6.328  17.080  0.00  0.00    +0.000 HD
ATOM     18  H   UNL     1       5.914   7.204  15.769  0.00  0.00    +0.000 HD
ENDBRANCH  15  16
BRANCH  15  19
ATOM     19  C   UNL     1       6.765   5.291  14.590  0.00  0.00    +0.000 C 
BRANCH  19  20
ATOM     20  S   UNL     1       5.983   3.638  14.355  0.00  0.00    +0.000 S 
BRANCH  20  21
ATOM     21  C   UNL     1       6.220   3.366  12.555  0.00  0.00    +0.000 C 
ATOM     22  C   UNL     1       4.897   3.412  11.798  0.00  0.00    +0.000 C 
ATOM     23  C   UNL     1       7.174   4.436  12.028  0.00  0.00    +0.000 C 
ENDBRANCH  20  21
ENDBRANCH  19  20
ENDBRANCH  15  19
ENDBRANCH   1  15
TORSDOF 11
ENDMDL
MODEL 3
REMARK VINA RESULT:      -6.1      2.903      7.020
REMARK  Name = 
REMARK  15 active torsions:
REMARK  status: ('A' for Active; 'I' for Inactive)
REMARK    1  A    between atoms: C_1  and  C_2
REMARK    2  A    between atoms: C_2  and  O_3
REMARK    3  A    between atoms: O_3  and  C_4
REMARK    4  A    between atoms: C_4  and  C_6
REMARK    5  A    between atoms: C_6  and  C_7
REMARK    6  A    between atoms: C_6  and  N_8
REMARK    7  A    between atoms: C_9  and  C_11
REMARK    8  A    between atoms: C_11  and  O_12
REMARK    9  A    between atoms: C_11  and  C_13
REMARK   10  A    between atoms: C_13  and  N_14
REMARK   11  A    between atoms: C_13  and  C_15
REMARK   12  A    between atoms: C_15  and  S_16
REMARK   13  A    between atoms: S_16  and  C_17
REMARK   14  A    between atoms: C_17  and  C_18
REMARK   15  A    between atoms: C_17  and  C_19
REMARK                            x       y       z     vdW  Elec       q    Type
REMARK                         _______ _______ _______ _____ _____    ______ ____
ROOT
ATOM      1  C   UNL     1       3.984   2.231  18.107  0.00  0.00    +0.000 C 
ENDROOT
BRANCH   1   3
ATOM      2  N   UNL     1       5.629   3.710  16.989  0.00  0.00    +0.000 N 
ATOM      3  C   UNL     1       4.313   3.541  17.350  0.00  0.00    +0.000 C 
ATOM      4  O   UNL     1       3.437   4.363  17.094  0.00  0.00    +0.000 OA
ATOM      5  H   UNL     1       6.201   2.883  16.869  0.00  0.00    +0.000 HD
BRANCH   2   6
ATOM      6  C   UNL     1       6.064   4.945  16.322  0.00  0.00    +0.000 C 
ATOM      7  C   UNL     1       7.116   5.640  17.178  0.00  0.00    +0.000 C 
BRANCH   6   8
ATOM      8  C   UNL     1       6.593   4.822  14.881  0.00  0.00    +0.000 C 
ATOM      9  O   UNL     1       7.633   5.355  14.507  0.00  0.00    +0.000 OA
BRANCH   8  10
ATOM     10  O   UNL     1       5.773   4.085  14.078  0.00  0.00    +0.000 OA
BRANCH  10  12
ATOM     11  C   UNL     1       5.262   3.132  11.932  0.00  0.00    +0.000 C 
ATOM     12  C   UNL     1       6.356   3.696  12.822  0.00  0.00    +0.000 C 
ENDBRANCH  10  12
ENDBRANCH   8  10
ENDBRANCH   6   8
ENDBRANCH   2   6
ENDBRANCH   1   3
BRANCH   1  13
ATOM     13  O   UNL     1       2.677   1.747  17.785  0.00  0.00    +0.000 OA
ATOM     14  H   UNL     1       2.097   2.530  17.729  0.00  0.00    +0.000 HD
ENDBRANCH   1  13
BRANCH   1  15
ATOM     15  C   UNL     1       4.093   2.440  19.641  0.00  0.00    +0.000 C 
BRANCH  15  16
ATOM     16  N   UNL     1       5.185   1.592  20.182  0.00  0.00    +0.000 NA
ATOM     17  H   UNL     1       5.389   0.880  19.471  0.00  0.00    +0.000 HD
ATOM     18  H   UNL     1       4.806   1.055  20.969  0.00  0.00    +0.000 HD
ENDBRANCH  15  16
BRANCH  15  19
ATOM     19  C   UNL     1       2.761   2.122  20.368  0.00  0.00    +0.000 C 
BRANCH  19  20
ATOM     20  S   UNL     1       2.274   3.375  21.631  0.00  0.00    +0.000 S 
BRANCH  20  21
ATOM     21  C   UNL     1       1.287   4.553  20.627  0.00  0.00    +0.000 C 
ATOM     22  C   UNL     1       2.141   5.703  20.106  0.00  0.00    +0.000 C 
ATOM     23  C   UNL     1       0.658   3.785  19.466  0.00  0.00    +0.000 C 
ENDBRANCH  20  21
ENDBRANCH  19  20
ENDBRANCH  15  19
ENDBRANCH   1  15
TORSDOF 11
ENDMDL
MODEL 4
REMARK VINA RESULT:      -6.0      3.160      6.290
REMARK  Name = 
REMARK  15 active torsions:
REMARK  status: ('A' for Active; 'I' for Inactive)
REMARK    1  A    between atoms: C_1  and  C_2
REMARK    2  A    between atoms: C_2  and  O_3
REMARK    3  A    between atoms: O_3  and  C_4
REMARK    4  A    between atoms: C_4  and  C_6
REMARK    5  A    between atoms: C_6  and  C_7
REMARK    6  A    between atoms: C_6  and  N_8
REMARK    7  A    between atoms: C_9  and  C_11
REMARK    8  A    between atoms: C_11  and  O_12
REMARK    9  A    between atoms: C_11  and  C_13
REMARK   10  A    between atoms: C_13  and  N_14
REMARK   11  A    between atoms: C_13  and  C_15
REMARK   12  A    between atoms: C_15  and  S_16
REMARK   13  A    between atoms: S_16  and  C_17
REMARK   14  A    between atoms: C_17  and  C_18
REMARK   15  A    between atoms: C_17  and  C_19
REMARK                            x       y       z     vdW  Elec       q    Type
REMARK                         _______ _______ _______ _____ _____    ______ ____
ROOT
ATOM      1  C   UNL     1       2.864   5.928  18.209  0.00  0.00    +0.000 C 
ENDROOT
BRANCH   1   3
ATOM      2  N   UNL     1       5.227   6.485  17.704  0.00  0.00    +0.000 N 
ATOM      3  C   UNL     1       4.202   5.589  17.508  0.00  0.00    +0.000 C 
ATOM      4  O   UNL     1       4.322   4.575  16.825  0.00  0.00    +0.000 OA
ATOM      5  H   UNL     1       5.208   7.053  18.542  0.00  0.00    +0.000 HD
BRANCH   2   6
ATOM      6  C   UNL     1       6.520   6.294  17.035  0.00  0.00    +0.000 C 
ATOM      7  C   UNL     1       7.458   7.435  17.410  0.00  0.00    +0.000 C 
BRANCH   6   8
ATOM      8  C   UNL     1       7.244   4.954  17.265  0.00  0.00    +0.000 C 
ATOM      9  O   UNL     1       7.476   4.508  18.384  0.00  0.00    +0.000 OA
BRANCH   8  10
ATOM     10  O   UNL     1       7.612   4.346  16.102  0.00  0.00    +0.000 OA
BRANCH  10  12
ATOM     11  C   UNL     1       6.312   3.876  14.136  0.00  0.00    +0.000 C 
ATOM     12  C   UNL     1       7.063   4.943  14.914  0.00  0.00    +0.000 C 
ENDBRANCH  10  12
ENDBRANCH   8  10
ENDBRANCH   6   8
ENDBRANCH   2   6
ENDBRANCH   1   3
BRANCH   1  13
ATOM     13  O   UNL     1       2.452   7.272  17.941  0.00  0.00    +0.000 OA
ATOM     14  H   UNL     1       2.011   7.593  18.750  0.00  0.00    +0.000 HD
ENDBRANCH   1  13
BRANCH   1  15
ATOM     15  C   UNL     1       2.979   5.720  19.743  0.00  0.00    +0.000 C 
BRANCH  15  16
ATOM     16  N   UNL     1       4.285   5.090  20.063  0.00  0.00    +0.000 NA
ATOM     17  H   UNL     1       4.892   5.833  20.429  0.00  0.00    +0.000 HD
ATOM     18  H   UNL     1       4.729   4.821  19.178  0.00  0.00    +0.000 HD
ENDBRANCH  15  16
BRANCH  15  19
ATOM     19  C   UNL     1       1.819   4.856  20.302  0.00  0.00    +0.000 C 
BRANCH  19  20
ATOM     20  S   UNL     1       2.347   3.207  20.937  0.00  0.00    +0.000 S 
BRANCH  20  21
ATOM     21  C   UNL     1       1.887   2.105  19.543  0.00  0.00    +0.000 C 
ATOM     22  C   UNL     1       0.792   2.718  18.677  0.00  0.00    +0.000 C 
ATOM     23  C   UNL     1       3.139   1.836  18.710  0.00  0.00    +0.000 C 
ENDBRANCH  20  21
ENDBRANCH  19  20
ENDBRANCH  15  19
ENDBRANCH   1  15
TORSDOF 11
ENDMDL
MODEL 5
REMARK VINA RESULT:      -5.9      2.912      6.721
REMARK  Name = 
REMARK  15 active torsions:
REMARK  status: ('A' for Active; 'I' for Inactive)
REMARK    1  A    between atoms: C_1  and  C_2
REMARK    2  A    between atoms: C_2  and  O_3
REMARK    3  A    between atoms: O_3  and  C_4
REMARK    4  A    between atoms: C_4  and  C_6
REMARK    5  A    between atoms: C_6  and  C_7
REMARK    6  A    between atoms: C_6  and  N_8
REMARK    7  A    between atoms: C_9  and  C_11
REMARK    8  A    between atoms: C_11  and  O_12
REMARK    9  A    between atoms: C_11  and  C_13
REMARK   10  A    between atoms: C_13  and  N_14
REMARK   11  A    between atoms: C_13  and  C_15
REMARK   12  A    between atoms: C_15  and  S_16
REMARK   13  A    between atoms: S_16  and  C_17
REMARK   14  A    between atoms: C_17  and  C_18
REMARK   15  A    between atoms: C_17  and  C_19
REMARK                            x       y       z     vdW  Elec       q    Type
REMARK                         _______ _______ _______ _____ _____    ______ ____
ROOT
ATOM      1  C   UNL     1       4.331   3.176  19.530  0.00  0.00    +0.000 C 
ENDROOT
BRANCH   1   3
ATOM      2  N   UNL     1       5.311   4.957  18.112  0.00  0.00    +0.000 N 
ATOM      3  C   UNL     1       4.596   3.782  18.131  0.00  0.00    +0.000 C 
ATOM      4  O   UNL     1       4.187   3.232  17.112  0.00  0.00    +0.000 OA
ATOM      5  H   UNL     1       5.933   5.149  18.888  0.00  0.00    +0.000 HD
BRANCH   2   6
ATOM      6  C   UNL     1       5.566   5.652  16.844  0.00  0.00    +0.000 C 
ATOM      7  C   UNL     1       4.990   7.061  16.913  0.00  0.00    +0.000 C 
BRANCH   6   8
ATOM      8  C   UNL     1       7.027   5.732  16.362  0.00  0.00    +0.000 C 
ATOM      9  O   UNL     1       7.776   6.656  16.663  0.00  0.00    +0.000 OA
BRANCH   8  10
ATOM     10  O   UNL     1       7.375   4.688  15.557  0.00  0.00    +0.000 OA
BRANCH  10  12
ATOM     11  C   UNL     1       6.014   3.827  13.773  0.00  0.00    +0.000 C 
ATOM     12  C   UNL     1       7.048   4.867  14.168  0.00  0.00    +0.000 C 
ENDBRANCH  10  12
ENDBRANCH   8  10
ENDBRANCH   6   8
ENDBRANCH   2   6
ENDBRANCH   1   3
BRANCH   1  13
ATOM     13  O   UNL     1       5.235   2.107  19.824  0.00  0.00    +0.000 OA
ATOM     14  H   UNL     1       6.028   2.515  20.220  0.00  0.00    +0.000 HD
ENDBRANCH   1  13
BRANCH   1  15
ATOM     15  C   UNL     1       2.871   2.659  19.638  0.00  0.00    +0.000 C 
BRANCH  15  16
ATOM     16  N   UNL     1       2.669   1.538  18.684  0.00  0.00    +0.000 NA
ATOM     17  H   UNL     1       3.543   1.436  18.156  0.00  0.00    +0.000 HD
ATOM     18  H   UNL     1       1.988   1.843  17.981  0.00  0.00    +0.000 HD
ENDBRANCH  15  16
BRANCH  15  19
ATOM     19  C   UNL     1       1.835   3.780  19.370  0.00  0.00    +0.000 C 
BRANCH  19  20
ATOM     20  S   UNL     1       1.761   5.068  20.687  0.00  0.00    +0.000 S 
BRANCH  20  21
ATOM     21  C   UNL     1       2.363   6.553  19.792  0.00  0.00    +0.000 C 
ATOM     22  C   UNL     1       2.019   6.495  18.308  0.00  0.00    +0.000 C 
ATOM     23  C   UNL     1       1.740   7.790  20.437  0.00  0.00    +0.000 C 
ENDBRANCH  20  21
ENDBRANCH  19  20
ENDBRANCH  15  19
ENDBRANCH   1  15
TORSDOF 11
ENDMDL
MODEL 6
REMARK VINA RESULT:      -5.8      2.409      6.419
REMARK  Name = 
REMARK  15 active torsions:
REMARK  status: ('A' for Active; 'I' for Inactive)
REMARK    1  A    between atoms: C_1  and  C_2
REMARK    2  A    between atoms: C_2  and  O_3
REMARK    3  A    between atoms: O_3  and  C_4
REMARK    4  A    between atoms: C_4  and  C_6
REMARK    5  A    between atoms: C_6  and  C_7
REMARK    6  A    between atoms: C_6  and  N_8
REMARK    7  A    between atoms: C_9  and  C_11
REMARK    8  A    between atoms: C_11  and  O_12
REMARK    9  A    between atoms: C_11  and  C_13
REMARK   10  A    between atoms: C_13  and  N_14
REMARK   11  A    between atoms: C_13  and  C_15
REMARK   12  A    between atoms: C_15  and  S_16
REMARK   13  A    between atoms: S_16  and  C_17
REMARK   14  A    between atoms: C_17  and  C_18
REMARK   15  A    between atoms: C_17  and  C_19
REMARK                            x       y       z     vdW  Elec       q    Type
REMARK                         _______ _______ _______ _____ _____    ______ ____
ROOT
ATOM      1  C   UNL     1       4.342   2.703  19.733  0.00  0.00    +0.000 C 
ENDROOT
BRANCH   1   3
ATOM      2  N   UNL     1       6.029   3.779  18.270  0.00  0.00    +0.000 N 
ATOM      3  C   UNL     1       5.035   3.980  19.199  0.00  0.00    +0.000 C 
ATOM      4  O   UNL     1       4.700   5.095  19.591  0.00  0.00    +0.000 OA
ATOM      5  H   UNL     1       5.998   2.934  17.714  0.00  0.00    +0.000 HD
BRANCH   2   6
ATOM      6  C   UNL     1       6.795   4.916  17.744  0.00  0.00    +0.000 C 
ATOM      7  C   UNL     1       8.169   4.950  18.402  0.00  0.00    +0.000 C 
BRANCH   6   8
ATOM      8  C   UNL     1       6.969   5.005  16.216  0.00  0.00    +0.000 C 
ATOM      9  O   UNL     1       7.551   5.935  15.666  0.00  0.00    +0.000 OA
BRANCH   8  10
ATOM     10  O   UNL     1       6.390   3.962  15.557  0.00  0.00    +0.000 OA
BRANCH  10  12
ATOM     11  C   UNL     1       6.123   3.607  13.195  0.00  0.00    +0.000 C 
ATOM     12  C   UNL     1       5.597   4.338  14.417  0.00  0.00    +0.000 C 
ENDBRANCH  10  12
ENDBRANCH   8  10
ENDBRANCH   6   8
ENDBRANCH   2   6
ENDBRANCH   1   3
BRANCH   1  13
ATOM     13  O   UNL     1       5.293   1.727  20.170  0.00  0.00    +0.000 OA
ATOM     14  H   UNL     1       4.909   1.297  20.956  0.00  0.00    +0.000 HD
ENDBRANCH   1  13
BRANCH   1  15
ATOM     15  C   UNL     1       3.426   2.078  18.646  0.00  0.00    +0.000 C 
BRANCH  15  16
ATOM     16  N   UNL     1       4.114   0.919  18.023  0.00  0.00    +0.000 NA
ATOM     17  H   UNL     1       4.146   1.100  17.013  0.00  0.00    +0.000 HD
ATOM     18  H   UNL     1       3.497   0.104  18.110  0.00  0.00    +0.000 HD
ENDBRANCH  15  16
BRANCH  15  19
ATOM     19  C   UNL     1       3.026   3.109  17.559  0.00  0.00    +0.000 C 
BRANCH  19  20
ATOM     20  S   UNL     1       1.553   4.130  17.994  0.00  0.00    +0.000 S 
BRANCH  20  21
ATOM     21  C   UNL     1       1.548   4.016  19.826  0.00  0.00    +0.000 C 
ATOM     22  C   UNL     1       1.323   5.377  20.475  0.00  0.00    +0.000 C 
ATOM     23  C   UNL     1       0.451   3.038  20.244  0.00  0.00    +0.000 C 
ENDBRANCH  20  21
ENDBRANCH  19  20
ENDBRANCH  15  19
ENDBRANCH   1  15
TORSDOF 11
ENDMDL
MODEL 7
REMARK VINA RESULT:      -5.8      2.624      6.780
REMARK  Name = 
REMARK  15 active torsions:
REMARK  status: ('A' for Active; 'I' for Inactive)
REMARK    1  A    between atoms: C_1  and  C_2
REMARK    2  A    between atoms: C_2  and  O_3
REMARK    3  A    between atoms: O_3  and  C_4
REMARK    4  A    between atoms: C_4  and  C_6
REMARK    5  A    between atoms: C_6  and  C_7
REMARK    6  A    between atoms: C_6  and  N_8
REMARK    7  A    between atoms: C_9  and  C_11
REMARK    8  A    between atoms: C_11  and  O_12
REMARK    9  A    between atoms: C_11  and  C_13
REMARK   10  A    between atoms: C_13  and  N_14
REMARK   11  A    between atoms: C_13  and  C_15
REMARK   12  A    between atoms: C_15  and  S_16
REMARK   13  A    between atoms: S_16  and  C_17
REMARK   14  A    between atoms: C_17  and  C_18
REMARK   15  A    between atoms: C_17  and  C_19
REMARK                            x       y       z     vdW  Elec       q    Type
REMARK                         _______ _______ _______ _____ _____    ______ ____
ROOT
ATOM      1  C   UNL     1       4.301   3.151  19.494  0.00  0.00    +0.000 C 
ENDROOT
BRANCH   1   3
ATOM      2  N   UNL     1       5.723   4.171  17.738  0.00  0.00    +0.000 N 
ATOM      3  C   UNL     1       5.230   4.294  19.016  0.00  0.00    +0.000 C 
ATOM      4  O   UNL     1       5.495   5.244  19.747  0.00  0.00    +0.000 OA
ATOM      5  H   UNL     1       5.195   3.619  17.074  0.00  0.00    +0.000 HD
BRANCH   2   6
ATOM      6  C   UNL     1       6.664   5.166  17.206  0.00  0.00    +0.000 C 
ATOM      7  C   UNL     1       8.092   4.677  17.416  0.00  0.00    +0.000 C 
BRANCH   6   8
ATOM      8  C   UNL     1       6.490   5.586  15.734  0.00  0.00    +0.000 C 
ATOM      9  O   UNL     1       5.557   6.284  15.348  0.00  0.00    +0.000 OA
BRANCH   8  10
ATOM     10  O   UNL     1       7.461   5.081  14.922  0.00  0.00    +0.000 OA
BRANCH  10  12
ATOM     11  C   UNL     1       6.204   3.648  13.458  0.00  0.00    +0.000 C 
ATOM     12  C   UNL     1       7.062   4.898  13.552  0.00  0.00    +0.000 C 
ENDBRANCH  10  12
ENDBRANCH   8  10
ENDBRANCH   6   8
ENDBRANCH   2   6
ENDBRANCH   1   3
BRANCH   1  13
ATOM     13  O   UNL     1       5.045   2.054  20.033  0.00  0.00    +0.000 OA
ATOM     14  H   UNL     1       4.438   1.568  20.621  0.00  0.00    +0.000 HD
ENDBRANCH   1  13
BRANCH   1  15
ATOM     15  C   UNL     1       3.408   2.644  18.329  0.00  0.00    +0.000 C 
BRANCH  15  16
ATOM     16  N   UNL     1       2.906   3.803  17.548  0.00  0.00    +0.000 NA
ATOM     17  H   UNL     1       3.730   4.315  17.213  0.00  0.00    +0.000 HD
ATOM     18  H   UNL     1       2.460   4.453  18.203  0.00  0.00    +0.000 HD
ENDBRANCH  15  16
BRANCH  15  19
ATOM     19  C   UNL     1       2.220   1.788  18.837  0.00  0.00    +0.000 C 
BRANCH  19  20
ATOM     20  S   UNL     1       0.630   2.713  18.973  0.00  0.00    +0.000 S 
BRANCH  20  21
ATOM     21  C   UNL     1       0.763   3.438  20.654  0.00  0.00    +0.000 C 
ATOM     22  C   UNL     1       1.609   2.570  21.578  0.00  0.00    +0.000 C 
ATOM     23  C   UNL     1       1.370   4.834  20.529  0.00  0.00    +0.000 C 
ENDBRANCH  20  21
ENDBRANCH  19  20
ENDBRANCH  15  19
ENDBRANCH   1  15
TORSDOF 11
ENDMDL
MODEL 8
REMARK VINA RESULT:      -5.8      3.038      6.538
REMARK  Name = 
REMARK  15 active torsions:
REMARK  status: ('A' for Active; 'I' for Inactive)
REMARK    1  A    between atoms: C_1  and  C_2
REMARK    2  A    between atoms: C_2  and  O_3
REMARK    3  A    between atoms: O_3  and  C_4
REMARK    4  A    between atoms: C_4  and  C_6
REMARK    5  A    between atoms: C_6  and  C_7
REMARK    6  A    between atoms: C_6  and  N_8
REMARK    7  A    between atoms: C_9  and  C_11
REMARK    8  A    between atoms: C_11  and  O_12
REMARK    9  A    between atoms: C_11  and  C_13
REMARK   10  A    between atoms: C_13  and  N_14
REMARK   11  A    between atoms: C_13  and  C_15
REMARK   12  A    between atoms: C_15  and  S_16
REMARK   13  A    between atoms: S_16  and  C_17
REMARK   14  A    between atoms: C_17  and  C_18
REMARK   15  A    between atoms: C_17  and  C_19
REMARK                            x       y       z     vdW  Elec       q    Type
REMARK                         _______ _______ _______ _____ _____    ______ ____
ROOT
ATOM      1  C   UNL     1       3.367   3.884  17.688  0.00  0.00    +0.000 C 
ENDROOT
BRANCH   1   3
ATOM      2  N   UNL     1       4.873   4.191  15.743  0.00  0.00    +0.000 N 
ATOM      3  C   UNL     1       4.793   3.901  17.085  0.00  0.00    +0.000 C 
ATOM      4  O   UNL     1       5.779   3.671  17.780  0.00  0.00    +0.000 OA
ATOM      5  H   UNL     1       4.127   4.734  15.327  0.00  0.00    +0.000 HD
BRANCH   2   6
ATOM      6  C   UNL     1       6.171   4.172  15.055  0.00  0.00    +0.000 C 
ATOM      7  C   UNL     1       5.965   3.788  13.595  0.00  0.00    +0.000 C 
BRANCH   6   8
ATOM      8  C   UNL     1       7.024   5.453  15.120  0.00  0.00    +0.000 C 
ATOM      9  O   UNL     1       8.017   5.626  14.420  0.00  0.00    +0.000 OA
BRANCH   8  10
ATOM     10  O   UNL     1       6.569   6.344  16.046  0.00  0.00    +0.000 OA
BRANCH  10  12
ATOM     11  C   UNL     1       7.592   8.001  17.456  0.00  0.00    +0.000 C 
ATOM     12  C   UNL     1       7.430   6.515  17.187  0.00  0.00    +0.000 C 
ENDBRANCH  10  12
ENDBRANCH   8  10
ENDBRANCH   6   8
ENDBRANCH   2   6
ENDBRANCH   1   3
BRANCH   1  13
ATOM     13  O   UNL     1       2.389   3.483  16.724  0.00  0.00    +0.000 OA
ATOM     14  H   UNL     1       2.252   4.246  16.132  0.00  0.00    +0.000 HD
ENDBRANCH   1  13
BRANCH   1  15
ATOM     15  C   UNL     1       2.991   5.281  18.252  0.00  0.00    +0.000 C 
BRANCH  15  16
ATOM     16  N   UNL     1       3.835   6.320  17.609  0.00  0.00    +0.000 NA
ATOM     17  H   UNL     1       3.953   7.073  18.295  0.00  0.00    +0.000 HD
ATOM     18  H   UNL     1       3.284   6.751  16.858  0.00  0.00    +0.000 HD
ENDBRANCH  15  16
BRANCH  15  19
ATOM     19  C   UNL     1       3.146   5.347  19.793  0.00  0.00    +0.000 C 
BRANCH  19  20
ATOM     20  S   UNL     1       1.549   5.281  20.714  0.00  0.00    +0.000 S 
BRANCH  20  21
ATOM     21  C   UNL     1       1.351   3.477  20.990  0.00  0.00    +0.000 C 
ATOM     22  C   UNL     1       0.710   2.790  19.789  0.00  0.00    +0.000 C 
ATOM     23  C   UNL     1       2.728   2.880  21.274  0.00  0.00    +0.000 C 
ENDBRANCH  20  21
ENDBRANCH  19  20
ENDBRANCH  15  19
ENDBRANCH   1  15
TORSDOF 11
ENDMDL
MODEL 9
REMARK VINA RESULT:      -5.7      3.045      6.782
REMARK  Name = 
REMARK  15 active torsions:
REMARK  status: ('A' for Active; 'I' for Inactive)
REMARK    1  A    between atoms: C_1  and  C_2
REMARK    2  A    between atoms: C_2  and  O_3
REMARK    3  A    between atoms: O_3  and  C_4
REMARK    4  A    between atoms: C_4  and  C_6
REMARK    5  A    between atoms: C_6  and  C_7
REMARK    6  A    between atoms: C_6  and  N_8
REMARK    7  A    between atoms: C_9  and  C_11
REMARK    8  A    between atoms: C_11  and  O_12
REMARK    9  A    between atoms: C_11  and  C_13
REMARK   10  A    between atoms: C_13  and  N_14
REMARK   11  A    between atoms: C_13  and  C_15
REMARK   12  A    between atoms: C_15  and  S_16
REMARK   13  A    between atoms: S_16  and  C_17
REMARK   14  A    between atoms: C_17  and  C_18
REMARK   15  A    between atoms: C_17  and  C_19
REMARK                            x       y       z     vdW  Elec       q    Type
REMARK                         _______ _______ _______ _____ _____    ______ ____
ROOT
ATOM      1  C   UNL     1       3.597   2.782  17.338  0.00  0.00    +0.000 C 
ENDROOT
BRANCH   1   3
ATOM      2  N   UNL     1       5.591   4.169  17.831  0.00  0.00    +0.000 N 
ATOM      3  C   UNL     1       4.276   4.170  17.427  0.00  0.00    +0.000 C 
ATOM      4  O   UNL     1       3.663   5.196  17.146  0.00  0.00    +0.000 OA
ATOM      5  H   UNL     1       6.138   3.331  17.673  0.00  0.00    +0.000 HD
BRANCH   2   6
ATOM      6  C   UNL     1       6.314   5.435  18.010  0.00  0.00    +0.000 C 
ATOM      7  C   UNL     1       7.086   5.396  19.323  0.00  0.00    +0.000 C 
BRANCH   6   8
ATOM      8  C   UNL     1       7.268   5.870  16.881  0.00  0.00    +0.000 C 
ATOM      9  O   UNL     1       7.703   7.013  16.783  0.00  0.00    +0.000 OA
BRANCH   8  10
ATOM     10  O   UNL     1       7.546   4.862  16.007  0.00  0.00    +0.000 OA
BRANCH  10  12
ATOM     11  C   UNL     1       6.196   3.906  14.264  0.00  0.00    +0.000 C 
ATOM     12  C   UNL     1       7.069   5.081  14.668  0.00  0.00    +0.000 C 
ENDBRANCH  10  12
ENDBRANCH   8  10
ENDBRANCH   6   8
ENDBRANCH   2   6
ENDBRANCH   1   3
BRANCH   1  13
ATOM     13  O   UNL     1       2.303   2.863  16.733  0.00  0.00    +0.000 OA
ATOM     14  H   UNL     1       1.998   1.946  16.604  0.00  0.00    +0.000 HD
ENDBRANCH   1  13
BRANCH   1  15
ATOM     15  C   UNL     1       3.467   2.141  18.746  0.00  0.00    +0.000 C 
BRANCH  15  16
ATOM     16  N   UNL     1       4.296   0.911  18.810  0.00  0.00    +0.000 NA
ATOM     17  H   UNL     1       4.569   0.685  17.847  0.00  0.00    +0.000 HD
ATOM     18  H   UNL     1       3.684   0.134  19.083  0.00  0.00    +0.000 HD
ENDBRANCH  15  16
BRANCH  15  19
ATOM     19  C   UNL     1       1.995   1.812  19.103  0.00  0.00    +0.000 C 
BRANCH  19  20
ATOM     20  S   UNL     1       0.911   3.294  19.271  0.00  0.00    +0.000 S 
BRANCH  20  21
ATOM     21  C   UNL     1       1.339   3.881  20.957  0.00  0.00    +0.000 C 
ATOM     22  C   UNL     1       1.836   2.742  21.841  0.00  0.00    +0.000 C 
ATOM     23  C   UNL     1       2.408   4.965  20.831  0.00  0.00    +0.000 C 
ENDBRANCH  20  21
ENDBRANCH  19  20
ENDBRANCH  15  19
ENDBRANCH   1  15
TORSDOF 11
ENDMDL
