MODEL 1
REMARK VINA RESULT:      -7.5      0.000      0.000
REMARK  Name = 
REMARK  6 active torsions:
REMARK  status: ('A' for Active; 'I' for Inactive)
REMARK    1  A    between atoms: C_1  and  O_2
REMARK    2  A    between atoms: O_2  and  C_3
REMARK    3  A    between atoms: N_10  and  C_11
REMARK    4  A    between atoms: N_10  and  C_12
REMARK    5  A    between atoms: C_22  and  O_23
REMARK    6  A    between atoms: O_23  and  C_24
REMARK                            x       y       z     vdW  Elec       q    Type
REMARK                         _______ _______ _______ _____ _____    ______ ____
ROOT
ATOM      1  C   UNL     1       1.873   7.524  19.962  0.00  0.00    +0.000 A 
ATOM      2  C   UNL     1       1.800   6.448  20.865  0.00  0.00    +0.000 A 
ATOM      3  C   UNL     1       2.204   5.161  20.529  0.00  0.00    +0.000 A 
ATOM      4  N   UNL     1       2.177   4.221  21.475  0.00  0.00    +0.000 NA
ATOM      5  C   UNL     1       2.618   3.012  21.125  0.00  0.00    +0.000 A 
ATOM      6  N   UNL     1       3.089   2.654  19.924  0.00  0.00    +0.000 NA
ATOM      7  C   UNL     1       3.136   3.617  18.972  0.00  0.00    +0.000 A 
ATOM      8  N   UNL     1       3.697   3.287  17.709  0.00  0.00    +0.000 N 
ATOM      9  C   UNL     1       3.701   1.845  17.428  0.00  0.00    +0.000 C 
ATOM     10  C   UNL     1       2.643   4.916  19.227  0.00  0.00    +0.000 A 
ATOM     11  C   UNL     1       2.572   5.961  18.282  0.00  0.00    +0.000 A 
ATOM     12  C   UNL     1       2.215   7.267  18.635  0.00  0.00    +0.000 A 
ENDROOT
BRANCH   8  13
ATOM     13  C   UNL     1       4.798   3.936  17.047  0.00  0.00    +0.000 A 
ATOM     14  C   UNL     1       4.905   3.747  15.647  0.00  0.00    +0.000 A 
ATOM     15  C   UNL     1       5.982   4.249  14.914  0.00  0.00    +0.000 A 
ATOM     16 BR   UNL     1       6.116   3.874  13.066  0.00  0.00    +0.000 Br
ATOM     17  C   UNL     1       6.967   4.997  15.538  0.00  0.00    +0.000 A 
ATOM     18  C   UNL     1       6.868   5.244  16.905  0.00  0.00    +0.000 A 
ATOM     19  C   UNL     1       5.805   4.716  17.663  0.00  0.00    +0.000 A 
ATOM     20 BR   UNL     1       5.938   5.048  19.534  0.00  0.00    +0.000 Br
ENDBRANCH   8  13
BRANCH   1  22
ATOM     21  C   UNL     1       1.157   8.941  21.721  0.00  0.00    +0.000 C 
ATOM     22  O   UNL     1       1.589   8.805  20.363  0.00  0.00    +0.000 OA
ENDBRANCH   1  22
BRANCH  12  23
ATOM     23  O   UNL     1       2.303   8.112  17.565  0.00  0.00    +0.000 OA
ATOM     24  C   UNL     1       1.988   9.484  17.712  0.00  0.00    +0.000 C 
ENDBRANCH  12  23
TORSDOF 3
ENDMDL
MODEL 2
REMARK VINA RESULT:      -7.1      7.930     10.718
REMARK  Name = 
REMARK  6 active torsions:
REMARK  status: ('A' for Active; 'I' for Inactive)
REMARK    1  A    between atoms: C_1  and  O_2
REMARK    2  A    between atoms: O_2  and  C_3
REMARK    3  A    between atoms: N_10  and  C_11
REMARK    4  A    between atoms: N_10  and  C_12
REMARK    5  A    between atoms: C_22  and  O_23
REMARK    6  A    between atoms: O_23  and  C_24
REMARK                            x       y       z     vdW  Elec       q    Type
REMARK                         _______ _______ _______ _____ _____    ______ ____
ROOT
ATOM      1  C   UNL     1      -2.966  10.490  16.310  0.00  0.00    +0.000 A 
ATOM      2  C   UNL     1      -4.229  11.086  16.472  0.00  0.00    +0.000 A 
ATOM      3  C   UNL     1      -4.603  11.740  17.640  0.00  0.00    +0.000 A 
ATOM      4  N   UNL     1      -5.790  12.348  17.674  0.00  0.00    +0.000 NA
ATOM      5  C   UNL     1      -6.091  13.004  18.796  0.00  0.00    +0.000 A 
ATOM      6  N   UNL     1      -5.317  13.118  19.882  0.00  0.00    +0.000 NA
ATOM      7  C   UNL     1      -4.103  12.519  19.836  0.00  0.00    +0.000 A 
ATOM      8  N   UNL     1      -3.230  12.681  20.946  0.00  0.00    +0.000 N 
ATOM      9  C   UNL     1      -3.923  13.052  22.187  0.00  0.00    +0.000 C 
ATOM     10  C   UNL     1      -3.712  11.754  18.714  0.00  0.00    +0.000 A 
ATOM     11  C   UNL     1      -2.508  11.027  18.603  0.00  0.00    +0.000 A 
ATOM     12  C   UNL     1      -2.111  10.413  17.410  0.00  0.00    +0.000 A 
ENDROOT
BRANCH   8  13
ATOM     13  C   UNL     1      -1.893  13.212  20.933  0.00  0.00    +0.000 A 
ATOM     14  C   UNL     1      -1.692  14.424  20.227  0.00  0.00    +0.000 A 
ATOM     15  C   UNL     1      -0.423  14.984  20.067  0.00  0.00    +0.000 A 
ATOM     16 BR   UNL     1      -0.211  16.549  19.027  0.00  0.00    +0.000 Br
ATOM     17  C   UNL     1       0.686  14.384  20.641  0.00  0.00    +0.000 A 
ATOM     18  C   UNL     1       0.518  13.217  21.383  0.00  0.00    +0.000 A 
ATOM     19  C   UNL     1      -0.751  12.624  21.526  0.00  0.00    +0.000 A 
ATOM     20 BR   UNL     1      -0.737  10.960  22.452  0.00  0.00    +0.000 Br
ENDBRANCH   8  13
BRANCH   1  22
ATOM     21  C   UNL     1      -3.536  10.095  14.045  0.00  0.00    +0.000 C 
ATOM     22  O   UNL     1      -2.580   9.966  15.102  0.00  0.00    +0.000 OA
ENDBRANCH   1  22
BRANCH  12  23
ATOM     23  O   UNL     1      -0.874   9.847  17.530  0.00  0.00    +0.000 OA
ATOM     24  C   UNL     1      -0.013  10.231  18.586  0.00  0.00    +0.000 C 
ENDBRANCH  12  23
TORSDOF 3
ENDMDL
MODEL 3
REMARK VINA RESULT:      -7.0      0.929      2.232
REMARK  Name = 
REMARK  6 active torsions:
REMARK  status: ('A' for Active; 'I' for Inactive)
REMARK    1  A    between atoms: C_1  and  O_2
REMARK    2  A    between atoms: O_2  and  C_3
REMARK    3  A    between atoms: N_10  and  C_11
REMARK    4  A    between atoms: N_10  and  C_12
REMARK    5  A    between atoms: C_22  and  O_23
REMARK    6  A    between atoms: O_23  and  C_24
REMARK                            x       y       z     vdW  Elec       q    Type
REMARK                         _______ _______ _______ _____ _____    ______ ____
ROOT
ATOM      1  C   UNL     1       1.763   7.440  20.250  0.00  0.00    +0.000 A 
ATOM      2  C   UNL     1       1.439   6.236  20.901  0.00  0.00    +0.000 A 
ATOM      3  C   UNL     1       1.866   4.997  20.437  0.00  0.00    +0.000 A 
ATOM      4  N   UNL     1       1.582   3.916  21.165  0.00  0.00    +0.000 NA
ATOM      5  C   UNL     1       2.050   2.752  20.710  0.00  0.00    +0.000 A 
ATOM      6  N   UNL     1       2.780   2.567  19.604  0.00  0.00    +0.000 NA
ATOM      7  C   UNL     1       3.087   3.670  18.880  0.00  0.00    +0.000 A 
ATOM      8  N   UNL     1       3.920   3.515  17.739  0.00  0.00    +0.000 N 
ATOM      9  C   UNL     1       3.940   2.145  17.208  0.00  0.00    +0.000 C 
ATOM     10  C   UNL     1       2.593   4.942  19.247  0.00  0.00    +0.000 A 
ATOM     11  C   UNL     1       2.786   6.133  18.517  0.00  0.00    +0.000 A 
ATOM     12  C   UNL     1       2.401   7.385  19.011  0.00  0.00    +0.000 A 
ENDROOT
BRANCH   8  13
ATOM     13  C   UNL     1       5.169   4.180  17.475  0.00  0.00    +0.000 A 
ATOM     14  C   UNL     1       5.958   4.530  18.598  0.00  0.00    +0.000 A 
ATOM     15  C   UNL     1       7.141   5.260  18.472  0.00  0.00    +0.000 A 
ATOM     16 BR   UNL     1       8.093   5.782  20.019  0.00  0.00    +0.000 Br
ATOM     17  C   UNL     1       7.608   5.627  17.220  0.00  0.00    +0.000 A 
ATOM     18  C   UNL     1       6.882   5.256  16.090  0.00  0.00    +0.000 A 
ATOM     19  C   UNL     1       5.670   4.549  16.204  0.00  0.00    +0.000 A 
ATOM     20 BR   UNL     1       4.767   4.272  14.551  0.00  0.00    +0.000 Br
ENDBRANCH   8  13
BRANCH   1  22
ATOM     21  C   UNL     1       0.118   8.743  21.350  0.00  0.00    +0.000 C 
ATOM     22  O   UNL     1       1.437   8.653  20.802  0.00  0.00    +0.000 OA
ENDBRANCH   1  22
BRANCH  12  23
ATOM     23  O   UNL     1       2.771   8.389  18.162  0.00  0.00    +0.000 OA
ATOM     24  C   UNL     1       1.826   9.358  17.748  0.00  0.00    +0.000 C 
ENDBRANCH  12  23
TORSDOF 3
ENDMDL
MODEL 4
REMARK VINA RESULT:      -7.0      7.212     10.554
REMARK  Name = 
REMARK  6 active torsions:
REMARK  status: ('A' for Active; 'I' for Inactive)
REMARK    1  A    between atoms: C_1  and  O_2
REMARK    2  A    between atoms: O_2  and  C_3
REMARK    3  A    between atoms: N_10  and  C_11
REMARK    4  A    between atoms: N_10  and  C_12
REMARK    5  A    between atoms: C_22  and  O_23
REMARK    6  A    between atoms: O_23  and  C_24
REMARK                            x       y       z     vdW  Elec       q    Type
REMARK                         _______ _______ _______ _____ _____    ______ ____
ROOT
ATOM      1  C   UNL     1      -2.812  10.287  17.054  0.00  0.00    +0.000 A 
ATOM      2  C   UNL     1      -1.477   9.865  17.191  0.00  0.00    +0.000 A 
ATOM      3  C   UNL     1      -0.611  10.420  18.126  0.00  0.00    +0.000 A 
ATOM      4  N   UNL     1       0.612   9.901  18.243  0.00  0.00    +0.000 NA
ATOM      5  C   UNL     1       1.395  10.429  19.184  0.00  0.00    +0.000 A 
ATOM      6  N   UNL     1       1.072  11.420  20.025  0.00  0.00    +0.000 NA
ATOM      7  C   UNL     1      -0.179  11.929  19.919  0.00  0.00    +0.000 A 
ATOM      8  N   UNL     1      -0.577  12.933  20.843  0.00  0.00    +0.000 N 
ATOM      9  C   UNL     1       0.552  13.636  21.468  0.00  0.00    +0.000 C 
ATOM     10  C   UNL     1      -1.067  11.475  18.918  0.00  0.00    +0.000 A 
ATOM     11  C   UNL     1      -2.355  11.996  18.674  0.00  0.00    +0.000 A 
ATOM     12  C   UNL     1      -3.243  11.404  17.768  0.00  0.00    +0.000 A 
ENDROOT
BRANCH   8  13
ATOM     13  C   UNL     1      -1.710  12.902  21.730  0.00  0.00    +0.000 A 
ATOM     14  C   UNL     1      -2.620  13.984  21.644  0.00  0.00    +0.000 A 
ATOM     15  C   UNL     1      -3.703  14.110  22.517  0.00  0.00    +0.000 A 
ATOM     16 BR   UNL     1      -4.820  15.631  22.414  0.00  0.00    +0.000 Br
ATOM     17  C   UNL     1      -3.947  13.140  23.476  0.00  0.00    +0.000 A 
ATOM     18  C   UNL     1      -3.099  12.037  23.556  0.00  0.00    +0.000 A 
ATOM     19  C   UNL     1      -1.985  11.914  22.705  0.00  0.00    +0.000 A 
ATOM     20 BR   UNL     1      -0.877  10.411  23.078  0.00  0.00    +0.000 Br
ENDBRANCH   8  13
BRANCH   1  22
ATOM     21  C   UNL     1      -3.681  10.096  14.858  0.00  0.00    +0.000 C 
ATOM     22  O   UNL     1      -3.677   9.634  16.212  0.00  0.00    +0.000 OA
ENDBRANCH   1  22
BRANCH  12  23
ATOM     23  O   UNL     1      -4.453  12.039  17.772  0.00  0.00    +0.000 OA
ATOM     24  C   UNL     1      -5.200  12.142  18.969  0.00  0.00    +0.000 C 
ENDBRANCH  12  23
TORSDOF 3
ENDMDL
MODEL 5
REMARK VINA RESULT:      -7.0      8.772     11.999
REMARK  Name = 
REMARK  6 active torsions:
REMARK  status: ('A' for Active; 'I' for Inactive)
REMARK    1  A    between atoms: C_1  and  O_2
REMARK    2  A    between atoms: O_2  and  C_3
REMARK    3  A    between atoms: N_10  and  C_11
REMARK    4  A    between atoms: N_10  and  C_12
REMARK    5  A    between atoms: C_22  and  O_23
REMARK    6  A    between atoms: O_23  and  C_24
REMARK                            x       y       z     vdW  Elec       q    Type
REMARK                         _______ _______ _______ _____ _____    ______ ____
ROOT
ATOM      1  C   UNL     1      -3.296  11.262  16.699  0.00  0.00    +0.000 A 
ATOM      2  C   UNL     1      -4.699  11.347  16.727  0.00  0.00    +0.000 A 
ATOM      3  C   UNL     1      -5.401  11.751  17.856  0.00  0.00    +0.000 A 
ATOM      4  N   UNL     1      -6.725  11.884  17.766  0.00  0.00    +0.000 NA
ATOM      5  C   UNL     1      -7.356  12.320  18.858  0.00  0.00    +0.000 A 
ATOM      6  N   UNL     1      -6.790  12.643  20.027  0.00  0.00    +0.000 NA
ATOM      7  C   UNL     1      -5.443  12.530  20.108  0.00  0.00    +0.000 A 
ATOM      8  N   UNL     1      -4.805  12.933  21.313  0.00  0.00    +0.000 N 
ATOM      9  C   UNL     1      -5.705  12.954  22.474  0.00  0.00    +0.000 C 
ATOM     10  C   UNL     1      -4.688  12.026  19.025  0.00  0.00    +0.000 A 
ATOM     11  C   UNL     1      -3.297  11.793  19.039  0.00  0.00    +0.000 A 
ATOM     12  C   UNL     1      -2.586  11.436  17.887  0.00  0.00    +0.000 A 
ENDROOT
BRANCH   8  13
ATOM     13  C   UNL     1      -3.762  13.913  21.461  0.00  0.00    +0.000 A 
ATOM     14  C   UNL     1      -3.995  15.188  20.889  0.00  0.00    +0.000 A 
ATOM     15  C   UNL     1      -3.019  16.187  20.888  0.00  0.00    +0.000 A 
ATOM     16 BR   UNL     1      -3.358  17.830  20.018  0.00  0.00    +0.000 Br
ATOM     17  C   UNL     1      -1.793  15.971  21.497  0.00  0.00    +0.000 A 
ATOM     18  C   UNL     1      -1.549  14.745  22.113  0.00  0.00    +0.000 A 
ATOM     19  C   UNL     1      -2.511  13.717  22.093  0.00  0.00    +0.000 A 
ATOM     20 BR   UNL     1      -1.920  12.078  22.861  0.00  0.00    +0.000 Br
ENDBRANCH   8  13
BRANCH   1  22
ATOM     21  C   UNL     1      -3.344  10.182  14.591  0.00  0.00    +0.000 C 
ATOM     22  O   UNL     1      -2.626  10.985  15.534  0.00  0.00    +0.000 OA
ENDBRANCH   1  22
BRANCH  12  23
ATOM     23  O   UNL     1      -1.246  11.352  18.137  0.00  0.00    +0.000 OA
ATOM     24  C   UNL     1      -0.765  10.526  19.180  0.00  0.00    +0.000 C 
ENDBRANCH  12  23
TORSDOF 3
ENDMDL
MODEL 6
REMARK VINA RESULT:      -6.8      8.069     11.195
REMARK  Name = 
REMARK  6 active torsions:
REMARK  status: ('A' for Active; 'I' for Inactive)
REMARK    1  A    between atoms: C_1  and  O_2
REMARK    2  A    between atoms: O_2  and  C_3
REMARK    3  A    between atoms: N_10  and  C_11
REMARK    4  A    between atoms: N_10  and  C_12
REMARK    5  A    between atoms: C_22  and  O_23
REMARK    6  A    between atoms: O_23  and  C_24
REMARK                            x       y       z     vdW  Elec       q    Type
REMARK                         _______ _______ _______ _____ _____    ______ ____
ROOT
ATOM      1  C   UNL     1      -2.502  10.499  17.707  0.00  0.00    +0.000 A 
ATOM      2  C   UNL     1      -1.103  10.503  17.853  0.00  0.00    +0.000 A 
ATOM      3  C   UNL     1      -0.450  11.324  18.765  0.00  0.00    +0.000 A 
ATOM      4  N   UNL     1       0.872  11.202  18.894  0.00  0.00    +0.000 NA
ATOM      5  C   UNL     1       1.455  11.973  19.813  0.00  0.00    +0.000 A 
ATOM      6  N   UNL     1       0.843  12.849  20.620  0.00  0.00    +0.000 NA
ATOM      7  C   UNL     1      -0.502  12.955  20.502  0.00  0.00    +0.000 A 
ATOM      8  N   UNL     1      -1.189  13.824  21.393  0.00  0.00    +0.000 N 
ATOM      9  C   UNL     1      -0.327  14.854  21.988  0.00  0.00    +0.000 C 
ATOM     10  C   UNL     1      -1.207  12.221  19.521  0.00  0.00    +0.000 A 
ATOM     11  C   UNL     1      -2.590  12.322  19.265  0.00  0.00    +0.000 A 
ATOM     12  C   UNL     1      -3.253  11.459  18.385  0.00  0.00    +0.000 A 
ENDROOT
BRANCH   8  13
ATOM     13  C   UNL     1      -2.265  13.484  22.286  0.00  0.00    +0.000 A 
ATOM     14  C   UNL     1      -3.281  14.456  22.462  0.00  0.00    +0.000 A 
ATOM     15  C   UNL     1      -4.324  14.277  23.373  0.00  0.00    +0.000 A 
ATOM     16 BR   UNL     1      -5.591  15.656  23.633  0.00  0.00    +0.000 Br
ATOM     17  C   UNL     1      -4.421  13.106  24.108  0.00  0.00    +0.000 A 
ATOM     18  C   UNL     1      -3.466  12.109  23.923  0.00  0.00    +0.000 A 
ATOM     19  C   UNL     1      -2.390  12.289  23.032  0.00  0.00    +0.000 A 
ATOM     20 BR   UNL     1      -1.121  10.869  23.040  0.00  0.00    +0.000 Br
ENDBRANCH   8  13
BRANCH   1  22
ATOM     21  C   UNL     1      -3.122   9.909  15.498  0.00  0.00    +0.000 C 
ATOM     22  O   UNL     1      -3.126   9.588  16.893  0.00  0.00    +0.000 OA
ENDBRANCH   1  22
BRANCH  12  23
ATOM     23  O   UNL     1      -4.598  11.701  18.372  0.00  0.00    +0.000 OA
ATOM     24  C   UNL     1      -5.191  12.488  19.387  0.00  0.00    +0.000 C 
ENDBRANCH  12  23
TORSDOF 3
ENDMDL
MODEL 7
REMARK VINA RESULT:      -6.7      1.537      2.536
REMARK  Name = 
REMARK  6 active torsions:
REMARK  status: ('A' for Active; 'I' for Inactive)
REMARK    1  A    between atoms: C_1  and  O_2
REMARK    2  A    between atoms: O_2  and  C_3
REMARK    3  A    between atoms: N_10  and  C_11
REMARK    4  A    between atoms: N_10  and  C_12
REMARK    5  A    between atoms: C_22  and  O_23
REMARK    6  A    between atoms: O_23  and  C_24
REMARK                            x       y       z     vdW  Elec       q    Type
REMARK                         _______ _______ _______ _____ _____    ______ ____
ROOT
ATOM      1  C   UNL     1       1.317   7.678  20.446  0.00  0.00    +0.000 A 
ATOM      2  C   UNL     1       1.029   6.368  20.870  0.00  0.00    +0.000 A 
ATOM      3  C   UNL     1       1.644   5.251  20.317  0.00  0.00    +0.000 A 
ATOM      4  N   UNL     1       1.371   4.054  20.838  0.00  0.00    +0.000 NA
ATOM      5  C   UNL     1       2.018   3.013  20.310  0.00  0.00    +0.000 A 
ATOM      6  N   UNL     1       2.916   3.055  19.319  0.00  0.00    +0.000 NA
ATOM      7  C   UNL     1       3.208   4.275  18.807  0.00  0.00    +0.000 A 
ATOM      8  N   UNL     1       4.209   4.360  17.802  0.00  0.00    +0.000 N 
ATOM      9  C   UNL     1       4.447   3.091  17.102  0.00  0.00    +0.000 C 
ATOM     10  C   UNL     1       2.537   5.433  19.260  0.00  0.00    +0.000 A 
ATOM     11  C   UNL     1       2.710   6.732  18.737  0.00  0.00    +0.000 A 
ATOM     12  C   UNL     1       2.130   7.860  19.327  0.00  0.00    +0.000 A 
ENDROOT
BRANCH   8  13
ATOM     13  C   UNL     1       5.408   5.157  17.831  0.00  0.00    +0.000 A 
ATOM     14  C   UNL     1       6.309   4.920  18.898  0.00  0.00    +0.000 A 
ATOM     15  C   UNL     1       7.456   5.693  19.083  0.00  0.00    +0.000 A 
ATOM     16 BR   UNL     1       8.562   5.391  20.586  0.00  0.00    +0.000 Br
ATOM     17  C   UNL     1       7.774   6.701  18.186  0.00  0.00    +0.000 A 
ATOM     18  C   UNL     1       6.936   6.929  17.097  0.00  0.00    +0.000 A 
ATOM     19  C   UNL     1       5.758   6.178  16.917  0.00  0.00    +0.000 A 
ATOM     20 BR   UNL     1       4.683   6.748  15.451  0.00  0.00    +0.000 Br
ENDBRANCH   8  13
BRANCH   1  22
ATOM     21  C   UNL     1       1.416   9.095  22.342  0.00  0.00    +0.000 C 
ATOM     22  O   UNL     1       0.791   8.765  21.097  0.00  0.00    +0.000 OA
ENDBRANCH   1  22
BRANCH  12  23
ATOM     23  O   UNL     1       2.513   9.006  18.690  0.00  0.00    +0.000 OA
ATOM     24  C   UNL     1       1.596   9.708  17.872  0.00  0.00    +0.000 C 
ENDBRANCH  12  23
TORSDOF 3
ENDMDL
MODEL 8
REMARK VINA RESULT:      -6.7      8.839     12.215
REMARK  Name = 
REMARK  6 active torsions:
REMARK  status: ('A' for Active; 'I' for Inactive)
REMARK    1  A    between atoms: C_1  and  O_2
REMARK    2  A    between atoms: O_2  and  C_3
REMARK    3  A    between atoms: N_10  and  C_11
REMARK    4  A    between atoms: N_10  and  C_12
REMARK    5  A    between atoms: C_22  and  O_23
REMARK    6  A    between atoms: O_23  and  C_24
REMARK                            x       y       z     vdW  Elec       q    Type
REMARK                         _______ _______ _______ _____ _____    ______ ____
ROOT
ATOM      1  C   UNL     1      -1.355  12.058  21.772  0.00  0.00    +0.000 A 
ATOM      2  C   UNL     1      -1.877  12.031  23.078  0.00  0.00    +0.000 A 
ATOM      3  C   UNL     1      -3.186  12.400  23.367  0.00  0.00    +0.000 A 
ATOM      4  N   UNL     1      -3.621  12.263  24.620  0.00  0.00    +0.000 NA
ATOM      5  C   UNL     1      -4.896  12.582  24.846  0.00  0.00    +0.000 A 
ATOM      6  N   UNL     1      -5.780  13.016  23.940  0.00  0.00    +0.000 NA
ATOM      7  C   UNL     1      -5.342  13.131  22.663  0.00  0.00    +0.000 A 
ATOM      8  N   UNL     1      -6.275  13.522  21.664  0.00  0.00    +0.000 N 
ATOM      9  C   UNL     1      -7.452  14.219  22.201  0.00  0.00    +0.000 C 
ATOM     10  C   UNL     1      -3.994  12.870  22.330  0.00  0.00    +0.000 A 
ATOM     11  C   UNL     1      -3.422  13.039  21.052  0.00  0.00    +0.000 A 
ATOM     12  C   UNL     1      -2.121  12.620  20.751  0.00  0.00    +0.000 A 
ENDROOT
BRANCH   8  13
ATOM     13  C   UNL     1      -6.613  12.809  20.460  0.00  0.00    +0.000 A 
ATOM     14  C   UNL     1      -6.768  11.405  20.569  0.00  0.00    +0.000 A 
ATOM     15  C   UNL     1      -7.003  10.599  19.454  0.00  0.00    +0.000 A 
ATOM     16 BR   UNL     1      -7.099   8.722  19.655  0.00  0.00    +0.000 Br
ATOM     17  C   UNL     1      -7.137  11.164  18.196  0.00  0.00    +0.000 A 
ATOM     18  C   UNL     1      -7.039  12.547  18.059  0.00  0.00    +0.000 A 
ATOM     19  C   UNL     1      -6.770  13.369  19.170  0.00  0.00    +0.000 A 
ATOM     20 BR   UNL     1      -6.529  15.209  18.742  0.00  0.00    +0.000 Br
ENDBRANCH   8  13
BRANCH   1  22
ATOM     21  C   UNL     1      -0.022  10.148  21.339  0.00  0.00    +0.000 C 
ATOM     22  O   UNL     1      -0.103  11.568  21.501  0.00  0.00    +0.000 OA
ENDBRANCH   1  22
BRANCH  12  23
ATOM     23  O   UNL     1      -1.829  12.814  19.431  0.00  0.00    +0.000 OA
ATOM     24  C   UNL     1      -1.995  11.759  18.502  0.00  0.00    +0.000 C 
ENDBRANCH  12  23
TORSDOF 3
ENDMDL
MODEL 9
REMARK VINA RESULT:      -6.6      9.834     12.323
REMARK  Name = 
REMARK  6 active torsions:
REMARK  status: ('A' for Active; 'I' for Inactive)
REMARK    1  A    between atoms: C_1  and  O_2
REMARK    2  A    between atoms: O_2  and  C_3
REMARK    3  A    between atoms: N_10  and  C_11
REMARK    4  A    between atoms: N_10  and  C_12
REMARK    5  A    between atoms: C_22  and  O_23
REMARK    6  A    between atoms: O_23  and  C_24
REMARK                            x       y       z     vdW  Elec       q    Type
REMARK                         _______ _______ _______ _____ _____    ______ ____
ROOT
ATOM      1  C   UNL     1      -0.899  13.042  19.449  0.00  0.00    +0.000 A 
ATOM      2  C   UNL     1      -1.107  12.404  18.213  0.00  0.00    +0.000 A 
ATOM      3  C   UNL     1      -2.326  11.837  17.860  0.00  0.00    +0.000 A 
ATOM      4  N   UNL     1      -2.457  11.327  16.635  0.00  0.00    +0.000 NA
ATOM      5  C   UNL     1      -3.656  10.836  16.319  0.00  0.00    +0.000 A 
ATOM      6  N   UNL     1      -4.738  10.813  17.106  0.00  0.00    +0.000 NA
ATOM      7  C   UNL     1      -4.609  11.353  18.342  0.00  0.00    +0.000 A 
ATOM      8  N   UNL     1      -5.759  11.407  19.176  0.00  0.00    +0.000 N 
ATOM      9  C   UNL     1      -6.803  10.445  18.799  0.00  0.00    +0.000 C 
ATOM     10  C   UNL     1      -3.365  11.850  18.792  0.00  0.00    +0.000 A 
ATOM     11  C   UNL     1      -3.108  12.354  20.084  0.00  0.00    +0.000 A 
ATOM     12  C   UNL     1      -1.897  12.971  20.420  0.00  0.00    +0.000 A 
ENDROOT
BRANCH   8  13
ATOM     13  C   UNL     1      -6.340  12.575  19.785  0.00  0.00    +0.000 A 
ATOM     14  C   UNL     1      -6.476  12.561  21.195  0.00  0.00    +0.000 A 
ATOM     15  C   UNL     1      -7.110  13.595  21.886  0.00  0.00    +0.000 A 
ATOM     16 BR   UNL     1      -7.350  13.466  23.757  0.00  0.00    +0.000 Br
ATOM     17  C   UNL     1      -7.589  14.703  21.206  0.00  0.00    +0.000 A 
ATOM     18  C   UNL     1      -7.428  14.772  19.824  0.00  0.00    +0.000 A 
ATOM     19  C   UNL     1      -6.820  13.721  19.110  0.00  0.00    +0.000 A 
ATOM     20 BR   UNL     1      -6.832  13.950  17.219  0.00  0.00    +0.000 Br
ENDBRANCH   8  13
BRANCH   1  22
ATOM     21  C   UNL     1       0.477  14.912  18.977  0.00  0.00    +0.000 C 
ATOM     22  O   UNL     1       0.273  13.704  19.716  0.00  0.00    +0.000 OA
ENDBRANCH   1  22
BRANCH  12  23
ATOM     23  O   UNL     1      -1.923  13.451  21.699  0.00  0.00    +0.000 OA
ATOM     24  C   UNL     1      -1.237  12.768  22.731  0.00  0.00    +0.000 C 
ENDBRANCH  12  23
TORSDOF 3
ENDMDL
