MODEL 1
REMARK VINA RESULT:      -7.4      0.000      0.000
REMARK  Name = 
REMARK  5 active torsions:
REMARK  status: ('A' for Active; 'I' for Inactive)
REMARK    1  A    between atoms: C_1  and  C_2
REMARK    2  A    between atoms: C_3  and  C_4
REMARK    3  A    between atoms: N_6  and  N_7
REMARK    4  A    between atoms: N_10  and  N_11
REMARK    5  A    between atoms: N_11  and  C_12
REMARK                            x       y       z     vdW  Elec       q    Type
REMARK                         _______ _______ _______ _____ _____    ______ ____
ROOT
ATOM      1  C   UNL     1       4.843   6.296  15.855  0.00  0.00    +0.000 C 
ATOM      2  C   UNL     1       6.048   5.531  16.240  0.00  0.00    +0.000 A 
ATOM      3  C   UNL     1       7.010   4.852  15.504  0.00  0.00    +0.000 A 
ATOM      4  N   UNL     1       7.888   4.245  16.367  0.00  0.00    +0.000 NA
ATOM      5  N   UNL     1       7.486   4.489  17.601  0.00  0.00    +0.000 NA
ATOM      6  N   UNL     1       6.442   5.333  17.539  0.00  0.00    +0.000 N 
ENDROOT
BRANCH   3   7
ATOM      7  C   UNL     1       7.138   4.701  14.063  0.00  0.00    +0.000 C 
ATOM      8  O   UNL     1       7.765   5.472  13.343  0.00  0.00    +0.000 OA
ATOM      9  N   UNL     1       6.461   3.583  13.574  0.00  0.00    +0.000 N 
ATOM     10  H   UNL     1       6.028   2.944  14.238  0.00  0.00    +0.000 HD
BRANCH   9  11
ATOM     11  N   UNL     1       6.491   3.261  12.199  0.00  0.00    +0.000 NA
ATOM     12  H   UNL     1       6.544   2.235  12.127  0.00  0.00    +0.000 HD
ATOM     13  H   UNL     1       7.384   3.588  11.819  0.00  0.00    +0.000 HD
ENDBRANCH   9  11
ENDBRANCH   3   7
BRANCH   6  14
ATOM     14  N   UNL     1       5.836   5.777  18.695  0.00  0.00    +0.000 N 
ATOM     15  H   UNL     1       5.587   6.752  18.565  0.00  0.00    +0.000 HD
BRANCH  14  16
ATOM     16  C   UNL     1       4.747   5.062  19.263  0.00  0.00    +0.000 A 
ATOM     17  C   UNL     1       3.594   5.718  19.720  0.00  0.00    +0.000 A 
ATOM     18  C   UNL     1       2.576   5.013  20.368  0.00  0.00    +0.000 A 
ATOM     19  C   UNL     1       2.685   3.635  20.523  0.00  0.00    +0.000 A 
ATOM     20 BR   UNL     1       1.347   2.688  21.462  0.00  0.00    +0.000 Br
ATOM     21  C   UNL     1       3.783   2.954  20.000  0.00  0.00    +0.000 A 
ATOM     22  C   UNL     1       4.801   3.664  19.355  0.00  0.00    +0.000 A 
ENDBRANCH  14  16
ENDBRANCH   6  14
TORSDOF 4
ENDMDL
MODEL 2
REMARK VINA RESULT:      -7.2      0.388      1.198
REMARK  Name = 
REMARK  5 active torsions:
REMARK  status: ('A' for Active; 'I' for Inactive)
REMARK    1  A    between atoms: C_1  and  C_2
REMARK    2  A    between atoms: C_3  and  C_4
REMARK    3  A    between atoms: N_6  and  N_7
REMARK    4  A    between atoms: N_10  and  N_11
REMARK    5  A    between atoms: N_11  and  C_12
REMARK                            x       y       z     vdW  Elec       q    Type
REMARK                         _______ _______ _______ _____ _____    ______ ____
ROOT
ATOM      1  C   UNL     1       4.896   6.219  16.096  0.00  0.00    +0.000 C 
ATOM      2  C   UNL     1       6.123   5.483  16.469  0.00  0.00    +0.000 A 
ATOM      3  C   UNL     1       7.105   4.846  15.722  0.00  0.00    +0.000 A 
ATOM      4  N   UNL     1       8.000   4.249  16.576  0.00  0.00    +0.000 NA
ATOM      5  N   UNL     1       7.589   4.458  17.812  0.00  0.00    +0.000 NA
ATOM      6  N   UNL     1       6.521   5.272  17.765  0.00  0.00    +0.000 N 
ENDROOT
BRANCH   3   7
ATOM      7  C   UNL     1       7.240   4.725  14.279  0.00  0.00    +0.000 C 
ATOM      8  O   UNL     1       7.924   5.472  13.587  0.00  0.00    +0.000 OA
ATOM      9  N   UNL     1       6.495   3.669  13.752  0.00  0.00    +0.000 N 
ATOM     10  H   UNL     1       6.014   3.042  14.395  0.00  0.00    +0.000 HD
BRANCH   9  11
ATOM     11  N   UNL     1       6.520   3.382  12.370  0.00  0.00    +0.000 NA
ATOM     12  H   UNL     1       6.459   4.280  11.870  0.00  0.00    +0.000 HD
ATOM     13  H   UNL     1       5.648   2.900  12.133  0.00  0.00    +0.000 HD
ENDBRANCH   9  11
ENDBRANCH   3   7
BRANCH   6  14
ATOM     14  N   UNL     1       5.900   5.677  18.927  0.00  0.00    +0.000 N 
ATOM     15  H   UNL     1       5.756   6.679  18.874  0.00  0.00    +0.000 HD
BRANCH  14  16
ATOM     16  C   UNL     1       4.718   5.031  19.381  0.00  0.00    +0.000 A 
ATOM     17  C   UNL     1       4.655   3.639  19.542  0.00  0.00    +0.000 A 
ATOM     18  C   UNL     1       3.457   3.010  19.890  0.00  0.00    +0.000 A 
ATOM     19  C   UNL     1       2.320   3.778  20.125  0.00  0.00    +0.000 A 
ATOM     20 BR   UNL     1       0.681   2.928  20.525  0.00  0.00    +0.000 Br
ATOM     21  C   UNL     1       2.384   5.168  20.054  0.00  0.00    +0.000 A 
ATOM     22  C   UNL     1       3.585   5.793  19.701  0.00  0.00    +0.000 A 
ENDBRANCH  14  16
ENDBRANCH   6  14
TORSDOF 4
ENDMDL
MODEL 3
REMARK VINA RESULT:      -7.0      1.089      1.089
REMARK  Name = 
REMARK  5 active torsions:
REMARK  status: ('A' for Active; 'I' for Inactive)
REMARK    1  A    between atoms: C_1  and  C_2
REMARK    2  A    between atoms: C_3  and  C_4
REMARK    3  A    between atoms: N_6  and  N_7
REMARK    4  A    between atoms: N_10  and  N_11
REMARK    5  A    between atoms: N_11  and  C_12
REMARK                            x       y       z     vdW  Elec       q    Type
REMARK                         _______ _______ _______ _____ _____    ______ ____
ROOT
ATOM      1  C   UNL     1       4.820   6.269  16.162  0.00  0.00    +0.000 C 
ATOM      2  C   UNL     1       6.043   5.516  16.513  0.00  0.00    +0.000 A 
ATOM      3  C   UNL     1       7.014   4.885  15.747  0.00  0.00    +0.000 A 
ATOM      4  N   UNL     1       7.910   4.264  16.583  0.00  0.00    +0.000 NA
ATOM      5  N   UNL     1       7.510   4.454  17.826  0.00  0.00    +0.000 NA
ATOM      6  N   UNL     1       6.448   5.277  17.801  0.00  0.00    +0.000 N 
ENDROOT
BRANCH   3   7
ATOM      7  C   UNL     1       7.139   4.791  14.301  0.00  0.00    +0.000 C 
ATOM      8  O   UNL     1       6.531   3.979  13.609  0.00  0.00    +0.000 OA
ATOM      9  N   UNL     1       8.037   5.719  13.774  0.00  0.00    +0.000 N 
ATOM     10  H   UNL     1       8.445   6.414  14.397  0.00  0.00    +0.000 HD
BRANCH   9  11
ATOM     11  N   UNL     1       8.271   5.794  12.383  0.00  0.00    +0.000 NA
ATOM     12  H   UNL     1       8.084   4.860  11.991  0.00  0.00    +0.000 HD
ATOM     13  H   UNL     1       9.275   5.932  12.240  0.00  0.00    +0.000 HD
ENDBRANCH   9  11
ENDBRANCH   3   7
BRANCH   6  14
ATOM     14  N   UNL     1       5.839   5.665  18.976  0.00  0.00    +0.000 N 
ATOM     15  H   UNL     1       5.637   6.657  18.913  0.00  0.00    +0.000 HD
BRANCH  14  16
ATOM     16  C   UNL     1       4.708   4.962  19.473  0.00  0.00    +0.000 A 
ATOM     17  C   UNL     1       3.549   5.633  19.890  0.00  0.00    +0.000 A 
ATOM     18  C   UNL     1       2.485   4.937  20.470  0.00  0.00    +0.000 A 
ATOM     19  C   UNL     1       2.557   3.553  20.595  0.00  0.00    +0.000 A 
ATOM     20 BR   UNL     1       1.154   2.615  21.444  0.00  0.00    +0.000 Br
ATOM     21  C   UNL     1       3.663   2.859  20.109  0.00  0.00    +0.000 A 
ATOM     22  C   UNL     1       4.727   3.561  19.532  0.00  0.00    +0.000 A 
ENDBRANCH  14  16
ENDBRANCH   6  14
TORSDOF 4
ENDMDL
MODEL 4
REMARK VINA RESULT:      -6.9      1.102      1.544
REMARK  Name = 
REMARK  5 active torsions:
REMARK  status: ('A' for Active; 'I' for Inactive)
REMARK    1  A    between atoms: C_1  and  C_2
REMARK    2  A    between atoms: C_3  and  C_4
REMARK    3  A    between atoms: N_6  and  N_7
REMARK    4  A    between atoms: N_10  and  N_11
REMARK    5  A    between atoms: N_11  and  C_12
REMARK                            x       y       z     vdW  Elec       q    Type
REMARK                         _______ _______ _______ _____ _____    ______ ____
ROOT
ATOM      1  C   UNL     1       7.607   4.411  17.301  0.00  0.00    +0.000 C 
ATOM      2  C   UNL     1       6.556   5.175  16.594  0.00  0.00    +0.000 A 
ATOM      3  C   UNL     1       6.301   5.404  15.248  0.00  0.00    +0.000 A 
ATOM      4  N   UNL     1       5.227   6.253  15.135  0.00  0.00    +0.000 NA
ATOM      5  N   UNL     1       4.837   6.585  16.352  0.00  0.00    +0.000 NA
ATOM      6  N   UNL     1       5.564   5.875  17.231  0.00  0.00    +0.000 N 
ENDROOT
BRANCH   3   7
ATOM      7  C   UNL     1       7.009   4.919  14.074  0.00  0.00    +0.000 C 
ATOM      8  O   UNL     1       8.033   5.429  13.629  0.00  0.00    +0.000 OA
ATOM      9  N   UNL     1       6.395   3.809  13.492  0.00  0.00    +0.000 N 
ATOM     10  H   UNL     1       5.593   3.392  13.961  0.00  0.00    +0.000 HD
BRANCH   9  11
ATOM     11  N   UNL     1       6.953   3.185  12.355  0.00  0.00    +0.000 NA
ATOM     12  H   UNL     1       7.975   3.189  12.475  0.00  0.00    +0.000 HD
ATOM     13  H   UNL     1       6.790   3.796  11.549  0.00  0.00    +0.000 HD
ENDBRANCH   9  11
ENDBRANCH   3   7
BRANCH   6  14
ATOM     14  N   UNL     1       5.346   6.010  18.586  0.00  0.00    +0.000 N 
ATOM     15  H   UNL     1       5.186   6.993  18.782  0.00  0.00    +0.000 HD
BRANCH  14  16
ATOM     16  C   UNL     1       4.374   5.211  19.247  0.00  0.00    +0.000 A 
ATOM     17  C   UNL     1       3.217   5.773  19.807  0.00  0.00    +0.000 A 
ATOM     18  C   UNL     1       2.322   4.990  20.541  0.00  0.00    +0.000 A 
ATOM     19  C   UNL     1       2.557   3.626  20.681  0.00  0.00    +0.000 A 
ATOM     20 BR   UNL     1       1.390   2.577  21.733  0.00  0.00    +0.000 Br
ATOM     21  C   UNL     1       3.655   3.034  20.060  0.00  0.00    +0.000 A 
ATOM     22  C   UNL     1       4.549   3.822  19.329  0.00  0.00    +0.000 A 
ENDBRANCH  14  16
ENDBRANCH   6  14
TORSDOF 4
ENDMDL
MODEL 5
REMARK VINA RESULT:      -6.8      2.309      3.389
REMARK  Name = 
REMARK  5 active torsions:
REMARK  status: ('A' for Active; 'I' for Inactive)
REMARK    1  A    between atoms: C_1  and  C_2
REMARK    2  A    between atoms: C_3  and  C_4
REMARK    3  A    between atoms: N_6  and  N_7
REMARK    4  A    between atoms: N_10  and  N_11
REMARK    5  A    between atoms: N_11  and  C_12
REMARK                            x       y       z     vdW  Elec       q    Type
REMARK                         _______ _______ _______ _____ _____    ______ ____
ROOT
ATOM      1  C   UNL     1       5.570   3.310  15.355  0.00  0.00    +0.000 C 
ATOM      2  C   UNL     1       6.374   4.076  14.378  0.00  0.00    +0.000 A 
ATOM      3  C   UNL     1       6.560   3.953  13.008  0.00  0.00    +0.000 A 
ATOM      4  N   UNL     1       7.476   4.889  12.595  0.00  0.00    +0.000 NA
ATOM      5  N   UNL     1       7.888   5.555  13.657  0.00  0.00    +0.000 NA
ATOM      6  N   UNL     1       7.169   5.141  14.714  0.00  0.00    +0.000 N 
ENDROOT
BRANCH   3   7
ATOM      7  C   UNL     1       5.975   3.003  12.074  0.00  0.00    +0.000 C 
ATOM      8  O   UNL     1       4.828   3.078  11.643  0.00  0.00    +0.000 OA
ATOM      9  N   UNL     1       6.856   1.979  11.721  0.00  0.00    +0.000 N 
ATOM     10  H   UNL     1       7.817   2.024  12.055  0.00  0.00    +0.000 HD
BRANCH   9  11
ATOM     11  N   UNL     1       6.472   0.976  10.805  0.00  0.00    +0.000 NA
ATOM     12  H   UNL     1       7.002   0.126  11.043  0.00  0.00    +0.000 HD
ATOM     13  H   UNL     1       6.822   1.243   9.881  0.00  0.00    +0.000 HD
ENDBRANCH   9  11
ENDBRANCH   3   7
BRANCH   6  14
ATOM     14  N   UNL     1       7.379   5.694  15.959  0.00  0.00    +0.000 N 
ATOM     15  H   UNL     1       7.873   6.571  15.835  0.00  0.00    +0.000 HD
BRANCH  14  16
ATOM     16  C   UNL     1       6.301   5.860  16.870  0.00  0.00    +0.000 A 
ATOM     17  C   UNL     1       6.282   5.211  18.114  0.00  0.00    +0.000 A 
ATOM     18  C   UNL     1       5.169   5.304  18.954  0.00  0.00    +0.000 A 
ATOM     19  C   UNL     1       4.083   6.086  18.574  0.00  0.00    +0.000 A 
ATOM     20 BR   UNL     1       2.547   6.156  19.672  0.00  0.00    +0.000 Br
ATOM     21  C   UNL     1       4.119   6.806  17.381  0.00  0.00    +0.000 A 
ATOM     22  C   UNL     1       5.233   6.708  16.542  0.00  0.00    +0.000 A 
ENDBRANCH  14  16
ENDBRANCH   6  14
TORSDOF 4
ENDMDL
MODEL 6
REMARK VINA RESULT:      -6.8      4.578      6.659
REMARK  Name = 
REMARK  5 active torsions:
REMARK  status: ('A' for Active; 'I' for Inactive)
REMARK    1  A    between atoms: C_1  and  C_2
REMARK    2  A    between atoms: C_3  and  C_4
REMARK    3  A    between atoms: N_6  and  N_7
REMARK    4  A    between atoms: N_10  and  N_11
REMARK    5  A    between atoms: N_11  and  C_12
REMARK                            x       y       z     vdW  Elec       q    Type
REMARK                         _______ _______ _______ _____ _____    ______ ____
ROOT
ATOM      1  C   UNL     1       2.338   4.080  17.619  0.00  0.00    +0.000 C 
ATOM      2  C   UNL     1       3.184   3.408  18.629  0.00  0.00    +0.000 A 
ATOM      3  C   UNL     1       2.906   2.848  19.869  0.00  0.00    +0.000 A 
ATOM      4  N   UNL     1       4.079   2.414  20.437  0.00  0.00    +0.000 NA
ATOM      5  N   UNL     1       5.068   2.719  19.618  0.00  0.00    +0.000 NA
ATOM      6  N   UNL     1       4.537   3.229  18.494  0.00  0.00    +0.000 N 
ENDROOT
BRANCH   3   7
ATOM      7  C   UNL     1       1.636   2.727  20.569  0.00  0.00    +0.000 C 
ATOM      8  O   UNL     1       0.540   2.864  20.034  0.00  0.00    +0.000 OA
ATOM      9  N   UNL     1       1.792   2.448  21.927  0.00  0.00    +0.000 N 
ATOM     10  H   UNL     1       2.729   2.269  22.286  0.00  0.00    +0.000 HD
BRANCH   9  11
ATOM     11  N   UNL     1       0.669   2.272  22.765  0.00  0.00    +0.000 NA
ATOM     12  H   UNL     1       0.618   3.094  23.384  0.00  0.00    +0.000 HD
ATOM     13  H   UNL     1       0.867   1.491  23.397  0.00  0.00    +0.000 HD
ENDBRANCH   9  11
ENDBRANCH   3   7
BRANCH   6  14
ATOM     14  N   UNL     1       5.351   3.613  17.450  0.00  0.00    +0.000 N 
ATOM     15  H   UNL     1       4.815   3.544  16.591  0.00  0.00    +0.000 HD
BRANCH  14  16
ATOM     16  C   UNL     1       6.054   4.848  17.494  0.00  0.00    +0.000 A 
ATOM     17  C   UNL     1       7.257   4.984  18.202  0.00  0.00    +0.000 A 
ATOM     18  C   UNL     1       7.882   6.228  18.321  0.00  0.00    +0.000 A 
ATOM     19  C   UNL     1       7.329   7.339  17.692  0.00  0.00    +0.000 A 
ATOM     20 BR   UNL     1       8.131   9.036  17.910  0.00  0.00    +0.000 Br
ATOM     21  C   UNL     1       6.181   7.206  16.914  0.00  0.00    +0.000 A 
ATOM     22  C   UNL     1       5.557   5.960  16.800  0.00  0.00    +0.000 A 
ENDBRANCH  14  16
ENDBRANCH   6  14
TORSDOF 4
ENDMDL
MODEL 7
REMARK VINA RESULT:      -6.7      1.086      1.915
REMARK  Name = 
REMARK  5 active torsions:
REMARK  status: ('A' for Active; 'I' for Inactive)
REMARK    1  A    between atoms: C_1  and  C_2
REMARK    2  A    between atoms: C_3  and  C_4
REMARK    3  A    between atoms: N_6  and  N_7
REMARK    4  A    between atoms: N_10  and  N_11
REMARK    5  A    between atoms: N_11  and  C_12
REMARK                            x       y       z     vdW  Elec       q    Type
REMARK                         _______ _______ _______ _____ _____    ______ ____
ROOT
ATOM      1  C   UNL     1       7.598   4.338  17.081  0.00  0.00    +0.000 C 
ATOM      2  C   UNL     1       6.555   5.147  16.416  0.00  0.00    +0.000 A 
ATOM      3  C   UNL     1       6.244   5.373  15.082  0.00  0.00    +0.000 A 
ATOM      4  N   UNL     1       5.211   6.275  15.009  0.00  0.00    +0.000 NA
ATOM      5  N   UNL     1       4.901   6.643  16.238  0.00  0.00    +0.000 NA
ATOM      6  N   UNL     1       5.633   5.907  17.091  0.00  0.00    +0.000 N 
ENDROOT
BRANCH   3   7
ATOM      7  C   UNL     1       6.867   4.837  13.881  0.00  0.00    +0.000 C 
ATOM      8  O   UNL     1       7.817   5.360  13.307  0.00  0.00    +0.000 OA
ATOM      9  N   UNL     1       6.262   3.661  13.436  0.00  0.00    +0.000 N 
ATOM     10  H   UNL     1       5.529   3.242  14.007  0.00  0.00    +0.000 HD
BRANCH   9  11
ATOM     11  N   UNL     1       6.745   2.983  12.296  0.00  0.00    +0.000 NA
ATOM     12  H   UNL     1       7.261   2.156  12.629  0.00  0.00    +0.000 HD
ATOM     13  H   UNL     1       7.462   3.571  11.861  0.00  0.00    +0.000 HD
ENDBRANCH   9  11
ENDBRANCH   3   7
BRANCH   6  14
ATOM     14  N   UNL     1       5.490   6.069  18.452  0.00  0.00    +0.000 N 
ATOM     15  H   UNL     1       5.330   7.054  18.636  0.00  0.00    +0.000 HD
BRANCH  14  16
ATOM     16  C   UNL     1       4.567   5.274  19.185  0.00  0.00    +0.000 A 
ATOM     17  C   UNL     1       4.779   3.903  19.391  0.00  0.00    +0.000 A 
ATOM     18  C   UNL     1       3.814   3.115  20.025  0.00  0.00    +0.000 A 
ATOM     19  C   UNL     1       2.647   3.706  20.498  0.00  0.00    +0.000 A 
ATOM     20 BR   UNL     1       1.308   2.634  21.290  0.00  0.00    +0.000 Br
ATOM     21  C   UNL     1       2.456   5.081  20.379  0.00  0.00    +0.000 A 
ATOM     22  C   UNL     1       3.423   5.865  19.741  0.00  0.00    +0.000 A 
ENDBRANCH  14  16
ENDBRANCH   6  14
TORSDOF 4
ENDMDL
MODEL 8
REMARK VINA RESULT:      -6.6      2.065      2.443
REMARK  Name = 
REMARK  5 active torsions:
REMARK  status: ('A' for Active; 'I' for Inactive)
REMARK    1  A    between atoms: C_1  and  C_2
REMARK    2  A    between atoms: C_3  and  C_4
REMARK    3  A    between atoms: N_6  and  N_7
REMARK    4  A    between atoms: N_10  and  N_11
REMARK    5  A    between atoms: N_11  and  C_12
REMARK                            x       y       z     vdW  Elec       q    Type
REMARK                         _______ _______ _______ _____ _____    ______ ____
ROOT
ATOM      1  C   UNL     1       4.117   3.618  16.230  0.00  0.00    +0.000 C 
ATOM      2  C   UNL     1       5.400   4.122  16.764  0.00  0.00    +0.000 A 
ATOM      3  C   UNL     1       6.589   4.504  16.157  0.00  0.00    +0.000 A 
ATOM      4  N   UNL     1       7.503   4.829  17.129  0.00  0.00    +0.000 NA
ATOM      5  N   UNL     1       6.940   4.627  18.306  0.00  0.00    +0.000 NA
ATOM      6  N   UNL     1       5.655   4.293  18.101  0.00  0.00    +0.000 N 
ENDROOT
BRANCH   3   7
ATOM      7  C   UNL     1       6.938   4.547  14.745  0.00  0.00    +0.000 C 
ATOM      8  O   UNL     1       6.469   3.794  13.897  0.00  0.00    +0.000 OA
ATOM      9  N   UNL     1       7.879   5.534  14.451  0.00  0.00    +0.000 N 
ATOM     10  H   UNL     1       8.165   6.174  15.190  0.00  0.00    +0.000 HD
BRANCH   9  11
ATOM     11  N   UNL     1       8.323   5.742  13.126  0.00  0.00    +0.000 NA
ATOM     12  H   UNL     1       8.686   4.842  12.781  0.00  0.00    +0.000 HD
ATOM     13  H   UNL     1       9.145   6.350  13.162  0.00  0.00    +0.000 HD
ENDBRANCH   9  11
ENDBRANCH   3   7
BRANCH   6  14
ATOM     14  N   UNL     1       4.819   4.048  19.169  0.00  0.00    +0.000 N 
ATOM     15  H   UNL     1       5.396   3.836  19.977  0.00  0.00    +0.000 HD
BRANCH  14  16
ATOM     16  C   UNL     1       3.799   4.973  19.521  0.00  0.00    +0.000 A 
ATOM     17  C   UNL     1       3.746   6.258  18.959  0.00  0.00    +0.000 A 
ATOM     18  C   UNL     1       2.799   7.190  19.389  0.00  0.00    +0.000 A 
ATOM     19  C   UNL     1       1.866   6.827  20.356  0.00  0.00    +0.000 A 
ATOM     20 BR   UNL     1       0.630   8.106  20.993  0.00  0.00    +0.000 Br
ATOM     21  C   UNL     1       1.849   5.530  20.864  0.00  0.00    +0.000 A 
ATOM     22  C   UNL     1       2.801   4.600  20.432  0.00  0.00    +0.000 A 
ENDBRANCH  14  16
ENDBRANCH   6  14
TORSDOF 4
ENDMDL
MODEL 9
REMARK VINA RESULT:      -6.6      4.391      6.743
REMARK  Name = 
REMARK  5 active torsions:
REMARK  status: ('A' for Active; 'I' for Inactive)
REMARK    1  A    between atoms: C_1  and  C_2
REMARK    2  A    between atoms: C_3  and  C_4
REMARK    3  A    between atoms: N_6  and  N_7
REMARK    4  A    between atoms: N_10  and  N_11
REMARK    5  A    between atoms: N_11  and  C_12
REMARK                            x       y       z     vdW  Elec       q    Type
REMARK                         _______ _______ _______ _____ _____    ______ ____
ROOT
ATOM      1  C   UNL     1       3.039   5.982  19.210  0.00  0.00    +0.000 C 
ATOM      2  C   UNL     1       3.593   4.639  19.487  0.00  0.00    +0.000 A 
ATOM      3  C   UNL     1       3.096   3.536  20.168  0.00  0.00    +0.000 A 
ATOM      4  N   UNL     1       4.057   2.555  20.193  0.00  0.00    +0.000 NA
ATOM      5  N   UNL     1       5.135   3.022  19.591  0.00  0.00    +0.000 NA
ATOM      6  N   UNL     1       4.839   4.231  19.084  0.00  0.00    +0.000 N 
ENDROOT
BRANCH   3   7
ATOM      7  C   UNL     1       1.811   3.353  20.825  0.00  0.00    +0.000 C 
ATOM      8  O   UNL     1       0.762   3.861  20.438  0.00  0.00    +0.000 OA
ATOM      9  N   UNL     1       1.893   2.543  21.958  0.00  0.00    +0.000 N 
ATOM     10  H   UNL     1       2.781   2.092  22.174  0.00  0.00    +0.000 HD
BRANCH   9  11
ATOM     11  N   UNL     1       0.741   2.234  22.714  0.00  0.00    +0.000 NA
ATOM     12  H   UNL     1       0.581   3.017  23.361  0.00  0.00    +0.000 HD
ATOM     13  H   UNL     1       0.968   1.443  23.323  0.00  0.00    +0.000 HD
ENDBRANCH   9  11
ENDBRANCH   3   7
BRANCH   6  14
ATOM     14  N   UNL     1       5.786   4.941  18.377  0.00  0.00    +0.000 N 
ATOM     15  H   UNL     1       6.679   4.823  18.843  0.00  0.00    +0.000 HD
BRANCH  14  16
ATOM     16  C   UNL     1       5.932   4.758  16.975  0.00  0.00    +0.000 A 
ATOM     17  C   UNL     1       4.878   4.282  16.181  0.00  0.00    +0.000 A 
ATOM     18  C   UNL     1       5.068   4.011  14.823  0.00  0.00    +0.000 A 
ATOM     19  C   UNL     1       6.306   4.258  14.240  0.00  0.00    +0.000 A 
ATOM     20 BR   UNL     1       6.589   3.826  12.422  0.00  0.00    +0.000 Br
ATOM     21  C   UNL     1       7.340   4.811  14.992  0.00  0.00    +0.000 A 
ATOM     22  C   UNL     1       7.147   5.078  16.352  0.00  0.00    +0.000 A 
ENDBRANCH  14  16
ENDBRANCH   6  14
TORSDOF 4
ENDMDL
