MODEL 1
REMARK VINA RESULT:      -8.6      0.000      0.000
REMARK  Name = 
REMARK  8 active torsions:
REMARK  status: ('A' for Active; 'I' for Inactive)
REMARK    1  A    between atoms: C_1  and  C_2
REMARK    2  A    between atoms: C_2  and  N_3
REMARK    3  A    between atoms: N_3  and  C_26
REMARK    4  A    between atoms: C_4  and  C_6
REMARK    5  A    between atoms: N_10  and  S_11
REMARK    6  A    between atoms: S_11  and  C_14
REMARK    7  A    between atoms: C_29  and  O_30
REMARK    8  A    between atoms: O_30  and  C_31
REMARK                            x       y       z     vdW  Elec       q    Type
REMARK                         _______ _______ _______ _____ _____    ______ ____
ROOT
ATOM      1  C   UNL     1       1.043   8.420  20.093  0.00  0.00    +0.000 C 
ATOM      2  C   UNL     1       1.414   8.515  21.580  0.00  0.00    +0.000 C 
ATOM      3  C   UNL     1       0.321   9.256  22.339  0.00  0.00    +0.000 C 
ATOM      4  C   UNL     1       0.067  10.642  21.751  0.00  0.00    +0.000 C 
ATOM      5  N   UNL     1      -0.201  10.573  20.278  0.00  0.00    +0.000 NA
ATOM      6  C   UNL     1       0.897   9.845  19.544  0.00  0.00    +0.000 C 
ENDROOT
BRANCH   1   8
ATOM      7  N   UNL     1       2.413   6.340  19.676  0.00  0.00    +0.000 N 
ATOM      8  C   UNL     1       2.118   7.662  19.316  0.00  0.00    +0.000 C 
ATOM      9  O   UNL     1       2.640   8.222  18.344  0.00  0.00    +0.000 OA
BRANCH   7  10
ATOM     10  C   UNL     1       3.365   5.626  18.873  0.00  0.00    +0.000 A 
ATOM     11  C   UNL     1       4.716   5.578  19.239  0.00  0.00    +0.000 A 
ATOM     12  C   UNL     1       5.649   4.926  18.426  0.00  0.00    +0.000 A 
ATOM     13  C   UNL     1       5.251   4.321  17.235  0.00  0.00    +0.000 A 
ATOM     14  C   UNL     1       3.910   4.375  16.858  0.00  0.00    +0.000 A 
ATOM     15  C   UNL     1       2.971   5.008  17.681  0.00  0.00    +0.000 A 
BRANCH  13  16
ATOM     16  O   UNL     1       6.257   3.759  16.500  0.00  0.00    +0.000 OA
ATOM     17  C   UNL     1       6.682   4.499  15.362  0.00  0.00    +0.000 C 
ENDBRANCH  13  16
ENDBRANCH   7  10
BRANCH   7  19
ATOM     18  C   UNL     1       1.090   4.287  20.272  0.00  0.00    +0.000 C 
ATOM     19  C   UNL     1       1.759   5.573  20.759  0.00  0.00    +0.000 C 
ENDBRANCH   7  19
ENDBRANCH   1   8
BRANCH   5  20
ATOM     20  S   UNL     1      -0.587  12.099  19.576  0.00  0.00    +0.000 S 
ATOM     21  O   UNL     1      -0.538  13.104  20.622  0.00  0.00    +0.000 OA
ATOM     22  O   UNL     1       0.183  12.251  18.361  0.00  0.00    +0.000 OA
BRANCH  20  23
ATOM     23  C   UNL     1      -2.290  11.914  19.085  0.00  0.00    +0.000 A 
ATOM     24  C   UNL     1      -2.571  11.460  17.784  0.00  0.00    +0.000 A 
ATOM     25  C   UNL     1      -3.892  11.409  17.331  0.00  0.00    +0.000 A 
ATOM     26  C   UNL     1      -4.928  11.820  18.169  0.00  0.00    +0.000 A 
ATOM     27  C   UNL     1      -4.643  12.271  19.463  0.00  0.00    +0.000 A 
ATOM     28  C   UNL     1      -3.323  12.339  19.918  0.00  0.00    +0.000 A 
ATOM     29  N   UNL     1      -5.688  12.618  20.321  0.00  0.00    +0.000 N 
ATOM     30  C   UNL     1      -6.991  12.601  19.905  0.00  0.00    +0.000 C 
ATOM     31  O   UNL     1      -7.916  12.817  20.687  0.00  0.00    +0.000 OA
ATOM     32  C   UNL     1      -7.192  12.389  18.408  0.00  0.00    +0.000 C 
ATOM     33  O   UNL     1      -6.193  11.701  17.666  0.00  0.00    +0.000 OA
ATOM     34  H   UNL     1      -5.520  12.845  21.291  0.00  0.00    +0.000 HD
ENDBRANCH  20  23
ENDBRANCH   5  20
TORSDOF 6
ENDMDL
MODEL 2
REMARK VINA RESULT:      -8.6      3.680     10.590
REMARK  Name = 
REMARK  8 active torsions:
REMARK  status: ('A' for Active; 'I' for Inactive)
REMARK    1  A    between atoms: C_1  and  C_2
REMARK    2  A    between atoms: C_2  and  N_3
REMARK    3  A    between atoms: N_3  and  C_26
REMARK    4  A    between atoms: C_4  and  C_6
REMARK    5  A    between atoms: N_10  and  S_11
REMARK    6  A    between atoms: S_11  and  C_14
REMARK    7  A    between atoms: C_29  and  O_30
REMARK    8  A    between atoms: O_30  and  C_31
REMARK                            x       y       z     vdW  Elec       q    Type
REMARK                         _______ _______ _______ _____ _____    ______ ____
ROOT
ATOM      1  C   UNL     1       2.470   6.589  19.573  0.00  0.00    +0.000 C 
ATOM      2  C   UNL     1       1.664   6.054  20.764  0.00  0.00    +0.000 C 
ATOM      3  C   UNL     1       2.291   4.763  21.276  0.00  0.00    +0.000 C 
ATOM      4  C   UNL     1       2.397   3.713  20.173  0.00  0.00    +0.000 C 
ATOM      5  N   UNL     1       3.098   4.255  18.963  0.00  0.00    +0.000 NA
ATOM      6  C   UNL     1       2.457   5.526  18.468  0.00  0.00    +0.000 C 
ENDROOT
BRANCH   1   8
ATOM      7  N   UNL     1       1.312   8.797  19.974  0.00  0.00    +0.000 N 
ATOM      8  C   UNL     1       1.870   7.895  19.057  0.00  0.00    +0.000 C 
ATOM      9  O   UNL     1       1.962   8.144  17.848  0.00  0.00    +0.000 OA
BRANCH   7  10
ATOM     10  C   UNL     1       0.832  10.052  19.469  0.00  0.00    +0.000 A 
ATOM     11  C   UNL     1       1.568  11.229  19.660  0.00  0.00    +0.000 A 
ATOM     12  C   UNL     1       1.071  12.457  19.212  0.00  0.00    +0.000 A 
ATOM     13  C   UNL     1      -0.166  12.531  18.575  0.00  0.00    +0.000 A 
ATOM     14  C   UNL     1      -0.910  11.366  18.391  0.00  0.00    +0.000 A 
ATOM     15  C   UNL     1      -0.404  10.133  18.819  0.00  0.00    +0.000 A 
BRANCH  13  16
ATOM     16  O   UNL     1      -0.570  13.791  18.227  0.00  0.00    +0.000 OA
ATOM     17  C   UNL     1       0.136  14.861  18.842  0.00  0.00    +0.000 C 
ENDBRANCH  13  16
ENDBRANCH   7  10
BRANCH   7  19
ATOM     18  C   UNL     1      -0.123   8.898  22.036  0.00  0.00    +0.000 C 
ATOM     19  C   UNL     1       1.257   8.614  21.441  0.00  0.00    +0.000 C 
ENDBRANCH   7  19
ENDBRANCH   1   8
BRANCH   5  20
ATOM     20  S   UNL     1       3.331   3.084  17.720  0.00  0.00    +0.000 S 
ATOM     21  O   UNL     1       3.740   1.838  18.341  0.00  0.00    +0.000 OA
ATOM     22  O   UNL     1       2.192   3.133  16.828  0.00  0.00    +0.000 OA
BRANCH  20  23
ATOM     23  C   UNL     1       4.725   3.715  16.807  0.00  0.00    +0.000 A 
ATOM     24  C   UNL     1       5.592   4.622  17.442  0.00  0.00    +0.000 A 
ATOM     25  C   UNL     1       6.630   5.219  16.720  0.00  0.00    +0.000 A 
ATOM     26  C   UNL     1       6.795   4.921  15.369  0.00  0.00    +0.000 A 
ATOM     27  C   UNL     1       5.929   4.017  14.742  0.00  0.00    +0.000 A 
ATOM     28  C   UNL     1       4.880   3.427  15.453  0.00  0.00    +0.000 A 
ATOM     29  N   UNL     1       6.139   3.671  13.406  0.00  0.00    +0.000 N 
ATOM     30  C   UNL     1       7.130   4.251  12.663  0.00  0.00    +0.000 C 
ATOM     31  O   UNL     1       7.373   3.878  11.516  0.00  0.00    +0.000 OA
ATOM     32  C   UNL     1       7.832   5.432  13.326  0.00  0.00    +0.000 C 
ATOM     33  O   UNL     1       7.857   5.515  14.746  0.00  0.00    +0.000 OA
ATOM     34  H   UNL     1       5.597   2.944  12.959  0.00  0.00    +0.000 HD
ENDBRANCH  20  23
ENDBRANCH   5  20
TORSDOF 6
ENDMDL
MODEL 3
REMARK VINA RESULT:      -8.5      2.959      5.074
REMARK  Name = 
REMARK  8 active torsions:
REMARK  status: ('A' for Active; 'I' for Inactive)
REMARK    1  A    between atoms: C_1  and  C_2
REMARK    2  A    between atoms: C_2  and  N_3
REMARK    3  A    between atoms: N_3  and  C_26
REMARK    4  A    between atoms: C_4  and  C_6
REMARK    5  A    between atoms: N_10  and  S_11
REMARK    6  A    between atoms: S_11  and  C_14
REMARK    7  A    between atoms: C_29  and  O_30
REMARK    8  A    between atoms: O_30  and  C_31
REMARK                            x       y       z     vdW  Elec       q    Type
REMARK                         _______ _______ _______ _____ _____    ______ ____
ROOT
ATOM      1  C   UNL     1       1.091   8.294  20.052  0.00  0.00    +0.000 C 
ATOM      2  C   UNL     1       1.522   8.696  21.468  0.00  0.00    +0.000 C 
ATOM      3  C   UNL     1       0.356   9.352  22.198  0.00  0.00    +0.000 C 
ATOM      4  C   UNL     1      -0.183  10.556  21.429  0.00  0.00    +0.000 C 
ATOM      5  N   UNL     1      -0.517  10.198  20.012  0.00  0.00    +0.000 NA
ATOM      6  C   UNL     1       0.652   9.560  19.306  0.00  0.00    +0.000 C 
ENDROOT
BRANCH   1   8
ATOM      7  N   UNL     1       2.601   6.308  19.662  0.00  0.00    +0.000 N 
ATOM      8  C   UNL     1       2.241   7.616  19.309  0.00  0.00    +0.000 C 
ATOM      9  O   UNL     1       2.768   8.223  18.368  0.00  0.00    +0.000 OA
BRANCH   7  10
ATOM     10  C   UNL     1       3.628   5.667  18.890  0.00  0.00    +0.000 A 
ATOM     11  C   UNL     1       4.930   5.545  19.391  0.00  0.00    +0.000 A 
ATOM     12  C   UNL     1       5.939   4.967  18.613  0.00  0.00    +0.000 A 
ATOM     13  C   UNL     1       5.667   4.510  17.325  0.00  0.00    +0.000 A 
ATOM     14  C   UNL     1       4.376   4.639  16.814  0.00  0.00    +0.000 A 
ATOM     15  C   UNL     1       3.359   5.197  17.599  0.00  0.00    +0.000 A 
BRANCH  13  16
ATOM     16  O   UNL     1       6.741   4.011  16.642  0.00  0.00    +0.000 OA
ATOM     17  C   UNL     1       6.925   4.511  15.324  0.00  0.00    +0.000 C 
ENDBRANCH  13  16
ENDBRANCH   7  10
BRANCH   7  19
ATOM     18  C   UNL     1       1.160   4.304  20.140  0.00  0.00    +0.000 C 
ATOM     19  C   UNL     1       1.952   5.484  20.705  0.00  0.00    +0.000 C 
ENDBRANCH   7  19
ENDBRANCH   1   8
BRANCH   5  20
ATOM     20  S   UNL     1      -1.220  11.497  19.122  0.00  0.00    +0.000 S 
ATOM     21  O   UNL     1      -1.260  11.117  17.722  0.00  0.00    +0.000 OA
ATOM     22  O   UNL     1      -2.416  11.928  19.811  0.00  0.00    +0.000 OA
BRANCH  20  23
ATOM     23  C   UNL     1      -0.028  12.811  19.291  0.00  0.00    +0.000 A 
ATOM     24  C   UNL     1      -0.384  13.952  20.031  0.00  0.00    +0.000 A 
ATOM     25  C   UNL     1       0.485  15.046  20.090  0.00  0.00    +0.000 A 
ATOM     26  C   UNL     1       1.697  15.006  19.405  0.00  0.00    +0.000 A 
ATOM     27  C   UNL     1       2.047  13.867  18.669  0.00  0.00    +0.000 A 
ATOM     28  C   UNL     1       1.177  12.775  18.593  0.00  0.00    +0.000 A 
ATOM     29  N   UNL     1       3.291  13.804  18.040  0.00  0.00    +0.000 N 
ATOM     30  C   UNL     1       4.157  14.863  18.059  0.00  0.00    +0.000 C 
ATOM     31  O   UNL     1       5.289  14.774  17.584  0.00  0.00    +0.000 OA
ATOM     32  C   UNL     1       3.584  16.161  18.620  0.00  0.00    +0.000 C 
ATOM     33  O   UNL     1       2.507  16.098  19.547  0.00  0.00    +0.000 OA
ATOM     34  H   UNL     1       3.613  12.958  17.593  0.00  0.00    +0.000 HD
ENDBRANCH  20  23
ENDBRANCH   5  20
TORSDOF 6
ENDMDL
MODEL 4
REMARK VINA RESULT:      -8.4      1.213      1.735
REMARK  Name = 
REMARK  8 active torsions:
REMARK  status: ('A' for Active; 'I' for Inactive)
REMARK    1  A    between atoms: C_1  and  C_2
REMARK    2  A    between atoms: C_2  and  N_3
REMARK    3  A    between atoms: N_3  and  C_26
REMARK    4  A    between atoms: C_4  and  C_6
REMARK    5  A    between atoms: N_10  and  S_11
REMARK    6  A    between atoms: S_11  and  C_14
REMARK    7  A    between atoms: C_29  and  O_30
REMARK    8  A    between atoms: O_30  and  C_31
REMARK                            x       y       z     vdW  Elec       q    Type
REMARK                         _______ _______ _______ _____ _____    ______ ____
ROOT
ATOM      1  C   UNL     1       1.005   8.476  20.251  0.00  0.00    +0.000 C 
ATOM      2  C   UNL     1       1.398   8.575  21.731  0.00  0.00    +0.000 C 
ATOM      3  C   UNL     1       0.284   9.254  22.518  0.00  0.00    +0.000 C 
ATOM      4  C   UNL     1      -0.048  10.631  21.949  0.00  0.00    +0.000 C 
ATOM      5  N   UNL     1      -0.339  10.563  20.480  0.00  0.00    +0.000 NA
ATOM      6  C   UNL     1       0.779   9.897  19.719  0.00  0.00    +0.000 C 
ENDROOT
BRANCH   1   8
ATOM      7  N   UNL     1       2.439   6.456  19.762  0.00  0.00    +0.000 N 
ATOM      8  C   UNL     1       2.101   7.779  19.446  0.00  0.00    +0.000 C 
ATOM      9  O   UNL     1       2.603   8.388  18.494  0.00  0.00    +0.000 OA
BRANCH   7  10
ATOM     10  C   UNL     1       3.411   5.800  18.934  0.00  0.00    +0.000 A 
ATOM     11  C   UNL     1       3.067   5.328  17.662  0.00  0.00    +0.000 A 
ATOM     12  C   UNL     1       4.003   4.643  16.881  0.00  0.00    +0.000 A 
ATOM     13  C   UNL     1       5.292   4.413  17.358  0.00  0.00    +0.000 A 
ATOM     14  C   UNL     1       5.640   4.870  18.629  0.00  0.00    +0.000 A 
ATOM     15  C   UNL     1       4.711   5.575  19.403  0.00  0.00    +0.000 A 
BRANCH  13  16
ATOM     16  O   UNL     1       6.103   3.690  16.528  0.00  0.00    +0.000 OA
ATOM     17  C   UNL     1       6.013   4.005  15.143  0.00  0.00    +0.000 C 
ENDBRANCH  13  16
ENDBRANCH   7  10
BRANCH   7  19
ATOM     18  C   UNL     1       1.081   4.404  20.276  0.00  0.00    +0.000 C 
ATOM     19  C   UNL     1       1.813   5.632  20.818  0.00  0.00    +0.000 C 
ENDBRANCH   7  19
ENDBRANCH   1   8
BRANCH   5  20
ATOM     20  S   UNL     1      -0.812  12.076  19.801  0.00  0.00    +0.000 S 
ATOM     21  O   UNL     1      -0.193  13.134  20.577  0.00  0.00    +0.000 OA
ATOM     22  O   UNL     1      -0.641  12.006  18.367  0.00  0.00    +0.000 OA
BRANCH  20  23
ATOM     23  C   UNL     1      -2.567  12.139  20.106  0.00  0.00    +0.000 A 
ATOM     24  C   UNL     1      -3.445  12.011  19.016  0.00  0.00    +0.000 A 
ATOM     25  C   UNL     1      -4.822  12.166  19.204  0.00  0.00    +0.000 A 
ATOM     26  C   UNL     1      -5.318  12.459  20.473  0.00  0.00    +0.000 A 
ATOM     27  C   UNL     1      -4.439  12.586  21.556  0.00  0.00    +0.000 A 
ATOM     28  C   UNL     1      -3.060  12.446  21.372  0.00  0.00    +0.000 A 
ATOM     29  N   UNL     1      -4.946  12.813  22.836  0.00  0.00    +0.000 N 
ATOM     30  C   UNL     1      -6.285  12.991  23.055  0.00  0.00    +0.000 C 
ATOM     31  O   UNL     1      -6.739  13.098  24.193  0.00  0.00    +0.000 OA
ATOM     32  C   UNL     1      -7.135  13.136  21.796  0.00  0.00    +0.000 C 
ATOM     33  O   UNL     1      -6.677  12.556  20.581  0.00  0.00    +0.000 OA
ATOM     34  H   UNL     1      -4.347  12.803  23.649  0.00  0.00    +0.000 HD
ENDBRANCH  20  23
ENDBRANCH   5  20
TORSDOF 6
ENDMDL
MODEL 5
REMARK VINA RESULT:      -8.2      3.490     10.740
REMARK  Name = 
REMARK  8 active torsions:
REMARK  status: ('A' for Active; 'I' for Inactive)
REMARK    1  A    between atoms: C_1  and  C_2
REMARK    2  A    between atoms: C_2  and  N_3
REMARK    3  A    between atoms: N_3  and  C_26
REMARK    4  A    between atoms: C_4  and  C_6
REMARK    5  A    between atoms: N_10  and  S_11
REMARK    6  A    between atoms: S_11  and  C_14
REMARK    7  A    between atoms: C_29  and  O_30
REMARK    8  A    between atoms: O_30  and  C_31
REMARK                            x       y       z     vdW  Elec       q    Type
REMARK                         _______ _______ _______ _____ _____    ______ ____
ROOT
ATOM      1  C   UNL     1       0.890   9.350  19.532  0.00  0.00    +0.000 C 
ATOM      2  C   UNL     1       1.888   9.952  18.533  0.00  0.00    +0.000 C 
ATOM      3  C   UNL     1       2.204   8.936  17.443  0.00  0.00    +0.000 C 
ATOM      4  C   UNL     1       2.738   7.631  18.026  0.00  0.00    +0.000 C 
ATOM      5  N   UNL     1       1.819   7.081  19.076  0.00  0.00    +0.000 NA
ATOM      6  C   UNL     1       1.527   8.098  20.150  0.00  0.00    +0.000 C 
ENDROOT
BRANCH   1   8
ATOM      7  N   UNL     1      -0.516  11.253  20.414  0.00  0.00    +0.000 N 
ATOM      8  C   UNL     1       0.543  10.360  20.625  0.00  0.00    +0.000 C 
ATOM      9  O   UNL     1       1.168  10.304  21.692  0.00  0.00    +0.000 OA
BRANCH   7  10
ATOM     10  C   UNL     1      -0.872  12.132  21.491  0.00  0.00    +0.000 A 
ATOM     11  C   UNL     1      -0.206  13.351  21.671  0.00  0.00    +0.000 A 
ATOM     12  C   UNL     1      -0.522  14.179  22.754  0.00  0.00    +0.000 A 
ATOM     13  C   UNL     1      -1.498  13.802  23.674  0.00  0.00    +0.000 A 
ATOM     14  C   UNL     1      -2.157  12.584  23.509  0.00  0.00    +0.000 A 
ATOM     15  C   UNL     1      -1.858  11.764  22.414  0.00  0.00    +0.000 A 
BRANCH  13  16
ATOM     16  O   UNL     1      -1.684  14.667  24.717  0.00  0.00    +0.000 OA
ATOM     17  C   UNL     1      -2.944  15.324  24.761  0.00  0.00    +0.000 C 
ENDBRANCH  13  16
ENDBRANCH   7  10
BRANCH   7  19
ATOM     18  C   UNL     1      -0.991  12.439  18.249  0.00  0.00    +0.000 C 
ATOM     19  C   UNL     1      -1.371  11.311  19.208  0.00  0.00    +0.000 C 
ENDBRANCH   7  19
ENDBRANCH   1   8
BRANCH   5  20
ATOM     20  S   UNL     1       2.325   5.558  19.705  0.00  0.00    +0.000 S 
ATOM     21  O   UNL     1       2.673   5.737  21.102  0.00  0.00    +0.000 OA
ATOM     22  O   UNL     1       1.364   4.556  19.300  0.00  0.00    +0.000 OA
BRANCH  20  23
ATOM     23  C   UNL     1       3.829   5.217  18.813  0.00  0.00    +0.000 A 
ATOM     24  C   UNL     1       5.060   5.450  19.452  0.00  0.00    +0.000 A 
ATOM     25  C   UNL     1       6.255   5.297  18.744  0.00  0.00    +0.000 A 
ATOM     26  C   UNL     1       6.223   4.924  17.402  0.00  0.00    +0.000 A 
ATOM     27  C   UNL     1       4.995   4.693  16.770  0.00  0.00    +0.000 A 
ATOM     28  C   UNL     1       3.794   4.858  17.467  0.00  0.00    +0.000 A 
ATOM     29  N   UNL     1       4.970   4.255  15.445  0.00  0.00    +0.000 N 
ATOM     30  C   UNL     1       6.119   4.115  14.715  0.00  0.00    +0.000 C 
ATOM     31  O   UNL     1       6.103   3.641  13.580  0.00  0.00    +0.000 OA
ATOM     32  C   UNL     1       7.378   4.668  15.375  0.00  0.00    +0.000 C 
ATOM     33  O   UNL     1       7.435   4.757  16.793  0.00  0.00    +0.000 OA
ATOM     34  H   UNL     1       4.107   3.979  14.998  0.00  0.00    +0.000 HD
ENDBRANCH  20  23
ENDBRANCH   5  20
TORSDOF 6
ENDMDL
MODEL 6
REMARK VINA RESULT:      -8.1      1.749      2.418
REMARK  Name = 
REMARK  8 active torsions:
REMARK  status: ('A' for Active; 'I' for Inactive)
REMARK    1  A    between atoms: C_1  and  C_2
REMARK    2  A    between atoms: C_2  and  N_3
REMARK    3  A    between atoms: N_3  and  C_26
REMARK    4  A    between atoms: C_4  and  C_6
REMARK    5  A    between atoms: N_10  and  S_11
REMARK    6  A    between atoms: S_11  and  C_14
REMARK    7  A    between atoms: C_29  and  O_30
REMARK    8  A    between atoms: O_30  and  C_31
REMARK                            x       y       z     vdW  Elec       q    Type
REMARK                         _______ _______ _______ _____ _____    ______ ____
ROOT
ATOM      1  C   UNL     1       1.033   8.440  20.194  0.00  0.00    +0.000 C 
ATOM      2  C   UNL     1       1.412   8.581  21.675  0.00  0.00    +0.000 C 
ATOM      3  C   UNL     1       0.298   9.298  22.427  0.00  0.00    +0.000 C 
ATOM      4  C   UNL     1      -0.012  10.660  21.811  0.00  0.00    +0.000 C 
ATOM      5  N   UNL     1      -0.289  10.548  20.342  0.00  0.00    +0.000 NA
ATOM      6  C   UNL     1       0.829   9.845  19.615  0.00  0.00    +0.000 C 
ENDROOT
BRANCH   1   8
ATOM      7  N   UNL     1       2.424   6.377  19.763  0.00  0.00    +0.000 N 
ATOM      8  C   UNL     1       2.129   7.705  19.424  0.00  0.00    +0.000 C 
ATOM      9  O   UNL     1       2.669   8.289  18.477  0.00  0.00    +0.000 OA
BRANCH   7  10
ATOM     10  C   UNL     1       3.398   5.686  18.966  0.00  0.00    +0.000 A 
ATOM     11  C   UNL     1       4.717   5.542  19.413  0.00  0.00    +0.000 A 
ATOM     12  C   UNL     1       5.675   4.915  18.610  0.00  0.00    +0.000 A 
ATOM     13  C   UNL     1       5.335   4.430  17.349  0.00  0.00    +0.000 A 
ATOM     14  C   UNL     1       4.026   4.580  16.891  0.00  0.00    +0.000 A 
ATOM     15  C   UNL     1       3.061   5.188  17.702  0.00  0.00    +0.000 A 
BRANCH  13  16
ATOM     16  O   UNL     1       6.365   3.882  16.635  0.00  0.00    +0.000 OA
ATOM     17  C   UNL     1       6.227   3.917  15.220  0.00  0.00    +0.000 C 
ENDBRANCH  13  16
ENDBRANCH   7  10
BRANCH   7  19
ATOM     18  C   UNL     1       1.044   4.339  20.274  0.00  0.00    +0.000 C 
ATOM     19  C   UNL     1       1.751   5.582  20.813  0.00  0.00    +0.000 C 
ENDBRANCH   7  19
ENDBRANCH   1   8
BRANCH   5  20
ATOM     20  S   UNL     1      -0.738  12.043  19.610  0.00  0.00    +0.000 S 
ATOM     21  O   UNL     1       0.422  12.914  19.611  0.00  0.00    +0.000 OA
ATOM     22  O   UNL     1      -1.453  11.755  18.386  0.00  0.00    +0.000 OA
BRANCH  20  23
ATOM     23  C   UNL     1      -1.926  12.726  20.750  0.00  0.00    +0.000 A 
ATOM     24  C   UNL     1      -1.477  13.624  21.734  0.00  0.00    +0.000 A 
ATOM     25  C   UNL     1      -2.362  14.091  22.710  0.00  0.00    +0.000 A 
ATOM     26  C   UNL     1      -3.686  13.656  22.710  0.00  0.00    +0.000 A 
ATOM     27  C   UNL     1      -4.128  12.762  21.727  0.00  0.00    +0.000 A 
ATOM     28  C   UNL     1      -3.245  12.279  20.757  0.00  0.00    +0.000 A 
ATOM     29  N   UNL     1      -5.470  12.382  21.692  0.00  0.00    +0.000 N 
ATOM     30  C   UNL     1      -6.360  12.802  22.642  0.00  0.00    +0.000 C 
ATOM     31  O   UNL     1      -7.559  12.542  22.557  0.00  0.00    +0.000 OA
ATOM     32  C   UNL     1      -5.741  13.523  23.836  0.00  0.00    +0.000 C 
ATOM     33  O   UNL     1      -4.496  14.191  23.672  0.00  0.00    +0.000 OA
ATOM     34  H   UNL     1      -5.839  11.824  20.935  0.00  0.00    +0.000 HD
ENDBRANCH  20  23
ENDBRANCH   5  20
TORSDOF 6
ENDMDL
MODEL 7
REMARK VINA RESULT:      -8.1      3.122      5.288
REMARK  Name = 
REMARK  8 active torsions:
REMARK  status: ('A' for Active; 'I' for Inactive)
REMARK    1  A    between atoms: C_1  and  C_2
REMARK    2  A    between atoms: C_2  and  N_3
REMARK    3  A    between atoms: N_3  and  C_26
REMARK    4  A    between atoms: C_4  and  C_6
REMARK    5  A    between atoms: N_10  and  S_11
REMARK    6  A    between atoms: S_11  and  C_14
REMARK    7  A    between atoms: C_29  and  O_30
REMARK    8  A    between atoms: O_30  and  C_31
REMARK                            x       y       z     vdW  Elec       q    Type
REMARK                         _______ _______ _______ _____ _____    ______ ____
ROOT
ATOM      1  C   UNL     1       1.007   8.398  20.276  0.00  0.00    +0.000 C 
ATOM      2  C   UNL     1       1.587   8.709  21.662  0.00  0.00    +0.000 C 
ATOM      3  C   UNL     1       0.541   9.419  22.513  0.00  0.00    +0.000 C 
ATOM      4  C   UNL     1       0.033  10.689  21.837  0.00  0.00    +0.000 C 
ATOM      5  N   UNL     1      -0.448  10.416  20.443  0.00  0.00    +0.000 NA
ATOM      6  C   UNL     1       0.604   9.723  19.615  0.00  0.00    +0.000 C 
ENDROOT
BRANCH   1   8
ATOM      7  N   UNL     1       2.218   6.290  19.592  0.00  0.00    +0.000 N 
ATOM      8  C   UNL     1       2.034   7.668  19.411  0.00  0.00    +0.000 C 
ATOM      9  O   UNL     1       2.617   8.310  18.529  0.00  0.00    +0.000 OA
BRANCH   7  10
ATOM     10  C   UNL     1       3.127   5.617  18.708  0.00  0.00    +0.000 A 
ATOM     11  C   UNL     1       2.656   4.708  17.753  0.00  0.00    +0.000 A 
ATOM     12  C   UNL     1       3.550   4.015  16.930  0.00  0.00    +0.000 A 
ATOM     13  C   UNL     1       4.924   4.213  17.052  0.00  0.00    +0.000 A 
ATOM     14  C   UNL     1       5.402   5.107  18.009  0.00  0.00    +0.000 A 
ATOM     15  C   UNL     1       4.507   5.818  18.819  0.00  0.00    +0.000 A 
BRANCH  13  16
ATOM     16  O   UNL     1       5.701   3.444  16.230  0.00  0.00    +0.000 OA
ATOM     17  C   UNL     1       6.685   4.141  15.476  0.00  0.00    +0.000 C 
ENDBRANCH  13  16
ENDBRANCH   7  10
BRANCH   7  19
ATOM     18  C   UNL     1       2.374   4.407  21.250  0.00  0.00    +0.000 C 
ATOM     19  C   UNL     1       1.485   5.439  20.555  0.00  0.00    +0.000 C 
ENDBRANCH   7  19
ENDBRANCH   1   8
BRANCH   5  20
ATOM     20  S   UNL     1      -1.121  11.798  19.664  0.00  0.00    +0.000 S 
ATOM     21  O   UNL     1      -1.317  11.477  18.262  0.00  0.00    +0.000 OA
ATOM     22  O   UNL     1      -2.213  12.292  20.474  0.00  0.00    +0.000 OA
BRANCH  20  23
ATOM     23  C   UNL     1       0.181  13.010  19.763  0.00  0.00    +0.000 A 
ATOM     24  C   UNL     1       0.001  14.126  20.599  0.00  0.00    +0.000 A 
ATOM     25  C   UNL     1       0.954  15.148  20.616  0.00  0.00    +0.000 A 
ATOM     26  C   UNL     1       2.076  15.063  19.793  0.00  0.00    +0.000 A 
ATOM     27  C   UNL     1       2.251  13.949  18.962  0.00  0.00    +0.000 A 
ATOM     28  C   UNL     1       1.295  12.930  18.930  0.00  0.00    +0.000 A 
ATOM     29  N   UNL     1       3.408  13.836  18.191  0.00  0.00    +0.000 N 
ATOM     30  C   UNL     1       4.352  14.826  18.165  0.00  0.00    +0.000 C 
ATOM     31  O   UNL     1       5.413  14.685  17.559  0.00  0.00    +0.000 OA
ATOM     32  C   UNL     1       3.949  16.125  18.858  0.00  0.00    +0.000 C 
ATOM     33  O   UNL     1       2.980  16.083  19.898  0.00  0.00    +0.000 OA
ATOM     34  H   UNL     1       3.611  12.998  17.665  0.00  0.00    +0.000 HD
ENDBRANCH  20  23
ENDBRANCH   5  20
TORSDOF 6
ENDMDL
MODEL 8
REMARK VINA RESULT:      -8.1      1.791      2.811
REMARK  Name = 
REMARK  8 active torsions:
REMARK  status: ('A' for Active; 'I' for Inactive)
REMARK    1  A    between atoms: C_1  and  C_2
REMARK    2  A    between atoms: C_2  and  N_3
REMARK    3  A    between atoms: N_3  and  C_26
REMARK    4  A    between atoms: C_4  and  C_6
REMARK    5  A    between atoms: N_10  and  S_11
REMARK    6  A    between atoms: S_11  and  C_14
REMARK    7  A    between atoms: C_29  and  O_30
REMARK    8  A    between atoms: O_30  and  C_31
REMARK                            x       y       z     vdW  Elec       q    Type
REMARK                         _______ _______ _______ _____ _____    ______ ____
ROOT
ATOM      1  C   UNL     1       1.031   8.443  20.486  0.00  0.00    +0.000 C 
ATOM      2  C   UNL     1       1.492   8.405  21.950  0.00  0.00    +0.000 C 
ATOM      3  C   UNL     1       0.476   9.120  22.831  0.00  0.00    +0.000 C 
ATOM      4  C   UNL     1       0.243  10.556  22.370  0.00  0.00    +0.000 C 
ATOM      5  N   UNL     1      -0.114  10.615  20.915  0.00  0.00    +0.000 NA
ATOM      6  C   UNL     1       0.908   9.911  20.060  0.00  0.00    +0.000 C 
ENDROOT
BRANCH   1   8
ATOM      7  N   UNL     1       2.203   6.332  19.748  0.00  0.00    +0.000 N 
ATOM      8  C   UNL     1       2.027   7.713  19.587  0.00  0.00    +0.000 C 
ATOM      9  O   UNL     1       2.592   8.359  18.696  0.00  0.00    +0.000 OA
BRANCH   7  10
ATOM     10  C   UNL     1       3.082   5.660  18.832  0.00  0.00    +0.000 A 
ATOM     11  C   UNL     1       2.568   4.865  17.800  0.00  0.00    +0.000 A 
ATOM     12  C   UNL     1       3.428   4.170  16.944  0.00  0.00    +0.000 A 
ATOM     13  C   UNL     1       4.809   4.252  17.107  0.00  0.00    +0.000 A 
ATOM     14  C   UNL     1       5.329   5.031  18.140  0.00  0.00    +0.000 A 
ATOM     15  C   UNL     1       4.470   5.745  18.985  0.00  0.00    +0.000 A 
BRANCH  13  16
ATOM     16  O   UNL     1       5.547   3.491  16.243  0.00  0.00    +0.000 OA
ATOM     17  C   UNL     1       5.894   4.110  15.011  0.00  0.00    +0.000 C 
ENDBRANCH  13  16
ENDBRANCH   7  10
BRANCH   7  19
ATOM     18  C   UNL     1       2.348   4.337  21.271  0.00  0.00    +0.000 C 
ATOM     19  C   UNL     1       1.490   5.477  20.722  0.00  0.00    +0.000 C 
ENDBRANCH   7  19
ENDBRANCH   1   8
BRANCH   5  20
ATOM     20  S   UNL     1      -0.481  12.206  20.360  0.00  0.00    +0.000 S 
ATOM     21  O   UNL     1      -1.106  12.933  21.449  0.00  0.00    +0.000 OA
ATOM     22  O   UNL     1       0.684  12.734  19.684  0.00  0.00    +0.000 OA
BRANCH  20  23
ATOM     23  C   UNL     1      -1.721  11.936  19.108  0.00  0.00    +0.000 A 
ATOM     24  C   UNL     1      -3.069  12.163  19.435  0.00  0.00    +0.000 A 
ATOM     25  C   UNL     1      -4.074  11.856  18.513  0.00  0.00    +0.000 A 
ATOM     26  C   UNL     1      -3.735  11.315  17.274  0.00  0.00    +0.000 A 
ATOM     27  C   UNL     1      -2.390  11.091  16.953  0.00  0.00    +0.000 A 
ATOM     28  C   UNL     1      -1.381  11.382  17.876  0.00  0.00    +0.000 A 
ATOM     29  N   UNL     1      -2.051  10.612  15.687  0.00  0.00    +0.000 N 
ATOM     30  C   UNL     1      -3.008  10.281  14.767  0.00  0.00    +0.000 C 
ATOM     31  O   UNL     1      -2.707   9.948  13.621  0.00  0.00    +0.000 OA
ATOM     32  C   UNL     1      -4.440  10.270  15.294  0.00  0.00    +0.000 C 
ATOM     33  O   UNL     1      -4.771  11.081  16.414  0.00  0.00    +0.000 OA
ATOM     34  H   UNL     1      -1.088  10.542  15.391  0.00  0.00    +0.000 HD
ENDBRANCH  20  23
ENDBRANCH   5  20
TORSDOF 6
ENDMDL
MODEL 9
REMARK VINA RESULT:      -8.1      3.263      5.216
REMARK  Name = 
REMARK  8 active torsions:
REMARK  status: ('A' for Active; 'I' for Inactive)
REMARK    1  A    between atoms: C_1  and  C_2
REMARK    2  A    between atoms: C_2  and  N_3
REMARK    3  A    between atoms: N_3  and  C_26
REMARK    4  A    between atoms: C_4  and  C_6
REMARK    5  A    between atoms: N_10  and  S_11
REMARK    6  A    between atoms: S_11  and  C_14
REMARK    7  A    between atoms: C_29  and  O_30
REMARK    8  A    between atoms: O_30  and  C_31
REMARK                            x       y       z     vdW  Elec       q    Type
REMARK                         _______ _______ _______ _____ _____    ______ ____
ROOT
ATOM      1  C   UNL     1       1.054   8.266  20.230  0.00  0.00    +0.000 C 
ATOM      2  C   UNL     1       1.468   8.441  21.697  0.00  0.00    +0.000 C 
ATOM      3  C   UNL     1       0.349   9.128  22.472  0.00  0.00    +0.000 C 
ATOM      4  C   UNL     1      -0.026  10.469  21.847  0.00  0.00    +0.000 C 
ATOM      5  N   UNL     1      -0.338  10.328  20.388  0.00  0.00    +0.000 NA
ATOM      6  C   UNL     1       0.784   9.656  19.639  0.00  0.00    +0.000 C 
ENDROOT
BRANCH   1   8
ATOM      7  N   UNL     1       2.466   6.229  19.747  0.00  0.00    +0.000 N 
ATOM      8  C   UNL     1       2.154   7.560  19.439  0.00  0.00    +0.000 C 
ATOM      9  O   UNL     1       2.684   8.171  18.502  0.00  0.00    +0.000 OA
BRANCH   7  10
ATOM     10  C   UNL     1       3.444   5.567  18.931  0.00  0.00    +0.000 A 
ATOM     11  C   UNL     1       4.778   5.474  19.345  0.00  0.00    +0.000 A 
ATOM     12  C   UNL     1       5.737   4.875  18.522  0.00  0.00    +0.000 A 
ATOM     13  C   UNL     1       5.383   4.366  17.274  0.00  0.00    +0.000 A 
ATOM     14  C   UNL     1       4.058   4.464  16.849  0.00  0.00    +0.000 A 
ATOM     15  C   UNL     1       3.092   5.044  17.681  0.00  0.00    +0.000 A 
BRANCH  13  16
ATOM     16  O   UNL     1       6.413   3.849  16.539  0.00  0.00    +0.000 OA
ATOM     17  C   UNL     1       6.964   4.712  15.551  0.00  0.00    +0.000 C 
ENDBRANCH  13  16
ENDBRANCH   7  10
BRANCH   7  19
ATOM     18  C   UNL     1       1.038   4.213  20.211  0.00  0.00    +0.000 C 
ATOM     19  C   UNL     1       1.807   5.404  20.783  0.00  0.00    +0.000 C 
ENDBRANCH   7  19
ENDBRANCH   1   8
BRANCH   5  20
ATOM     20  S   UNL     1      -0.860  11.796  19.650  0.00  0.00    +0.000 S 
ATOM     21  O   UNL     1      -1.245  11.504  18.282  0.00  0.00    +0.000 OA
ATOM     22  O   UNL     1      -1.771  12.463  20.555  0.00  0.00    +0.000 OA
BRANCH  20  23
ATOM     23  C   UNL     1       0.621  12.785  19.594  0.00  0.00    +0.000 A 
ATOM     24  C   UNL     1       1.334  12.864  18.384  0.00  0.00    +0.000 A 
ATOM     25  C   UNL     1       2.556  13.540  18.336  0.00  0.00    +0.000 A 
ATOM     26  C   UNL     1       3.071  14.126  19.491  0.00  0.00    +0.000 A 
ATOM     27  C   UNL     1       2.357  14.044  20.693  0.00  0.00    +0.000 A 
ATOM     28  C   UNL     1       1.141  13.357  20.753  0.00  0.00    +0.000 A 
ATOM     29  N   UNL     1       2.844  14.689  21.831  0.00  0.00    +0.000 N 
ATOM     30  C   UNL     1       4.046  15.342  21.827  0.00  0.00    +0.000 C 
ATOM     31  O   UNL     1       4.429  15.987  22.801  0.00  0.00    +0.000 OA
ATOM     32  C   UNL     1       4.893  15.131  20.575  0.00  0.00    +0.000 C 
ATOM     33  O   UNL     1       4.250  14.802  19.350  0.00  0.00    +0.000 OA
ATOM     34  H   UNL     1       2.300  14.737  22.682  0.00  0.00    +0.000 HD
ENDBRANCH  20  23
ENDBRANCH   5  20
TORSDOF 6
ENDMDL
