MODEL 1
REMARK VINA RESULT:      -6.5      0.000      0.000
REMARK  Name = 
REMARK  5 active torsions:
REMARK  status: ('A' for Active; 'I' for Inactive)
REMARK    1  A    between atoms: C_1  and  C_2
REMARK    2  A    between atoms: C_2  and  N_3
REMARK    3  A    between atoms: C_9  and  C_10
REMARK    4  A    between atoms: C_20  and  C_21
REMARK    5  A    between atoms: C_20  and  C_22
REMARK                            x       y       z     vdW  Elec       q    Type
REMARK                         _______ _______ _______ _____ _____    ______ ____
ROOT
ATOM      1  N   UNL     1       5.261   4.155  16.758  0.00  0.00    +0.000 N 
ATOM      2  C   UNL     1       3.985   4.147  17.317  0.00  0.00    +0.000 C 
ATOM      3  O   UNL     1       3.337   3.110  17.277  0.00  0.00    +0.000 OA
ATOM      4  C   UNL     1       3.598   5.434  18.122  0.00  0.00    +0.000 C 
ATOM      5  S   UNL     1       4.111   7.033  17.417  0.00  0.00    +0.000 S 
ATOM      6  S   UNL     1       6.076   6.770  17.100  0.00  0.00    +0.000 S 
ATOM      7  C   UNL     1       6.208   5.009  17.525  0.00  0.00    +0.000 C 
ATOM      8  C   UNL     1       7.677   4.710  17.261  0.00  0.00    +0.000 C 
ATOM      9  C   UNL     1       5.731   4.815  19.151  0.00  0.00    +0.000 C 
ATOM     10  O   UNL     1       6.498   4.480  20.050  0.00  0.00    +0.000 OA
ATOM     11  N   UNL     1       4.317   5.051  19.327  0.00  0.00    +0.000 N 
ATOM     12  C   UNL     1       3.359   4.336  20.117  0.00  0.00    +0.000 A 
ATOM     13  C   UNL     1       3.498   3.443  21.168  0.00  0.00    +0.000 A 
ATOM     14  C   UNL     1       2.350   2.728  21.595  0.00  0.00    +0.000 A 
ATOM     15  C   UNL     1       1.091   2.884  20.986  0.00  0.00    +0.000 A 
ATOM     16  C   UNL     1       0.938   3.787  19.946  0.00  0.00    +0.000 A 
ATOM     17  C   UNL     1       2.052   4.501  19.539  0.00  0.00    +0.000 A 
ATOM     18  C   UNL     1       2.073   5.465  18.385  0.00  0.00    +0.000 C 
ATOM     19  C   UNL     1       1.471   6.784  18.915  0.00  0.00    +0.000 C 
ATOM     20  C   UNL     1       1.315   5.103  17.092  0.00  0.00    +0.000 C 
ENDROOT
BRANCH   1  22
ATOM     21  C   UNL     1       6.089   3.954  14.282  0.00  0.00    +0.000 C 
ATOM     22  C   UNL     1       5.025   3.969  15.334  0.00  0.00    +0.000 C 
ENDBRANCH   1  22
TORSDOF 1
ENDMDL
MODEL 2
REMARK VINA RESULT:      -6.5      2.163      5.024
REMARK  Name = 
REMARK  5 active torsions:
REMARK  status: ('A' for Active; 'I' for Inactive)
REMARK    1  A    between atoms: C_1  and  C_2
REMARK    2  A    between atoms: C_2  and  N_3
REMARK    3  A    between atoms: C_9  and  C_10
REMARK    4  A    between atoms: C_20  and  C_21
REMARK    5  A    between atoms: C_20  and  C_22
REMARK                            x       y       z     vdW  Elec       q    Type
REMARK                         _______ _______ _______ _____ _____    ______ ____
ROOT
ATOM      1  N   UNL     1       2.542   4.761  20.080  0.00  0.00    +0.000 N 
ATOM      2  C   UNL     1       3.410   5.494  19.274  0.00  0.00    +0.000 C 
ATOM      3  O   UNL     1       3.823   6.569  19.686  0.00  0.00    +0.000 OA
ATOM      4  C   UNL     1       3.923   4.752  17.993  0.00  0.00    +0.000 C 
ATOM      5  S   UNL     1       2.711   3.740  17.085  0.00  0.00    +0.000 S 
ATOM      6  S   UNL     1       1.950   2.561  18.521  0.00  0.00    +0.000 S 
ATOM      7  C   UNL     1       2.770   3.295  19.967  0.00  0.00    +0.000 C 
ATOM      8  C   UNL     1       2.202   2.481  21.121  0.00  0.00    +0.000 C 
ATOM      9  C   UNL     1       4.456   3.142  19.759  0.00  0.00    +0.000 C 
ATOM     10  O   UNL     1       5.166   2.428  20.461  0.00  0.00    +0.000 OA
ATOM     11  N   UNL     1       4.943   3.984  18.691  0.00  0.00    +0.000 N 
ATOM     12  C   UNL     1       6.123   4.793  18.627  0.00  0.00    +0.000 A 
ATOM     13  C   UNL     1       7.292   4.797  19.372  0.00  0.00    +0.000 A 
ATOM     14  C   UNL     1       8.189   5.884  19.204  0.00  0.00    +0.000 A 
ATOM     15  C   UNL     1       7.928   6.952  18.326  0.00  0.00    +0.000 A 
ATOM     16  C   UNL     1       6.770   6.948  17.564  0.00  0.00    +0.000 A 
ATOM     17  C   UNL     1       5.902   5.880  17.711  0.00  0.00    +0.000 A 
ATOM     18  C   UNL     1       4.576   5.757  17.013  0.00  0.00    +0.000 C 
ATOM     19  C   UNL     1       4.884   5.259  15.585  0.00  0.00    +0.000 C 
ATOM     20  C   UNL     1       3.680   7.006  16.879  0.00  0.00    +0.000 C 
ENDROOT
BRANCH   1  22
ATOM     21  C   UNL     1       1.154   6.779  21.004  0.00  0.00    +0.000 C 
ATOM     22  C   UNL     1       1.338   5.575  20.136  0.00  0.00    +0.000 C 
ENDBRANCH   1  22
TORSDOF 1
ENDMDL
MODEL 3
REMARK VINA RESULT:      -6.1      2.034      3.260
REMARK  Name = 
REMARK  5 active torsions:
REMARK  status: ('A' for Active; 'I' for Inactive)
REMARK    1  A    between atoms: C_1  and  C_2
REMARK    2  A    between atoms: C_2  and  N_3
REMARK    3  A    between atoms: C_9  and  C_10
REMARK    4  A    between atoms: C_20  and  C_21
REMARK    5  A    between atoms: C_20  and  C_22
REMARK                            x       y       z     vdW  Elec       q    Type
REMARK                         _______ _______ _______ _____ _____    ______ ____
ROOT
ATOM      1  N   UNL     1       6.376   5.577  18.415  0.00  0.00    +0.000 N 
ATOM      2  C   UNL     1       5.431   4.654  18.857  0.00  0.00    +0.000 C 
ATOM      3  O   UNL     1       5.364   4.414  20.055  0.00  0.00    +0.000 OA
ATOM      4  C   UNL     1       4.410   4.168  17.772  0.00  0.00    +0.000 C 
ATOM      5  S   UNL     1       5.070   3.845  16.105  0.00  0.00    +0.000 S 
ATOM      6  S   UNL     1       6.045   5.546  15.674  0.00  0.00    +0.000 S 
ATOM      7  C   UNL     1       5.878   6.392  17.273  0.00  0.00    +0.000 C 
ATOM      8  C   UNL     1       6.644   7.688  17.048  0.00  0.00    +0.000 C 
ATOM      9  C   UNL     1       4.216   6.602  17.595  0.00  0.00    +0.000 C 
ATOM     10  O   UNL     1       3.663   7.698  17.629  0.00  0.00    +0.000 OA
ATOM     11  N   UNL     1       3.559   5.345  17.863  0.00  0.00    +0.000 N 
ATOM     12  C   UNL     1       2.578   5.014  18.853  0.00  0.00    +0.000 A 
ATOM     13  C   UNL     1       1.734   5.797  19.626  0.00  0.00    +0.000 A 
ATOM     14  C   UNL     1       1.030   5.174  20.688  0.00  0.00    +0.000 A 
ATOM     15  C   UNL     1       1.168   3.806  20.989  0.00  0.00    +0.000 A 
ATOM     16  C   UNL     1       1.996   3.012  20.211  0.00  0.00    +0.000 A 
ATOM     17  C   UNL     1       2.670   3.612  19.162  0.00  0.00    +0.000 A 
ATOM     18  C   UNL     1       3.655   2.910  18.268  0.00  0.00    +0.000 C 
ATOM     19  C   UNL     1       2.819   2.130  17.232  0.00  0.00    +0.000 C 
ATOM     20  C   UNL     1       4.657   1.916  18.891  0.00  0.00    +0.000 C 
ENDROOT
BRANCH   1  22
ATOM     21  C   UNL     1       8.591   5.332  19.789  0.00  0.00    +0.000 C 
ATOM     22  C   UNL     1       7.653   4.937  18.693  0.00  0.00    +0.000 C 
ENDBRANCH   1  22
TORSDOF 1
ENDMDL
MODEL 4
REMARK VINA RESULT:      -5.8     10.278     12.056
REMARK  Name = 
REMARK  5 active torsions:
REMARK  status: ('A' for Active; 'I' for Inactive)
REMARK    1  A    between atoms: C_1  and  C_2
REMARK    2  A    between atoms: C_2  and  N_3
REMARK    3  A    between atoms: C_9  and  C_10
REMARK    4  A    between atoms: C_20  and  C_21
REMARK    5  A    between atoms: C_20  and  C_22
REMARK                            x       y       z     vdW  Elec       q    Type
REMARK                         _______ _______ _______ _____ _____    ______ ____
ROOT
ATOM      1  N   UNL     1       6.686  14.712  20.675  0.00  0.00    +0.000 N 
ATOM      2  C   UNL     1       8.047  14.425  20.745  0.00  0.00    +0.000 C 
ATOM      3  O   UNL     1       8.406  13.445  21.383  0.00  0.00    +0.000 OA
ATOM      4  C   UNL     1       8.964  15.293  19.817  0.00  0.00    +0.000 C 
ATOM      5  S   UNL     1       8.564  17.066  19.688  0.00  0.00    +0.000 S 
ATOM      6  S   UNL     1       6.615  17.049  19.207  0.00  0.00    +0.000 S 
ATOM      7  C   UNL     1       6.293  15.267  19.351  0.00  0.00    +0.000 C 
ATOM      8  C   UNL     1       4.805  15.170  19.048  0.00  0.00    +0.000 C 
ATOM      9  C   UNL     1       7.294  14.452  18.236  0.00  0.00    +0.000 C 
ATOM     10  O   UNL     1       6.869  13.847  17.256  0.00  0.00    +0.000 OA
ATOM     11  N   UNL     1       8.686  14.526  18.611  0.00  0.00    +0.000 N 
ATOM     12  C   UNL     1       9.701  13.516  18.576  0.00  0.00    +0.000 A 
ATOM     13  C   UNL     1       9.786  12.304  17.909  0.00  0.00    +0.000 A 
ATOM     14  C   UNL     1      10.837  11.419  18.261  0.00  0.00    +0.000 A 
ATOM     15  C   UNL     1      11.779  11.722  19.262  0.00  0.00    +0.000 A 
ATOM     16  C   UNL     1      11.714  12.940  19.921  0.00  0.00    +0.000 A 
ATOM     17  C   UNL     1      10.700  13.814  19.567  0.00  0.00    +0.000 A 
ATOM     18  C   UNL     1      10.448  15.140  20.230  0.00  0.00    +0.000 C 
ATOM     19  C   UNL     1      11.461  16.129  19.616  0.00  0.00    +0.000 C 
ATOM     20  C   UNL     1      10.573  15.247  21.763  0.00  0.00    +0.000 C 
ENDROOT
BRANCH   1  22
ATOM     21  C   UNL     1       5.171  14.489  22.799  0.00  0.00    +0.000 C 
ATOM     22  C   UNL     1       6.327  15.061  22.042  0.00  0.00    +0.000 C 
ENDBRANCH   1  22
TORSDOF 1
ENDMDL
MODEL 5
REMARK VINA RESULT:      -5.8      7.349      9.810
REMARK  Name = 
REMARK  5 active torsions:
REMARK  status: ('A' for Active; 'I' for Inactive)
REMARK    1  A    between atoms: C_1  and  C_2
REMARK    2  A    between atoms: C_2  and  N_3
REMARK    3  A    between atoms: C_9  and  C_10
REMARK    4  A    between atoms: C_20  and  C_21
REMARK    5  A    between atoms: C_20  and  C_22
REMARK                            x       y       z     vdW  Elec       q    Type
REMARK                         _______ _______ _______ _____ _____    ______ ____
ROOT
ATOM      1  N   UNL     1      -0.508  13.815  21.517  0.00  0.00    +0.000 N 
ATOM      2  C   UNL     1      -0.287  12.980  20.425  0.00  0.00    +0.000 C 
ATOM      3  O   UNL     1       0.829  12.958  19.923  0.00  0.00    +0.000 OA
ATOM      4  C   UNL     1      -1.460  11.999  20.082  0.00  0.00    +0.000 C 
ATOM      5  S   UNL     1      -3.152  12.663  20.203  0.00  0.00    +0.000 S 
ATOM      6  S   UNL     1      -3.191  13.446  22.051  0.00  0.00    +0.000 S 
ATOM      7  C   UNL     1      -1.447  13.216  22.505  0.00  0.00    +0.000 C 
ATOM      8  C   UNL     1      -1.378  13.837  23.892  0.00  0.00    +0.000 C 
ATOM      9  C   UNL     1      -1.101  11.547  22.461  0.00  0.00    +0.000 C 
ATOM     10  O   UNL     1      -0.831  10.881  23.458  0.00  0.00    +0.000 OA
ATOM     11  N   UNL     1      -1.120  11.030  21.113  0.00  0.00    +0.000 N 
ATOM     12  C   UNL     1      -0.234  10.105  20.472  0.00  0.00    +0.000 A 
ATOM     13  C   UNL     1       0.685   9.195  20.972  0.00  0.00    +0.000 A 
ATOM     14  C   UNL     1       1.579   8.578  20.061  0.00  0.00    +0.000 A 
ATOM     15  C   UNL     1       1.573   8.864  18.683  0.00  0.00    +0.000 A 
ATOM     16  C   UNL     1       0.647   9.759  18.170  0.00  0.00    +0.000 A 
ATOM     17  C   UNL     1      -0.240  10.349  19.054  0.00  0.00    +0.000 A 
ATOM     18  C   UNL     1      -1.257  11.389  18.674  0.00  0.00    +0.000 C 
ATOM     19  C   UNL     1      -2.446  10.623  18.054  0.00  0.00    +0.000 C 
ATOM     20  C   UNL     1      -0.859  12.499  17.680  0.00  0.00    +0.000 C 
ENDROOT
BRANCH   1  22
ATOM     21  C   UNL     1      -1.296  15.783  19.980  0.00  0.00    +0.000 C 
ATOM     22  C   UNL     1      -0.367  15.157  20.972  0.00  0.00    +0.000 C 
ENDBRANCH   1  22
TORSDOF 1
ENDMDL
MODEL 6
REMARK VINA RESULT:      -5.8      7.607      9.519
REMARK  Name = 
REMARK  5 active torsions:
REMARK  status: ('A' for Active; 'I' for Inactive)
REMARK    1  A    between atoms: C_1  and  C_2
REMARK    2  A    between atoms: C_2  and  N_3
REMARK    3  A    between atoms: C_9  and  C_10
REMARK    4  A    between atoms: C_20  and  C_21
REMARK    5  A    between atoms: C_20  and  C_22
REMARK                            x       y       z     vdW  Elec       q    Type
REMARK                         _______ _______ _______ _____ _____    ______ ____
ROOT
ATOM      1  N   UNL     1       1.722  14.308  20.492  0.00  0.00    +0.000 N 
ATOM      2  C   UNL     1       1.454  12.945  20.386  0.00  0.00    +0.000 C 
ATOM      3  O   UNL     1       2.203  12.157  20.948  0.00  0.00    +0.000 OA
ATOM      4  C   UNL     1       0.088  12.580  19.712  0.00  0.00    +0.000 C 
ATOM      5  S   UNL     1      -0.409  13.569  18.265  0.00  0.00    +0.000 S 
ATOM      6  S   UNL     1      -0.252  15.453  18.939  0.00  0.00    +0.000 S 
ATOM      7  C   UNL     1       0.479  15.123  20.569  0.00  0.00    +0.000 C 
ATOM      8  C   UNL     1       0.679  16.520  21.135  0.00  0.00    +0.000 C 
ATOM      9  C   UNL     1      -0.610  14.153  21.454  0.00  0.00    +0.000 C 
ATOM     10  O   UNL     1      -1.204  14.539  22.458  0.00  0.00    +0.000 OA
ATOM     11  N   UNL     1      -0.710  12.821  20.906  0.00  0.00    +0.000 N 
ATOM     12  C   UNL     1      -0.765  11.555  21.574  0.00  0.00    +0.000 A 
ATOM     13  C   UNL     1      -1.056  11.204  22.883  0.00  0.00    +0.000 A 
ATOM     14  C   UNL     1      -0.803   9.869  23.290  0.00  0.00    +0.000 A 
ATOM     15  C   UNL     1      -0.263   8.903  22.422  0.00  0.00    +0.000 A 
ATOM     16  C   UNL     1       0.014   9.238  21.106  0.00  0.00    +0.000 A 
ATOM     17  C   UNL     1      -0.248  10.536  20.701  0.00  0.00    +0.000 A 
ATOM     18  C   UNL     1       0.058  11.080  19.332  0.00  0.00    +0.000 C 
ATOM     19  C   UNL     1      -1.086  10.602  18.412  0.00  0.00    +0.000 C 
ATOM     20  C   UNL     1       1.386  10.691  18.651  0.00  0.00    +0.000 C 
ENDROOT
BRANCH   1  22
ATOM     21  C   UNL     1       3.170  14.233  18.312  0.00  0.00    +0.000 C 
ATOM     22  C   UNL     1       2.976  14.480  19.775  0.00  0.00    +0.000 C 
ENDBRANCH   1  22
TORSDOF 1
ENDMDL
MODEL 7
REMARK VINA RESULT:      -5.7      7.016      9.399
REMARK  Name = 
REMARK  5 active torsions:
REMARK  status: ('A' for Active; 'I' for Inactive)
REMARK    1  A    between atoms: C_1  and  C_2
REMARK    2  A    between atoms: C_2  and  N_3
REMARK    3  A    between atoms: C_9  and  C_10
REMARK    4  A    between atoms: C_20  and  C_21
REMARK    5  A    between atoms: C_20  and  C_22
REMARK                            x       y       z     vdW  Elec       q    Type
REMARK                         _______ _______ _______ _____ _____    ______ ____
ROOT
ATOM      1  N   UNL     1       0.171  13.517  21.961  0.00  0.00    +0.000 N 
ATOM      2  C   UNL     1       0.585  12.562  21.035  0.00  0.00    +0.000 C 
ATOM      3  O   UNL     1       1.755  12.204  21.048  0.00  0.00    +0.000 OA
ATOM      4  C   UNL     1      -0.561  11.899  20.197  0.00  0.00    +0.000 C 
ATOM      5  S   UNL     1      -1.898  12.993  19.618  0.00  0.00    +0.000 S 
ATOM      6  S   UNL     1      -2.480  13.914  21.304  0.00  0.00    +0.000 S 
ATOM      7  C   UNL     1      -1.217  13.273  22.440  0.00  0.00    +0.000 C 
ATOM      8  C   UNL     1      -1.559  13.970  23.749  0.00  0.00    +0.000 C 
ATOM      9  C   UNL     1      -1.356  11.574  22.489  0.00  0.00    +0.000 C 
ATOM     10  O   UNL     1      -1.717  10.949  23.483  0.00  0.00    +0.000 OA
ATOM     11  N   UNL     1      -0.958  10.967  21.241  0.00  0.00    +0.000 N 
ATOM     12  C   UNL     1      -0.178   9.790  21.000  0.00  0.00    +0.000 A 
ATOM     13  C   UNL     1       0.163   8.716  21.809  0.00  0.00    +0.000 A 
ATOM     14  C   UNL     1       1.147   7.810  21.338  0.00  0.00    +0.000 A 
ATOM     15  C   UNL     1       1.790   7.968  20.096  0.00  0.00    +0.000 A 
ATOM     16  C   UNL     1       1.443   9.028  19.273  0.00  0.00    +0.000 A 
ATOM     17  C   UNL     1       0.470   9.905  19.721  0.00  0.00    +0.000 A 
ATOM     18  C   UNL     1       0.029  11.139  18.984  0.00  0.00    +0.000 C 
ATOM     19  C   UNL     1      -0.957  10.663  17.896  0.00  0.00    +0.000 C 
ATOM     20  C   UNL     1       1.090  12.016  18.288  0.00  0.00    +0.000 C 
ENDROOT
BRANCH   1  22
ATOM     21  C   UNL     1       0.803  15.375  20.229  0.00  0.00    +0.000 C 
ATOM     22  C   UNL     1       0.888  14.722  21.572  0.00  0.00    +0.000 C 
ENDBRANCH   1  22
TORSDOF 1
ENDMDL
MODEL 8
REMARK VINA RESULT:      -5.7      8.056     10.075
REMARK  Name = 
REMARK  5 active torsions:
REMARK  status: ('A' for Active; 'I' for Inactive)
REMARK    1  A    between atoms: C_1  and  C_2
REMARK    2  A    between atoms: C_2  and  N_3
REMARK    3  A    between atoms: C_9  and  C_10
REMARK    4  A    between atoms: C_20  and  C_21
REMARK    5  A    between atoms: C_20  and  C_22
REMARK                            x       y       z     vdW  Elec       q    Type
REMARK                         _______ _______ _______ _____ _____    ______ ____
ROOT
ATOM      1  N   UNL     1       1.612  14.655  21.577  0.00  0.00    +0.000 N 
ATOM      2  C   UNL     1       1.321  13.406  21.036  0.00  0.00    +0.000 C 
ATOM      3  O   UNL     1       2.131  12.501  21.183  0.00  0.00    +0.000 OA
ATOM      4  C   UNL     1      -0.127  13.246  20.459  0.00  0.00    +0.000 C 
ATOM      5  S   UNL     1      -0.805  14.657  19.527  0.00  0.00    +0.000 S 
ATOM      6  S   UNL     1      -0.542  16.193  20.793  0.00  0.00    +0.000 S 
ATOM      7  C   UNL     1       0.398  15.343  22.094  0.00  0.00    +0.000 C 
ATOM      8  C   UNL     1       0.685  16.462  23.085  0.00  0.00    +0.000 C 
ATOM      9  C   UNL     1      -0.571  14.084  22.716  0.00  0.00    +0.000 C 
ATOM     10  O   UNL     1      -1.021  14.072  23.858  0.00  0.00    +0.000 OA
ATOM     11  N   UNL     1      -0.755  13.024  21.753  0.00  0.00    +0.000 N 
ATOM     12  C   UNL     1      -0.731  11.604  21.935  0.00  0.00    +0.000 A 
ATOM     13  C   UNL     1      -0.847  10.807  23.064  0.00  0.00    +0.000 A 
ATOM     14  C   UNL     1      -0.554   9.425  22.941  0.00  0.00    +0.000 A 
ATOM     15  C   UNL     1      -0.144   8.844  21.726  0.00  0.00    +0.000 A 
ATOM     16  C   UNL     1      -0.043   9.628  20.588  0.00  0.00    +0.000 A 
ATOM     17  C   UNL     1      -0.345  10.974  20.701  0.00  0.00    +0.000 A 
ATOM     18  C   UNL     1      -0.221  11.972  19.583  0.00  0.00    +0.000 C 
ATOM     19  C   UNL     1      -1.482  11.802  18.710  0.00  0.00    +0.000 C 
ATOM     20  C   UNL     1       1.000  11.898  18.644  0.00  0.00    +0.000 C 
ENDROOT
BRANCH   1  22
ATOM     21  C   UNL     1       2.786  15.293  19.326  0.00  0.00    +0.000 C 
ATOM     22  C   UNL     1       2.760  15.115  20.810  0.00  0.00    +0.000 C 
ENDBRANCH   1  22
TORSDOF 1
ENDMDL
MODEL 9
REMARK VINA RESULT:      -5.7     10.644     12.684
REMARK  Name = 
REMARK  5 active torsions:
REMARK  status: ('A' for Active; 'I' for Inactive)
REMARK    1  A    between atoms: C_1  and  C_2
REMARK    2  A    between atoms: C_2  and  N_3
REMARK    3  A    between atoms: C_9  and  C_10
REMARK    4  A    between atoms: C_20  and  C_21
REMARK    5  A    between atoms: C_20  and  C_22
REMARK                            x       y       z     vdW  Elec       q    Type
REMARK                         _______ _______ _______ _____ _____    ______ ____
ROOT
ATOM      1  N   UNL     1       8.567  16.316  20.376  0.00  0.00    +0.000 N 
ATOM      2  C   UNL     1       9.536  15.367  20.058  0.00  0.00    +0.000 C 
ATOM      3  O   UNL     1       9.719  14.437  20.832  0.00  0.00    +0.000 OA
ATOM      4  C   UNL     1      10.154  15.494  18.624  0.00  0.00    +0.000 C 
ATOM      5  S   UNL     1      10.510  17.177  18.025  0.00  0.00    +0.000 S 
ATOM      6  S   UNL     1       8.764  18.128  18.302  0.00  0.00    +0.000 S 
ATOM      7  C   UNL     1       7.852  16.819  19.171  0.00  0.00    +0.000 C 
ATOM      8  C   UNL     1       6.515  17.482  19.467  0.00  0.00    +0.000 C 
ATOM      9  C   UNL     1       7.754  15.463  18.140  0.00  0.00    +0.000 C 
ATOM     10  O   UNL     1       6.703  15.052  17.655  0.00  0.00    +0.000 OA
ATOM     11  N   UNL     1       9.042  14.841  17.949  0.00  0.00    +0.000 N 
ATOM     12  C   UNL     1       9.396  13.453  17.917  0.00  0.00    +0.000 A 
ATOM     13  C   UNL     1       8.642  12.303  17.739  0.00  0.00    +0.000 A 
ATOM     14  C   UNL     1       9.261  11.051  17.987  0.00  0.00    +0.000 A 
ATOM     15  C   UNL     1      10.597  10.939  18.414  0.00  0.00    +0.000 A 
ATOM     16  C   UNL     1      11.365  12.082  18.578  0.00  0.00    +0.000 A 
ATOM     17  C   UNL     1      10.769  13.304  18.319  0.00  0.00    +0.000 A 
ATOM     18  C   UNL     1      11.438  14.637  18.513  0.00  0.00    +0.000 C 
ATOM     19  C   UNL     1      12.333  14.855  17.274  0.00  0.00    +0.000 C 
ATOM     20  C   UNL     1      12.319  14.859  19.759  0.00  0.00    +0.000 C 
ENDROOT
BRANCH   1  22
ATOM     21  C   UNL     1       8.360  17.120  22.858  0.00  0.00    +0.000 C 
ATOM     22  C   UNL     1       9.092  16.975  21.563  0.00  0.00    +0.000 C 
ENDBRANCH   1  22
TORSDOF 1
ENDMDL
