MODEL 1
REMARK VINA RESULT:      -7.5      0.000      0.000
REMARK  Name = 
REMARK  11 active torsions:
REMARK  status: ('A' for Active; 'I' for Inactive)
REMARK    1  A    between atoms: C_1  and  C_2
REMARK    2  A    between atoms: C_2  and  O_3
REMARK    3  A    between atoms: O_3  and  C_4
REMARK    4  A    between atoms: C_4  and  C_6
REMARK    5  A    between atoms: N_11  and  C_12
REMARK    6  A    between atoms: C_15  and  C_16
REMARK    7  A    between atoms: C_24  and  C_25
REMARK    8  A    between atoms: C_28  and  C_29
REMARK    9  A    between atoms: C_29  and  C_30
REMARK   10  A    between atoms: C_29  and  C_31
REMARK   11  A    between atoms: C_29  and  C_32
REMARK                            x       y       z     vdW  Elec       q    Type
REMARK                         _______ _______ _______ _____ _____    ______ ____
ROOT
ATOM      1  C   UNL     1      -0.973  11.468  18.494  0.00  0.00    +0.000 C 
ATOM      2  C   UNL     1      -1.874  12.140  19.473  0.00  0.00    +0.000 A 
ATOM      3  C   UNL     1      -3.200  12.486  19.409  0.00  0.00    +0.000 A 
ATOM      4  N   UNL     1      -3.601  13.049  20.572  0.00  0.00    +0.000 NA
ATOM      5  C   UNL     1      -2.547  13.072  21.368  0.00  0.00    +0.000 A 
ATOM      6  N   UNL     1      -2.496  13.581  22.627  0.00  0.00    +0.000 N 
ATOM      7  N   UNL     1      -1.440  12.531  20.728  0.00  0.00    +0.000 N 
ATOM      8  C   UNL     1      -0.132  12.454  21.203  0.00  0.00    +0.000 C 
ATOM      9  O   UNL     1       0.144  12.789  22.348  0.00  0.00    +0.000 OA
ATOM     10  N   UNL     1       0.769  12.024  20.269  0.00  0.00    +0.000 N 
ATOM     11  C   UNL     1       0.485  11.345  18.993  0.00  0.00    +0.000 C 
ATOM     12  H   UNL     1      -1.672  13.422  23.206  0.00  0.00    +0.000 HD
ATOM     13  H   UNL     1       1.717  11.944  20.620  0.00  0.00    +0.000 HD
ENDROOT
BRANCH   6  14
ATOM     14  C   UNL     1      -3.308  14.653  23.054  0.00  0.00    +0.000 A 
ATOM     15  C   UNL     1      -2.734  15.896  23.334  0.00  0.00    +0.000 A 
ATOM     16  C   UNL     1      -3.510  16.941  23.853  0.00  0.00    +0.000 A 
ATOM     17  C   UNL     1      -4.882  16.770  24.092  0.00  0.00    +0.000 A 
ATOM     18  C   UNL     1      -5.693  17.894  24.668  0.00  0.00    +0.000 C 
ATOM     19  C   UNL     1      -5.461  15.532  23.795  0.00  0.00    +0.000 A 
ATOM     20 CL   UNL     1      -7.144  15.227  24.046  0.00  0.00    +0.000 Cl
ATOM     21  C   UNL     1      -4.681  14.491  23.290  0.00  0.00    +0.000 A 
ENDBRANCH   6  14
BRANCH  11  22
ATOM     22  C   UNL     1       1.070   9.947  19.036  0.00  0.00    +0.000 A 
ATOM     23  C   UNL     1       1.052   9.197  20.217  0.00  0.00    +0.000 A 
ATOM     24  C   UNL     1       1.596   7.914  20.260  0.00  0.00    +0.000 A 
ATOM     25  C   UNL     1       2.157   7.323  19.121  0.00  0.00    +0.000 A 
ATOM     26  C   UNL     1       2.164   8.081  17.935  0.00  0.00    +0.000 A 
ATOM     27  C   UNL     1       1.622   9.369  17.887  0.00  0.00    +0.000 A 
BRANCH  25  28
ATOM     28  C   UNL     1       2.700   5.886  19.136  0.00  0.00    +0.000 C 
ATOM     29  C   UNL     1       4.243   5.819  19.081  0.00  0.00    +0.000 C 
ATOM     30  C   UNL     1       2.254   5.197  20.442  0.00  0.00    +0.000 C 
ATOM     31  C   UNL     1       2.161   5.094  17.928  0.00  0.00    +0.000 C 
ENDBRANCH  25  28
ENDBRANCH  11  22
BRANCH   1  32
ATOM     32  C   UNL     1      -1.609  10.152  18.065  0.00  0.00    +0.000 C 
ATOM     33  O   UNL     1      -1.996   9.302  18.859  0.00  0.00    +0.000 OA
BRANCH  32  34
ATOM     34  O   UNL     1      -1.637  10.029  16.707  0.00  0.00    +0.000 OA
BRANCH  34  36
ATOM     35  C   UNL     1      -2.990  10.099  14.722  0.00  0.00    +0.000 C 
ATOM     36  C   UNL     1      -2.637  10.793  16.023  0.00  0.00    +0.000 C 
ENDBRANCH  34  36
ENDBRANCH  32  34
ENDBRANCH   1  32
TORSDOF 6
ENDMDL
MODEL 2
REMARK VINA RESULT:      -7.4      0.933      1.236
REMARK  Name = 
REMARK  11 active torsions:
REMARK  status: ('A' for Active; 'I' for Inactive)
REMARK    1  A    between atoms: C_1  and  C_2
REMARK    2  A    between atoms: C_2  and  O_3
REMARK    3  A    between atoms: O_3  and  C_4
REMARK    4  A    between atoms: C_4  and  C_6
REMARK    5  A    between atoms: N_11  and  C_12
REMARK    6  A    between atoms: C_15  and  C_16
REMARK    7  A    between atoms: C_24  and  C_25
REMARK    8  A    between atoms: C_28  and  C_29
REMARK    9  A    between atoms: C_29  and  C_30
REMARK   10  A    between atoms: C_29  and  C_31
REMARK   11  A    between atoms: C_29  and  C_32
REMARK                            x       y       z     vdW  Elec       q    Type
REMARK                         _______ _______ _______ _____ _____    ______ ____
ROOT
ATOM      1  C   UNL     1      -0.902  11.528  18.628  0.00  0.00    +0.000 C 
ATOM      2  C   UNL     1      -1.837  12.189  19.584  0.00  0.00    +0.000 A 
ATOM      3  C   UNL     1      -3.150  12.570  19.463  0.00  0.00    +0.000 A 
ATOM      4  N   UNL     1      -3.598  13.101  20.624  0.00  0.00    +0.000 NA
ATOM      5  C   UNL     1      -2.586  13.071  21.474  0.00  0.00    +0.000 A 
ATOM      6  N   UNL     1      -2.589  13.534  22.751  0.00  0.00    +0.000 N 
ATOM      7  N   UNL     1      -1.460  12.524  20.872  0.00  0.00    +0.000 N 
ATOM      8  C   UNL     1      -0.181  12.398  21.412  0.00  0.00    +0.000 C 
ATOM      9  O   UNL     1       0.042  12.685  22.580  0.00  0.00    +0.000 OA
ATOM     10  N   UNL     1       0.757  11.978  20.510  0.00  0.00    +0.000 N 
ATOM     11  C   UNL     1       0.524  11.351  19.197  0.00  0.00    +0.000 C 
ATOM     12  H   UNL     1      -1.801  13.333  23.365  0.00  0.00    +0.000 HD
ATOM     13  H   UNL     1       1.683  11.862  20.906  0.00  0.00    +0.000 HD
ENDROOT
BRANCH   6  14
ATOM     14  C   UNL     1      -3.398  14.610  23.174  0.00  0.00    +0.000 A 
ATOM     15  C   UNL     1      -4.699  14.369  23.624  0.00  0.00    +0.000 A 
ATOM     16  C   UNL     1      -5.549  15.434  23.955  0.00  0.00    +0.000 A 
ATOM     17  C   UNL     1      -5.112  16.763  23.856  0.00  0.00    +0.000 A 
ATOM     18  C   UNL     1      -6.042  17.891  24.193  0.00  0.00    +0.000 C 
ATOM     19  C   UNL     1      -3.803  17.003  23.422  0.00  0.00    +0.000 A 
ATOM     20 CL   UNL     1      -3.169  18.605  23.276  0.00  0.00    +0.000 Cl
ATOM     21  C   UNL     1      -2.966  15.940  23.083  0.00  0.00    +0.000 A 
ENDBRANCH   6  14
BRANCH  11  22
ATOM     22  C   UNL     1       1.073   9.938  19.220  0.00  0.00    +0.000 A 
ATOM     23  C   UNL     1       1.062   9.181  20.397  0.00  0.00    +0.000 A 
ATOM     24  C   UNL     1       1.572   7.885  20.421  0.00  0.00    +0.000 A 
ATOM     25  C   UNL     1       2.093   7.286  19.266  0.00  0.00    +0.000 A 
ATOM     26  C   UNL     1       2.094   8.051  18.085  0.00  0.00    +0.000 A 
ATOM     27  C   UNL     1       1.585   9.353  18.056  0.00  0.00    +0.000 A 
BRANCH  25  28
ATOM     28  C   UNL     1       2.598   5.836  19.262  0.00  0.00    +0.000 C 
ATOM     29  C   UNL     1       4.140   5.730  19.297  0.00  0.00    +0.000 C 
ATOM     30  C   UNL     1       2.057   5.114  20.513  0.00  0.00    +0.000 C 
ATOM     31  C   UNL     1       2.115   5.101  17.996  0.00  0.00    +0.000 C 
ENDBRANCH  25  28
ENDBRANCH  11  22
BRANCH   1  32
ATOM     32  C   UNL     1      -1.546  10.244  18.120  0.00  0.00    +0.000 C 
ATOM     33  O   UNL     1      -1.963   9.362  18.861  0.00  0.00    +0.000 OA
BRANCH  32  34
ATOM     34  O   UNL     1      -1.542  10.189  16.758  0.00  0.00    +0.000 OA
BRANCH  34  36
ATOM     35  C   UNL     1      -2.988  10.100  14.840  0.00  0.00    +0.000 C 
ATOM     36  C   UNL     1      -2.617  10.866  16.094  0.00  0.00    +0.000 C 
ENDBRANCH  34  36
ENDBRANCH  32  34
ENDBRANCH   1  32
TORSDOF 6
ENDMDL
MODEL 3
REMARK VINA RESULT:      -7.2      1.015      1.728
REMARK  Name = 
REMARK  11 active torsions:
REMARK  status: ('A' for Active; 'I' for Inactive)
REMARK    1  A    between atoms: C_1  and  C_2
REMARK    2  A    between atoms: C_2  and  O_3
REMARK    3  A    between atoms: O_3  and  C_4
REMARK    4  A    between atoms: C_4  and  C_6
REMARK    5  A    between atoms: N_11  and  C_12
REMARK    6  A    between atoms: C_15  and  C_16
REMARK    7  A    between atoms: C_24  and  C_25
REMARK    8  A    between atoms: C_28  and  C_29
REMARK    9  A    between atoms: C_29  and  C_30
REMARK   10  A    between atoms: C_29  and  C_31
REMARK   11  A    between atoms: C_29  and  C_32
REMARK                            x       y       z     vdW  Elec       q    Type
REMARK                         _______ _______ _______ _____ _____    ______ ____
ROOT
ATOM      1  C   UNL     1      -0.971  11.541  18.654  0.00  0.00    +0.000 C 
ATOM      2  C   UNL     1      -1.865  12.120  19.697  0.00  0.00    +0.000 A 
ATOM      3  C   UNL     1      -3.191  12.475  19.672  0.00  0.00    +0.000 A 
ATOM      4  N   UNL     1      -3.584  12.925  20.886  0.00  0.00    +0.000 NA
ATOM      5  C   UNL     1      -2.526  12.870  21.676  0.00  0.00    +0.000 A 
ATOM      6  N   UNL     1      -2.467  13.256  22.977  0.00  0.00    +0.000 N 
ATOM      7  N   UNL     1      -1.424  12.388  20.981  0.00  0.00    +0.000 N 
ATOM      8  C   UNL     1      -0.114  12.262  21.441  0.00  0.00    +0.000 C 
ATOM      9  O   UNL     1       0.168  12.485  22.610  0.00  0.00    +0.000 OA
ATOM     10  N   UNL     1       0.781  11.921  20.465  0.00  0.00    +0.000 N 
ATOM     11  C   UNL     1       0.488  11.367  19.132  0.00  0.00    +0.000 C 
ATOM     12  H   UNL     1      -1.642  13.039  23.534  0.00  0.00    +0.000 HD
ATOM     13  H   UNL     1       1.730  11.805  20.802  0.00  0.00    +0.000 HD
ENDROOT
BRANCH   6  14
ATOM     14  C   UNL     1      -3.274  14.284  23.508  0.00  0.00    +0.000 A 
ATOM     15  C   UNL     1      -4.666  14.201  23.407  0.00  0.00    +0.000 A 
ATOM     16  C   UNL     1      -5.478  15.259  23.840  0.00  0.00    +0.000 A 
ATOM     17  C   UNL     1      -4.916  16.417  24.398  0.00  0.00    +0.000 A 
ATOM     18  C   UNL     1      -5.800  17.548  24.837  0.00  0.00    +0.000 C 
ATOM     19  C   UNL     1      -3.524  16.492  24.516  0.00  0.00    +0.000 A 
ATOM     20 CL   UNL     1      -2.739  17.874  25.198  0.00  0.00    +0.000 Cl
ATOM     21  C   UNL     1      -2.720  15.442  24.072  0.00  0.00    +0.000 A 
ENDBRANCH   6  14
BRANCH  11  22
ATOM     22  C   UNL     1       1.069   9.969  19.038  0.00  0.00    +0.000 A 
ATOM     23  C   UNL     1       1.631   9.504  17.844  0.00  0.00    +0.000 A 
ATOM     24  C   UNL     1       2.158   8.217  17.754  0.00  0.00    +0.000 A 
ATOM     25  C   UNL     1       2.165   7.354  18.858  0.00  0.00    +0.000 A 
ATOM     26  C   UNL     1       1.605   7.833  20.057  0.00  0.00    +0.000 A 
ATOM     27  C   UNL     1       1.072   9.122  20.152  0.00  0.00    +0.000 A 
BRANCH  25  28
ATOM     28  C   UNL     1       2.802   5.958  18.792  0.00  0.00    +0.000 C 
ATOM     29  C   UNL     1       2.005   4.968  17.912  0.00  0.00    +0.000 C 
ATOM     30  C   UNL     1       4.215   6.081  18.187  0.00  0.00    +0.000 C 
ATOM     31  C   UNL     1       2.899   5.344  20.203  0.00  0.00    +0.000 C 
ENDBRANCH  25  28
ENDBRANCH  11  22
BRANCH   1  32
ATOM     32  C   UNL     1      -1.614  10.274  18.104  0.00  0.00    +0.000 C 
ATOM     33  O   UNL     1      -2.079   9.393  18.818  0.00  0.00    +0.000 OA
BRANCH  32  34
ATOM     34  O   UNL     1      -1.552  10.232  16.743  0.00  0.00    +0.000 OA
BRANCH  34  36
ATOM     35  C   UNL     1      -3.327  10.906  15.269  0.00  0.00    +0.000 C 
ATOM     36  C   UNL     1      -2.728   9.767  16.070  0.00  0.00    +0.000 C 
ENDBRANCH  34  36
ENDBRANCH  32  34
ENDBRANCH   1  32
TORSDOF 6
ENDMDL
MODEL 4
REMARK VINA RESULT:      -7.1      3.454      9.417
REMARK  Name = 
REMARK  11 active torsions:
REMARK  status: ('A' for Active; 'I' for Inactive)
REMARK    1  A    between atoms: C_1  and  C_2
REMARK    2  A    between atoms: C_2  and  O_3
REMARK    3  A    between atoms: O_3  and  C_4
REMARK    4  A    between atoms: C_4  and  C_6
REMARK    5  A    between atoms: N_11  and  C_12
REMARK    6  A    between atoms: C_15  and  C_16
REMARK    7  A    between atoms: C_24  and  C_25
REMARK    8  A    between atoms: C_28  and  C_29
REMARK    9  A    between atoms: C_29  and  C_30
REMARK   10  A    between atoms: C_29  and  C_31
REMARK   11  A    between atoms: C_29  and  C_32
REMARK                            x       y       z     vdW  Elec       q    Type
REMARK                         _______ _______ _______ _____ _____    ______ ____
ROOT
ATOM      1  C   UNL     1      -2.412  11.974  21.166  0.00  0.00    +0.000 C 
ATOM      2  C   UNL     1      -1.380  11.084  20.561  0.00  0.00    +0.000 A 
ATOM      3  C   UNL     1      -1.124  10.733  19.259  0.00  0.00    +0.000 A 
ATOM      4  N   UNL     1      -0.044   9.921  19.191  0.00  0.00    +0.000 NA
ATOM      5  C   UNL     1       0.381   9.745  20.429  0.00  0.00    +0.000 A 
ATOM      6  N   UNL     1       1.428   8.973  20.823  0.00  0.00    +0.000 N 
ATOM      7  N   UNL     1      -0.425  10.437  21.324  0.00  0.00    +0.000 N 
ATOM      8  C   UNL     1      -0.351  10.434  22.716  0.00  0.00    +0.000 C 
ATOM      9  O   UNL     1       0.561   9.862  23.299  0.00  0.00    +0.000 OA
ATOM     10  N   UNL     1      -1.394  11.077  23.323  0.00  0.00    +0.000 N 
ATOM     11  C   UNL     1      -2.351  12.014  22.710  0.00  0.00    +0.000 C 
ATOM     12  H   UNL     1       1.758   9.019  21.785  0.00  0.00    +0.000 HD
ATOM     13  H   UNL     1      -1.329  11.098  24.335  0.00  0.00    +0.000 HD
ENDROOT
BRANCH   6  14
ATOM     14  C   UNL     1       1.834   7.817  20.122  0.00  0.00    +0.000 A 
ATOM     15  C   UNL     1       2.391   7.935  18.846  0.00  0.00    +0.000 A 
ATOM     16  C   UNL     1       2.709   6.794  18.097  0.00  0.00    +0.000 A 
ATOM     17  C   UNL     1       2.489   5.508  18.614  0.00  0.00    +0.000 A 
ATOM     18  C   UNL     1       2.815   4.297  17.789  0.00  0.00    +0.000 C 
ATOM     19  C   UNL     1       1.948   5.390  19.899  0.00  0.00    +0.000 A 
ATOM     20 CL   UNL     1       1.649   3.850  20.625  0.00  0.00    +0.000 Cl
ATOM     21  C   UNL     1       1.623   6.530  20.635  0.00  0.00    +0.000 A 
ENDBRANCH   6  14
BRANCH  11  22
ATOM     22  C   UNL     1      -2.182  13.381  23.345  0.00  0.00    +0.000 A 
ATOM     23  C   UNL     1      -3.256  14.017  23.975  0.00  0.00    +0.000 A 
ATOM     24  C   UNL     1      -3.105  15.276  24.553  0.00  0.00    +0.000 A 
ATOM     25  C   UNL     1      -1.870  15.937  24.543  0.00  0.00    +0.000 A 
ATOM     26  C   UNL     1      -0.792  15.287  23.914  0.00  0.00    +0.000 A 
ATOM     27  C   UNL     1      -0.940  14.025  23.330  0.00  0.00    +0.000 A 
BRANCH  25  28
ATOM     28  C   UNL     1      -1.672  17.296  25.233  0.00  0.00    +0.000 C 
ATOM     29  C   UNL     1      -0.998  17.180  26.620  0.00  0.00    +0.000 C 
ATOM     30  C   UNL     1      -0.765  18.177  24.351  0.00  0.00    +0.000 C 
ATOM     31  C   UNL     1      -3.029  17.998  25.438  0.00  0.00    +0.000 C 
ENDBRANCH  25  28
ENDBRANCH  11  22
BRANCH   1  32
ATOM     32  C   UNL     1      -2.340  13.338  20.492  0.00  0.00    +0.000 C 
ATOM     33  O   UNL     1      -1.299  13.821  20.062  0.00  0.00    +0.000 OA
BRANCH  32  34
ATOM     34  O   UNL     1      -3.554  13.957  20.485  0.00  0.00    +0.000 OA
BRANCH  34  36
ATOM     35  C   UNL     1      -5.773  13.378  21.205  0.00  0.00    +0.000 C 
ATOM     36  C   UNL     1      -4.684  13.131  20.180  0.00  0.00    +0.000 C 
ENDBRANCH  34  36
ENDBRANCH  32  34
ENDBRANCH   1  32
TORSDOF 6
ENDMDL
MODEL 5
REMARK VINA RESULT:      -7.1      1.956      2.885
REMARK  Name = 
REMARK  11 active torsions:
REMARK  status: ('A' for Active; 'I' for Inactive)
REMARK    1  A    between atoms: C_1  and  C_2
REMARK    2  A    between atoms: C_2  and  O_3
REMARK    3  A    between atoms: O_3  and  C_4
REMARK    4  A    between atoms: C_4  and  C_6
REMARK    5  A    between atoms: N_11  and  C_12
REMARK    6  A    between atoms: C_15  and  C_16
REMARK    7  A    between atoms: C_24  and  C_25
REMARK    8  A    between atoms: C_28  and  C_29
REMARK    9  A    between atoms: C_29  and  C_30
REMARK   10  A    between atoms: C_29  and  C_31
REMARK   11  A    between atoms: C_29  and  C_32
REMARK                            x       y       z     vdW  Elec       q    Type
REMARK                         _______ _______ _______ _____ _____    ______ ____
ROOT
ATOM      1  C   UNL     1       1.121  10.362  19.719  0.00  0.00    +0.000 C 
ATOM      2  C   UNL     1      -0.006  11.117  20.339  0.00  0.00    +0.000 A 
ATOM      3  C   UNL     1      -0.812  12.117  19.857  0.00  0.00    +0.000 A 
ATOM      4  N   UNL     1      -1.736  12.468  20.781  0.00  0.00    +0.000 NA
ATOM      5  C   UNL     1      -1.522  11.712  21.842  0.00  0.00    +0.000 A 
ATOM      6  N   UNL     1      -2.206  11.753  23.016  0.00  0.00    +0.000 N 
ATOM      7  N   UNL     1      -0.446  10.861  21.626  0.00  0.00    +0.000 N 
ATOM      8  C   UNL     1       0.137   9.975  22.531  0.00  0.00    +0.000 C 
ATOM      9  O   UNL     1      -0.354   9.788  23.636  0.00  0.00    +0.000 OA
ATOM     10  N   UNL     1       1.292   9.403  22.074  0.00  0.00    +0.000 N 
ATOM     11  C   UNL     1       1.782   9.354  20.686  0.00  0.00    +0.000 C 
ATOM     12  H   UNL     1      -2.053  11.031  23.718  0.00  0.00    +0.000 HD
ATOM     13  H   UNL     1       1.704   8.740  22.721  0.00  0.00    +0.000 HD
ENDROOT
BRANCH   6  14
ATOM     14  C   UNL     1      -2.805  12.930  23.513  0.00  0.00    +0.000 A 
ATOM     15  C   UNL     1      -4.195  13.073  23.480  0.00  0.00    +0.000 A 
ATOM     16  C   UNL     1      -4.800  14.273  23.877  0.00  0.00    +0.000 A 
ATOM     17  C   UNL     1      -4.028  15.354  24.330  0.00  0.00    +0.000 A 
ATOM     18  C   UNL     1      -4.691  16.639  24.731  0.00  0.00    +0.000 C 
ATOM     19  C   UNL     1      -2.638  15.205  24.380  0.00  0.00    +0.000 A 
ATOM     20 CL   UNL     1      -1.603  16.476  24.931  0.00  0.00    +0.000 Cl
ATOM     21  C   UNL     1      -2.040  14.012  23.972  0.00  0.00    +0.000 A 
ENDBRANCH   6  14
BRANCH  11  22
ATOM     22  C   UNL     1       1.828   7.908  20.229  0.00  0.00    +0.000 A 
ATOM     23  C   UNL     1       2.533   7.542  19.078  0.00  0.00    +0.000 A 
ATOM     24  C   UNL     1       2.571   6.215  18.652  0.00  0.00    +0.000 A 
ATOM     25  C   UNL     1       1.924   5.202  19.371  0.00  0.00    +0.000 A 
ATOM     26  C   UNL     1       1.223   5.577  20.532  0.00  0.00    +0.000 A 
ATOM     27  C   UNL     1       1.181   6.908  20.962  0.00  0.00    +0.000 A 
BRANCH  25  28
ATOM     28  C   UNL     1       2.012   3.727  18.951  0.00  0.00    +0.000 C 
ATOM     29  C   UNL     1       0.751   2.913  19.323  0.00  0.00    +0.000 C 
ATOM     30  C   UNL     1       2.174   3.652  17.419  0.00  0.00    +0.000 C 
ATOM     31  C   UNL     1       3.217   3.044  19.629  0.00  0.00    +0.000 C 
ENDBRANCH  25  28
ENDBRANCH  11  22
BRANCH   1  32
ATOM     32  C   UNL     1       0.643   9.761  18.404  0.00  0.00    +0.000 C 
ATOM     33  O   UNL     1       1.363   9.640  17.419  0.00  0.00    +0.000 OA
BRANCH  32  34
ATOM     34  O   UNL     1      -0.679   9.434  18.455  0.00  0.00    +0.000 OA
BRANCH  34  36
ATOM     35  C   UNL     1      -2.913   9.878  17.688  0.00  0.00    +0.000 C 
ATOM     36  C   UNL     1      -1.455   9.755  17.293  0.00  0.00    +0.000 C 
ENDBRANCH  34  36
ENDBRANCH  32  34
ENDBRANCH   1  32
TORSDOF 6
ENDMDL
MODEL 6
REMARK VINA RESULT:      -7.1      3.508      9.508
REMARK  Name = 
REMARK  11 active torsions:
REMARK  status: ('A' for Active; 'I' for Inactive)
REMARK    1  A    between atoms: C_1  and  C_2
REMARK    2  A    between atoms: C_2  and  O_3
REMARK    3  A    between atoms: O_3  and  C_4
REMARK    4  A    between atoms: C_4  and  C_6
REMARK    5  A    between atoms: N_11  and  C_12
REMARK    6  A    between atoms: C_15  and  C_16
REMARK    7  A    between atoms: C_24  and  C_25
REMARK    8  A    between atoms: C_28  and  C_29
REMARK    9  A    between atoms: C_29  and  C_30
REMARK   10  A    between atoms: C_29  and  C_31
REMARK   11  A    between atoms: C_29  and  C_32
REMARK                            x       y       z     vdW  Elec       q    Type
REMARK                         _______ _______ _______ _____ _____    ______ ____
ROOT
ATOM      1  C   UNL     1      -2.160  12.209  21.112  0.00  0.00    +0.000 C 
ATOM      2  C   UNL     1      -1.161  11.239  20.580  0.00  0.00    +0.000 A 
ATOM      3  C   UNL     1      -0.787  10.921  19.299  0.00  0.00    +0.000 A 
ATOM      4  N   UNL     1       0.202   9.997  19.309  0.00  0.00    +0.000 NA
ATOM      5  C   UNL     1       0.453   9.720  20.576  0.00  0.00    +0.000 A 
ATOM      6  N   UNL     1       1.357   8.820  21.043  0.00  0.00    +0.000 N 
ATOM      7  N   UNL     1      -0.379  10.456  21.410  0.00  0.00    +0.000 N 
ATOM      8  C   UNL     1      -0.476  10.382  22.799  0.00  0.00    +0.000 C 
ATOM      9  O   UNL     1       0.293   9.687  23.449  0.00  0.00    +0.000 OA
ATOM     10  N   UNL     1      -1.512  11.109  23.317  0.00  0.00    +0.000 N 
ATOM     11  C   UNL     1      -2.283  12.173  22.652  0.00  0.00    +0.000 C 
ATOM     12  H   UNL     1       1.571   8.785  22.039  0.00  0.00    +0.000 HD
ATOM     13  H   UNL     1      -1.569  11.077  24.329  0.00  0.00    +0.000 HD
ENDROOT
BRANCH   6  14
ATOM     14  C   UNL     1       1.722   7.659  20.329  0.00  0.00    +0.000 A 
ATOM     15  C   UNL     1       2.285   7.772  19.054  0.00  0.00    +0.000 A 
ATOM     16  C   UNL     1       2.562   6.630  18.291  0.00  0.00    +0.000 A 
ATOM     17  C   UNL     1       2.295   5.347  18.792  0.00  0.00    +0.000 A 
ATOM     18  C   UNL     1       2.578   4.135  17.953  0.00  0.00    +0.000 C 
ATOM     19  C   UNL     1       1.748   5.232  20.075  0.00  0.00    +0.000 A 
ATOM     20 CL   UNL     1       1.392   3.695  20.782  0.00  0.00    +0.000 Cl
ATOM     21  C   UNL     1       1.463   6.374  20.825  0.00  0.00    +0.000 A 
ENDBRANCH   6  14
BRANCH  11  22
ATOM     22  C   UNL     1      -2.050  13.483  23.381  0.00  0.00    +0.000 A 
ATOM     23  C   UNL     1      -0.811  14.129  23.317  0.00  0.00    +0.000 A 
ATOM     24  C   UNL     1      -0.593  15.329  23.991  0.00  0.00    +0.000 A 
ATOM     25  C   UNL     1      -1.610  15.940  24.736  0.00  0.00    +0.000 A 
ATOM     26  C   UNL     1      -2.856  15.288  24.789  0.00  0.00    +0.000 A 
ATOM     27  C   UNL     1      -3.079  14.082  24.116  0.00  0.00    +0.000 A 
BRANCH  25  28
ATOM     28  C   UNL     1      -1.404  17.295  25.430  0.00  0.00    +0.000 C 
ATOM     29  C   UNL     1      -2.721  18.081  25.632  0.00  0.00    +0.000 C 
ATOM     30  C   UNL     1      -0.791  17.055  26.825  0.00  0.00    +0.000 C 
ATOM     31  C   UNL     1      -0.459  18.187  24.600  0.00  0.00    +0.000 C 
ENDBRANCH  25  28
ENDBRANCH  11  22
BRANCH   1  32
ATOM     32  C   UNL     1      -1.864  13.586  20.531  0.00  0.00    +0.000 C 
ATOM     33  O   UNL     1      -0.750  13.930  20.153  0.00  0.00    +0.000 OA
BRANCH  32  34
ATOM     34  O   UNL     1      -2.970  14.383  20.544  0.00  0.00    +0.000 OA
BRANCH  34  36
ATOM     35  C   UNL     1      -3.804  16.461  21.417  0.00  0.00    +0.000 C 
ATOM     36  C   UNL     1      -2.733  15.796  20.576  0.00  0.00    +0.000 C 
ENDBRANCH  34  36
ENDBRANCH  32  34
ENDBRANCH   1  32
TORSDOF 6
ENDMDL
MODEL 7
REMARK VINA RESULT:      -7.1      1.629      2.502
REMARK  Name = 
REMARK  11 active torsions:
REMARK  status: ('A' for Active; 'I' for Inactive)
REMARK    1  A    between atoms: C_1  and  C_2
REMARK    2  A    between atoms: C_2  and  O_3
REMARK    3  A    between atoms: O_3  and  C_4
REMARK    4  A    between atoms: C_4  and  C_6
REMARK    5  A    between atoms: N_11  and  C_12
REMARK    6  A    between atoms: C_15  and  C_16
REMARK    7  A    between atoms: C_24  and  C_25
REMARK    8  A    between atoms: C_28  and  C_29
REMARK    9  A    between atoms: C_29  and  C_30
REMARK   10  A    between atoms: C_29  and  C_31
REMARK   11  A    between atoms: C_29  and  C_32
REMARK                            x       y       z     vdW  Elec       q    Type
REMARK                         _______ _______ _______ _____ _____    ______ ____
ROOT
ATOM      1  C   UNL     1       1.071  10.422  19.628  0.00  0.00    +0.000 C 
ATOM      2  C   UNL     1      -0.061  11.198  20.211  0.00  0.00    +0.000 A 
ATOM      3  C   UNL     1      -0.867  12.177  19.684  0.00  0.00    +0.000 A 
ATOM      4  N   UNL     1      -1.798  12.562  20.588  0.00  0.00    +0.000 NA
ATOM      5  C   UNL     1      -1.588  11.849  21.680  0.00  0.00    +0.000 A 
ATOM      6  N   UNL     1      -2.279  11.935  22.847  0.00  0.00    +0.000 N 
ATOM      7  N   UNL     1      -0.509  10.993  21.504  0.00  0.00    +0.000 N 
ATOM      8  C   UNL     1       0.071  10.145  22.447  0.00  0.00    +0.000 C 
ATOM      9  O   UNL     1      -0.426  10.001  23.556  0.00  0.00    +0.000 OA
ATOM     10  N   UNL     1       1.230   9.558  22.020  0.00  0.00    +0.000 N 
ATOM     11  C   UNL     1       1.728   9.455  20.638  0.00  0.00    +0.000 C 
ATOM     12  H   UNL     1      -2.128  11.242  23.578  0.00  0.00    +0.000 HD
ATOM     13  H   UNL     1       1.640   8.923  22.695  0.00  0.00    +0.000 HD
ENDROOT
BRANCH   6  14
ATOM     14  C   UNL     1      -2.883  13.129  23.293  0.00  0.00    +0.000 A 
ATOM     15  C   UNL     1      -2.098  14.142  23.851  0.00  0.00    +0.000 A 
ATOM     16  C   UNL     1      -2.693  15.292  24.389  0.00  0.00    +0.000 A 
ATOM     17  C   UNL     1      -4.086  15.461  24.368  0.00  0.00    +0.000 A 
ATOM     18  C   UNL     1      -4.706  16.689  24.967  0.00  0.00    +0.000 C 
ATOM     19  C   UNL     1      -4.870  14.455  23.794  0.00  0.00    +0.000 A 
ATOM     20 CL   UNL     1      -6.593  14.575  23.713  0.00  0.00    +0.000 Cl
ATOM     21  C   UNL     1      -4.274  13.307  23.271  0.00  0.00    +0.000 A 
ENDBRANCH   6  14
BRANCH  11  22
ATOM     22  C   UNL     1       1.780   7.992  20.239  0.00  0.00    +0.000 A 
ATOM     23  C   UNL     1       2.485   7.583  19.102  0.00  0.00    +0.000 A 
ATOM     24  C   UNL     1       2.528   6.241  18.729  0.00  0.00    +0.000 A 
ATOM     25  C   UNL     1       1.888   5.254  19.490  0.00  0.00    +0.000 A 
ATOM     26  C   UNL     1       1.188   5.673  20.637  0.00  0.00    +0.000 A 
ATOM     27  C   UNL     1       1.140   7.019  21.013  0.00  0.00    +0.000 A 
BRANCH  25  28
ATOM     28  C   UNL     1       1.982   3.764  19.129  0.00  0.00    +0.000 C 
ATOM     29  C   UNL     1       0.752   2.948  19.591  0.00  0.00    +0.000 C 
ATOM     30  C   UNL     1       2.079   3.626  17.596  0.00  0.00    +0.000 C 
ATOM     31  C   UNL     1       3.227   3.129  19.782  0.00  0.00    +0.000 C 
ENDBRANCH  25  28
ENDBRANCH  11  22
BRANCH   1  32
ATOM     32  C   UNL     1       0.602   9.767  18.335  0.00  0.00    +0.000 C 
ATOM     33  O   UNL     1       1.334   9.591  17.368  0.00  0.00    +0.000 OA
BRANCH  32  34
ATOM     34  O   UNL     1      -0.726   9.464  18.380  0.00  0.00    +0.000 OA
BRANCH  34  36
ATOM     35  C   UNL     1      -2.961   9.800  17.566  0.00  0.00    +0.000 C 
ATOM     36  C   UNL     1      -1.488   9.782  17.210  0.00  0.00    +0.000 C 
ENDBRANCH  34  36
ENDBRANCH  32  34
ENDBRANCH   1  32
TORSDOF 6
ENDMDL
MODEL 8
REMARK VINA RESULT:      -7.0      3.736      9.636
REMARK  Name = 
REMARK  11 active torsions:
REMARK  status: ('A' for Active; 'I' for Inactive)
REMARK    1  A    between atoms: C_1  and  C_2
REMARK    2  A    between atoms: C_2  and  O_3
REMARK    3  A    between atoms: O_3  and  C_4
REMARK    4  A    between atoms: C_4  and  C_6
REMARK    5  A    between atoms: N_11  and  C_12
REMARK    6  A    between atoms: C_15  and  C_16
REMARK    7  A    between atoms: C_24  and  C_25
REMARK    8  A    between atoms: C_28  and  C_29
REMARK    9  A    between atoms: C_29  and  C_30
REMARK   10  A    between atoms: C_29  and  C_31
REMARK   11  A    between atoms: C_29  and  C_32
REMARK                            x       y       z     vdW  Elec       q    Type
REMARK                         _______ _______ _______ _____ _____    ______ ____
ROOT
ATOM      1  C   UNL     1      -0.070  11.337  18.912  0.00  0.00    +0.000 C 
ATOM      2  C   UNL     1       0.802  10.128  18.944  0.00  0.00    +0.000 A 
ATOM      3  C   UNL     1       1.804   9.700  18.110  0.00  0.00    +0.000 A 
ATOM      4  N   UNL     1       2.346   8.549  18.571  0.00  0.00    +0.000 NA
ATOM      5  C   UNL     1       1.697   8.238  19.679  0.00  0.00    +0.000 A 
ATOM      6  N   UNL     1       1.899   7.140  20.454  0.00  0.00    +0.000 N 
ATOM      7  N   UNL     1       0.715   9.182  19.950  0.00  0.00    +0.000 N 
ATOM      8  C   UNL     1      -0.228   9.162  20.977  0.00  0.00    +0.000 C 
ATOM      9  O   UNL     1      -0.196   8.300  21.846  0.00  0.00    +0.000 OA
ATOM     10  N   UNL     1      -1.173  10.145  20.876  0.00  0.00    +0.000 N 
ATOM     11  C   UNL     1      -1.117  11.362  20.048  0.00  0.00    +0.000 C 
ATOM     12  H   UNL     1       1.442   7.069  21.362  0.00  0.00    +0.000 HD
ATOM     13  H   UNL     1      -1.845  10.147  21.635  0.00  0.00    +0.000 HD
ENDROOT
BRANCH   6  14
ATOM     14  C   UNL     1       2.361   5.911  19.936  0.00  0.00    +0.000 A 
ATOM     15  C   UNL     1       3.705   5.767  19.578  0.00  0.00    +0.000 A 
ATOM     16  C   UNL     1       4.159   4.587  18.972  0.00  0.00    +0.000 A 
ATOM     17  C   UNL     1       3.282   3.521  18.722  0.00  0.00    +0.000 A 
ATOM     18  C   UNL     1       3.781   2.274  18.052  0.00  0.00    +0.000 C 
ATOM     19  C   UNL     1       1.941   3.659  19.096  0.00  0.00    +0.000 A 
ATOM     20 CL   UNL     1       0.786   2.399  18.838  0.00  0.00    +0.000 Cl
ATOM     21  C   UNL     1       1.492   4.840  19.689  0.00  0.00    +0.000 A 
ENDBRANCH   6  14
BRANCH  11  22
ATOM     22  C   UNL     1      -1.102  12.577  20.956  0.00  0.00    +0.000 A 
ATOM     23  C   UNL     1      -0.651  12.481  22.277  0.00  0.00    +0.000 A 
ATOM     24  C   UNL     1      -0.643  13.595  23.114  0.00  0.00    +0.000 A 
ATOM     25  C   UNL     1      -1.063  14.851  22.658  0.00  0.00    +0.000 A 
ATOM     26  C   UNL     1      -1.508  14.941  21.326  0.00  0.00    +0.000 A 
ATOM     27  C   UNL     1      -1.520  13.826  20.483  0.00  0.00    +0.000 A 
BRANCH  25  28
ATOM     28  C   UNL     1      -0.998  16.100  23.549  0.00  0.00    +0.000 C 
ATOM     29  C   UNL     1      -2.084  17.146  23.210  0.00  0.00    +0.000 C 
ATOM     30  C   UNL     1      -1.205  15.679  25.018  0.00  0.00    +0.000 C 
ATOM     31  C   UNL     1       0.371  16.795  23.403  0.00  0.00    +0.000 C 
ENDBRANCH  25  28
ENDBRANCH  11  22
BRANCH   1  32
ATOM     32  C   UNL     1       0.812  12.577  18.834  0.00  0.00    +0.000 C 
ATOM     33  O   UNL     1       0.627  13.484  18.032  0.00  0.00    +0.000 OA
BRANCH  32  34
ATOM     34  O   UNL     1       1.844  12.512  19.722  0.00  0.00    +0.000 OA
BRANCH  34  36
ATOM     35  C   UNL     1       2.293  14.494  21.004  0.00  0.00    +0.000 C 
ATOM     36  C   UNL     1       2.688  13.667  19.797  0.00  0.00    +0.000 C 
ENDBRANCH  34  36
ENDBRANCH  32  34
ENDBRANCH   1  32
TORSDOF 6
ENDMDL
MODEL 9
REMARK VINA RESULT:      -7.0      3.476      9.411
REMARK  Name = 
REMARK  11 active torsions:
REMARK  status: ('A' for Active; 'I' for Inactive)
REMARK    1  A    between atoms: C_1  and  C_2
REMARK    2  A    between atoms: C_2  and  O_3
REMARK    3  A    between atoms: O_3  and  C_4
REMARK    4  A    between atoms: C_4  and  C_6
REMARK    5  A    between atoms: N_11  and  C_12
REMARK    6  A    between atoms: C_15  and  C_16
REMARK    7  A    between atoms: C_24  and  C_25
REMARK    8  A    between atoms: C_28  and  C_29
REMARK    9  A    between atoms: C_29  and  C_30
REMARK   10  A    between atoms: C_29  and  C_31
REMARK   11  A    between atoms: C_29  and  C_32
REMARK                            x       y       z     vdW  Elec       q    Type
REMARK                         _______ _______ _______ _____ _____    ______ ____
ROOT
ATOM      1  C   UNL     1      -2.207  12.149  21.110  0.00  0.00    +0.000 C 
ATOM      2  C   UNL     1      -1.204  11.185  20.573  0.00  0.00    +0.000 A 
ATOM      3  C   UNL     1      -0.852  10.851  19.289  0.00  0.00    +0.000 A 
ATOM      4  N   UNL     1       0.152   9.944  19.294  0.00  0.00    +0.000 NA
ATOM      5  C   UNL     1       0.435   9.693  20.559  0.00  0.00    +0.000 A 
ATOM      6  N   UNL     1       1.364   8.816  21.021  0.00  0.00    +0.000 N 
ATOM      7  N   UNL     1      -0.390  10.430  21.399  0.00  0.00    +0.000 N 
ATOM      8  C   UNL     1      -0.455  10.379  22.790  0.00  0.00    +0.000 C 
ATOM      9  O   UNL     1       0.339   9.708  23.435  0.00  0.00    +0.000 OA
ATOM     10  N   UNL     1      -1.492  11.098  23.319  0.00  0.00    +0.000 N 
ATOM     11  C   UNL     1      -2.295  12.137  22.653  0.00  0.00    +0.000 C 
ATOM     12  H   UNL     1       1.600   8.802  22.012  0.00  0.00    +0.000 HD
ATOM     13  H   UNL     1      -1.526  11.082  24.332  0.00  0.00    +0.000 HD
ENDROOT
BRANCH   6  14
ATOM     14  C   UNL     1       1.733   7.649  20.319  0.00  0.00    +0.000 A 
ATOM     15  C   UNL     1       2.304   7.751  19.047  0.00  0.00    +0.000 A 
ATOM     16  C   UNL     1       2.585   6.602  18.296  0.00  0.00    +0.000 A 
ATOM     17  C   UNL     1       2.313   5.323  18.805  0.00  0.00    +0.000 A 
ATOM     18  C   UNL     1       2.600   4.104  17.978  0.00  0.00    +0.000 C 
ATOM     19  C   UNL     1       1.758   5.220  20.086  0.00  0.00    +0.000 A 
ATOM     20 CL   UNL     1       1.396   3.689  20.803  0.00  0.00    +0.000 Cl
ATOM     21  C   UNL     1       1.469   6.368  20.824  0.00  0.00    +0.000 A 
ENDBRANCH   6  14
BRANCH  11  22
ATOM     22  C   UNL     1      -2.068  13.463  23.354  0.00  0.00    +0.000 A 
ATOM     23  C   UNL     1      -3.105  14.093  24.052  0.00  0.00    +0.000 A 
ATOM     24  C   UNL     1      -2.900  15.314  24.691  0.00  0.00    +0.000 A 
ATOM     25  C   UNL     1      -1.648  15.943  24.675  0.00  0.00    +0.000 A 
ATOM     26  C   UNL     1      -0.609  15.299  23.978  0.00  0.00    +0.000 A 
ATOM     27  C   UNL     1      -0.810  14.075  23.333  0.00  0.00    +0.000 A 
BRANCH  25  28
ATOM     28  C   UNL     1      -1.390  17.256  25.429  0.00  0.00    +0.000 C 
ATOM     29  C   UNL     1      -0.411  18.198  24.692  0.00  0.00    +0.000 C 
ATOM     30  C   UNL     1      -2.726  18.011  25.590  0.00  0.00    +0.000 C 
ATOM     31  C   UNL     1      -0.792  16.969  26.822  0.00  0.00    +0.000 C 
ENDBRANCH  25  28
ENDBRANCH  11  22
BRANCH   1  32
ATOM     32  C   UNL     1      -1.947  13.520  20.500  0.00  0.00    +0.000 C 
ATOM     33  O   UNL     1      -2.817  14.372  20.364  0.00  0.00    +0.000 OA
BRANCH  32  34
ATOM     34  O   UNL     1      -0.655  13.644  20.083  0.00  0.00    +0.000 OA
BRANCH  34  36
ATOM     35  C   UNL     1       0.934  15.263  19.288  0.00  0.00    +0.000 C 
ATOM     36  C   UNL     1      -0.412  14.608  19.051  0.00  0.00    +0.000 C 
ENDBRANCH  34  36
ENDBRANCH  32  34
ENDBRANCH   1  32
TORSDOF 6
ENDMDL
