MODEL 1
REMARK VINA RESULT:      -7.8      0.000      0.000
REMARK  Name = 
REMARK  5 active torsions:
REMARK  status: ('A' for Active; 'I' for Inactive)
REMARK    1  A    between atoms: C_1  and  C_2
REMARK    2  A    between atoms: C_2  and  C_3
REMARK    3  A    between atoms: C_2  and  C_4
REMARK    4  A    between atoms: C_2  and  C_5
REMARK    5  A    between atoms: C_8  and  C_9
REMARK                            x       y       z     vdW  Elec       q    Type
REMARK                         _______ _______ _______ _____ _____    ______ ____
ROOT
ATOM      1  C   UNL     1       1.361   8.345  20.314  0.00  0.00    +0.000 A 
ATOM      2  N   UNL     1       0.753   8.433  21.452  0.00  0.00    +0.000 NA
ATOM      3  C   UNL     1       0.106   9.636  21.723  0.00  0.00    +0.000 A 
ATOM      4  C   UNL     1      -0.567   9.798  22.938  0.00  0.00    +0.000 A 
ATOM      5  C   UNL     1      -1.246  10.987  23.215  0.00  0.00    +0.000 A 
ATOM      6  C   UNL     1      -1.261  12.020  22.277  0.00  0.00    +0.000 A 
ATOM      7  C   UNL     1      -0.597  11.862  21.063  0.00  0.00    +0.000 A 
ATOM      8  C   UNL     1       0.079  10.667  20.800  0.00  0.00    +0.000 A 
ATOM      9  C   UNL     1       0.764  10.456  19.524  0.00  0.00    +0.000 A 
ATOM     10  O   UNL     1       0.703  11.290  18.627  0.00  0.00    +0.000 OA
ATOM     11  O   UNL     1       1.466   9.314  19.381  0.00  0.00    +0.000 OA
ENDROOT
BRANCH   1  15
ATOM     12  C   UNL     1       3.002   4.676  18.771  0.00  0.00    +0.000 A 
ATOM     13  C   UNL     1       3.142   5.880  18.064  0.00  0.00    +0.000 A 
ATOM     14  C   UNL     1       2.654   7.080  18.583  0.00  0.00    +0.000 A 
ATOM     15  C   UNL     1       2.005   7.108  19.823  0.00  0.00    +0.000 A 
ATOM     16  C   UNL     1       1.870   5.926  20.549  0.00  0.00    +0.000 A 
ATOM     17  C   UNL     1       2.361   4.727  20.025  0.00  0.00    +0.000 A 
BRANCH  12  19
ATOM     18  C   UNL     1       2.436   2.399  17.692  0.00  0.00    +0.000 C 
ATOM     19  C   UNL     1       3.538   3.341  18.230  0.00  0.00    +0.000 C 
ATOM     20  C   UNL     1       4.284   2.579  19.345  0.00  0.00    +0.000 C 
ATOM     21  C   UNL     1       4.506   3.631  17.065  0.00  0.00    +0.000 C 
ENDBRANCH  12  19
ENDBRANCH   1  15
TORSDOF 2
ENDMDL
MODEL 2
REMARK VINA RESULT:      -7.8      7.092      9.925
REMARK  Name = 
REMARK  5 active torsions:
REMARK  status: ('A' for Active; 'I' for Inactive)
REMARK    1  A    between atoms: C_1  and  C_2
REMARK    2  A    between atoms: C_2  and  C_3
REMARK    3  A    between atoms: C_2  and  C_4
REMARK    4  A    between atoms: C_2  and  C_5
REMARK    5  A    between atoms: C_8  and  C_9
REMARK                            x       y       z     vdW  Elec       q    Type
REMARK                         _______ _______ _______ _____ _____    ______ ____
ROOT
ATOM      1  C   UNL     1       7.941   8.310  18.023  0.00  0.00    +0.000 A 
ATOM      2  N   UNL     1       7.051   8.112  17.107  0.00  0.00    +0.000 NA
ATOM      3  C   UNL     1       6.543   6.820  16.997  0.00  0.00    +0.000 A 
ATOM      4  C   UNL     1       5.580   6.538  16.022  0.00  0.00    +0.000 A 
ATOM      5  C   UNL     1       5.039   5.255  15.917  0.00  0.00    +0.000 A 
ATOM      6  C   UNL     1       5.453   4.246  16.787  0.00  0.00    +0.000 A 
ATOM      7  C   UNL     1       6.409   4.522  17.762  0.00  0.00    +0.000 A 
ATOM      8  C   UNL     1       6.942   5.811  17.856  0.00  0.00    +0.000 A 
ATOM      9  C   UNL     1       7.927   6.144  18.886  0.00  0.00    +0.000 A 
ATOM     10  O   UNL     1       8.255   5.324  19.737  0.00  0.00    +0.000 OA
ATOM     11  O   UNL     1       8.458   7.383  18.856  0.00  0.00    +0.000 OA
ENDROOT
BRANCH   1  15
ATOM     12  C   UNL     1       9.793  12.115  18.820  0.00  0.00    +0.000 A 
ATOM     13  C   UNL     1       8.878  11.966  17.766  0.00  0.00    +0.000 A 
ATOM     14  C   UNL     1       8.239  10.747  17.534  0.00  0.00    +0.000 A 
ATOM     15  C   UNL     1       8.504   9.639  18.346  0.00  0.00    +0.000 A 
ATOM     16  C   UNL     1       9.397   9.769  19.409  0.00  0.00    +0.000 A 
ATOM     17  C   UNL     1      10.033  10.992  19.638  0.00  0.00    +0.000 A 
BRANCH  12  19
ATOM     18  C   UNL     1       9.982  14.627  18.256  0.00  0.00    +0.000 C 
ATOM     19  C   UNL     1      10.504  13.446  19.107  0.00  0.00    +0.000 C 
ATOM     20  C   UNL     1      12.014  13.312  18.821  0.00  0.00    +0.000 C 
ATOM     21  C   UNL     1      10.288  13.814  20.589  0.00  0.00    +0.000 C 
ENDBRANCH  12  19
ENDBRANCH   1  15
TORSDOF 2
ENDMDL
MODEL 3
REMARK VINA RESULT:      -7.8      6.924      9.871
REMARK  Name = 
REMARK  5 active torsions:
REMARK  status: ('A' for Active; 'I' for Inactive)
REMARK    1  A    between atoms: C_1  and  C_2
REMARK    2  A    between atoms: C_2  and  C_3
REMARK    3  A    between atoms: C_2  and  C_4
REMARK    4  A    between atoms: C_2  and  C_5
REMARK    5  A    between atoms: C_8  and  C_9
REMARK                            x       y       z     vdW  Elec       q    Type
REMARK                         _______ _______ _______ _____ _____    ______ ____
ROOT
ATOM      1  C   UNL     1       7.929   8.256  17.992  0.00  0.00    +0.000 A 
ATOM      2  N   UNL     1       7.011   8.047  17.106  0.00  0.00    +0.000 NA
ATOM      3  C   UNL     1       6.477   6.762  17.050  0.00  0.00    +0.000 A 
ATOM      4  C   UNL     1       5.484   6.468  16.111  0.00  0.00    +0.000 A 
ATOM      5  C   UNL     1       4.917   5.193  16.060  0.00  0.00    +0.000 A 
ATOM      6  C   UNL     1       5.335   4.203  16.950  0.00  0.00    +0.000 A 
ATOM      7  C   UNL     1       6.321   4.492  17.892  0.00  0.00    +0.000 A 
ATOM      8  C   UNL     1       6.880   5.772  17.930  0.00  0.00    +0.000 A 
ATOM      9  C   UNL     1       7.898   6.118  18.923  0.00  0.00    +0.000 A 
ATOM     10  O   UNL     1       8.234   5.320  19.791  0.00  0.00    +0.000 OA
ATOM     11  O   UNL     1       8.450   7.346  18.841  0.00  0.00    +0.000 OA
ENDROOT
BRANCH   1  15
ATOM     12  C   UNL     1       9.442  12.182  18.908  0.00  0.00    +0.000 A 
ATOM     13  C   UNL     1       9.792  11.074  19.694  0.00  0.00    +0.000 A 
ATOM     14  C   UNL     1       9.343   9.792  19.374  0.00  0.00    +0.000 A 
ATOM     15  C   UNL     1       8.524   9.584  18.259  0.00  0.00    +0.000 A 
ATOM     16  C   UNL     1       8.178  10.667  17.453  0.00  0.00    +0.000 A 
ATOM     17  C   UNL     1       8.631  11.949  17.778  0.00  0.00    +0.000 A 
BRANCH  12  19
ATOM     18  C   UNL     1       8.791  14.585  19.590  0.00  0.00    +0.000 C 
ATOM     19  C   UNL     1       9.929  13.603  19.229  0.00  0.00    +0.000 C 
ATOM     20  C   UNL     1      10.675  14.195  18.015  0.00  0.00    +0.000 C 
ATOM     21  C   UNL     1      10.882  13.537  20.440  0.00  0.00    +0.000 C 
ENDBRANCH  12  19
ENDBRANCH   1  15
TORSDOF 2
ENDMDL
MODEL 4
REMARK VINA RESULT:      -7.7      1.645      2.448
REMARK  Name = 
REMARK  5 active torsions:
REMARK  status: ('A' for Active; 'I' for Inactive)
REMARK    1  A    between atoms: C_1  and  C_2
REMARK    2  A    between atoms: C_2  and  C_3
REMARK    3  A    between atoms: C_2  and  C_4
REMARK    4  A    between atoms: C_2  and  C_5
REMARK    5  A    between atoms: C_8  and  C_9
REMARK                            x       y       z     vdW  Elec       q    Type
REMARK                         _______ _______ _______ _____ _____    ______ ____
ROOT
ATOM      1  C   UNL     1       0.867   8.884  20.545  0.00  0.00    +0.000 A 
ATOM      2  N   UNL     1       0.177   9.782  19.921  0.00  0.00    +0.000 NA
ATOM      3  C   UNL     1      -0.548  10.672  20.709  0.00  0.00    +0.000 A 
ATOM      4  C   UNL     1      -1.319  11.665  20.097  0.00  0.00    +0.000 A 
ATOM      5  C   UNL     1      -2.029  12.584  20.871  0.00  0.00    +0.000 A 
ATOM      6  C   UNL     1      -1.971  12.520  22.264  0.00  0.00    +0.000 A 
ATOM      7  C   UNL     1      -1.201  11.536  22.880  0.00  0.00    +0.000 A 
ATOM      8  C   UNL     1      -0.495  10.623  22.091  0.00  0.00    +0.000 A 
ATOM      9  C   UNL     1       0.345   9.593  22.704  0.00  0.00    +0.000 A 
ATOM     10  O   UNL     1       0.511   9.550  23.918  0.00  0.00    +0.000 OA
ATOM     11  O   UNL     1       0.924   8.696  21.880  0.00  0.00    +0.000 OA
ENDROOT
BRANCH   1  15
ATOM     12  C   UNL     1       3.297   5.994  18.473  0.00  0.00    +0.000 A 
ATOM     13  C   UNL     1       3.034   7.252  17.909  0.00  0.00    +0.000 A 
ATOM     14  C   UNL     1       2.288   8.209  18.597  0.00  0.00    +0.000 A 
ATOM     15  C   UNL     1       1.775   7.932  19.869  0.00  0.00    +0.000 A 
ATOM     16  C   UNL     1       2.038   6.695  20.456  0.00  0.00    +0.000 A 
ATOM     17  C   UNL     1       2.787   5.740  19.763  0.00  0.00    +0.000 A 
BRANCH  12  19
ATOM     18  C   UNL     1       5.211   4.269  18.627  0.00  0.00    +0.000 C 
ATOM     19  C   UNL     1       4.123   4.924  17.745  0.00  0.00    +0.000 C 
ATOM     20  C   UNL     1       4.838   5.545  16.527  0.00  0.00    +0.000 C 
ATOM     21  C   UNL     1       3.176   3.803  17.272  0.00  0.00    +0.000 C 
ENDBRANCH  12  19
ENDBRANCH   1  15
TORSDOF 2
ENDMDL
MODEL 5
REMARK VINA RESULT:      -7.7      1.761      2.805
REMARK  Name = 
REMARK  5 active torsions:
REMARK  status: ('A' for Active; 'I' for Inactive)
REMARK    1  A    between atoms: C_1  and  C_2
REMARK    2  A    between atoms: C_2  and  C_3
REMARK    3  A    between atoms: C_2  and  C_4
REMARK    4  A    between atoms: C_2  and  C_5
REMARK    5  A    between atoms: C_8  and  C_9
REMARK                            x       y       z     vdW  Elec       q    Type
REMARK                         _______ _______ _______ _____ _____    ______ ____
ROOT
ATOM      1  C   UNL     1       0.786   9.028  20.380  0.00  0.00    +0.000 A 
ATOM      2  N   UNL     1       0.058   9.944  19.831  0.00  0.00    +0.000 NA
ATOM      3  C   UNL     1      -0.632  10.794  20.691  0.00  0.00    +0.000 A 
ATOM      4  C   UNL     1      -1.441  11.804  20.161  0.00  0.00    +0.000 A 
ATOM      5  C   UNL     1      -2.117  12.684  21.009  0.00  0.00    +0.000 A 
ATOM      6  C   UNL     1      -1.986  12.563  22.394  0.00  0.00    +0.000 A 
ATOM      7  C   UNL     1      -1.177  11.562  22.927  0.00  0.00    +0.000 A 
ATOM      8  C   UNL     1      -0.507  10.689  22.066  0.00  0.00    +0.000 A 
ATOM      9  C   UNL     1       0.372   9.643  22.591  0.00  0.00    +0.000 A 
ATOM     10  O   UNL     1       0.601   9.551  23.792  0.00  0.00    +0.000 OA
ATOM     11  O   UNL     1       0.914   8.786  21.701  0.00  0.00    +0.000 OA
ENDROOT
BRANCH   1  15
ATOM     12  C   UNL     1       3.554   6.500  18.261  0.00  0.00    +0.000 A 
ATOM     13  C   UNL     1       3.053   6.126  19.517  0.00  0.00    +0.000 A 
ATOM     14  C   UNL     1       2.119   6.918  20.186  0.00  0.00    +0.000 A 
ATOM     15  C   UNL     1       1.665   8.114  19.619  0.00  0.00    +0.000 A 
ATOM     16  C   UNL     1       2.136   8.497  18.364  0.00  0.00    +0.000 A 
ATOM     17  C   UNL     1       3.071   7.699  17.698  0.00  0.00    +0.000 A 
BRANCH  12  19
ATOM     18  C   UNL     1       5.096   6.305  16.199  0.00  0.00    +0.000 C 
ATOM     19  C   UNL     1       4.574   5.644  17.496  0.00  0.00    +0.000 C 
ATOM     20  C   UNL     1       3.941   4.295  17.096  0.00  0.00    +0.000 C 
ATOM     21  C   UNL     1       5.793   5.393  18.408  0.00  0.00    +0.000 C 
ENDBRANCH  12  19
ENDBRANCH   1  15
TORSDOF 2
ENDMDL
MODEL 6
REMARK VINA RESULT:      -7.7      2.445      7.876
REMARK  Name = 
REMARK  5 active torsions:
REMARK  status: ('A' for Active; 'I' for Inactive)
REMARK    1  A    between atoms: C_1  and  C_2
REMARK    2  A    between atoms: C_2  and  C_3
REMARK    3  A    between atoms: C_2  and  C_4
REMARK    4  A    between atoms: C_2  and  C_5
REMARK    5  A    between atoms: C_8  and  C_9
REMARK                            x       y       z     vdW  Elec       q    Type
REMARK                         _______ _______ _______ _____ _____    ______ ____
ROOT
ATOM      1  C   UNL     1       3.009   6.844  18.177  0.00  0.00    +0.000 A 
ATOM      2  N   UNL     1       4.030   7.102  17.427  0.00  0.00    +0.000 NA
ATOM      3  C   UNL     1       4.671   6.010  16.847  0.00  0.00    +0.000 A 
ATOM      4  C   UNL     1       5.785   6.220  16.028  0.00  0.00    +0.000 A 
ATOM      5  C   UNL     1       6.423   5.139  15.415  0.00  0.00    +0.000 A 
ATOM      6  C   UNL     1       5.949   3.841  15.612  0.00  0.00    +0.000 A 
ATOM      7  C   UNL     1       4.836   3.627  16.423  0.00  0.00    +0.000 A 
ATOM      8  C   UNL     1       4.209   4.719  17.031  0.00  0.00    +0.000 A 
ATOM      9  C   UNL     1       3.022   4.533  17.867  0.00  0.00    +0.000 A 
ATOM     10  O   UNL     1       2.505   3.429  17.997  0.00  0.00    +0.000 OA
ATOM     11  O   UNL     1       2.526   5.623  18.487  0.00  0.00    +0.000 OA
ENDROOT
BRANCH   1  15
ATOM     12  C   UNL     1       0.733  10.001  20.020  0.00  0.00    +0.000 A 
ATOM     13  C   UNL     1       1.073  10.058  18.659  0.00  0.00    +0.000 A 
ATOM     14  C   UNL     1       1.769   9.015  18.046  0.00  0.00    +0.000 A 
ATOM     15  C   UNL     1       2.151   7.887  18.780  0.00  0.00    +0.000 A 
ATOM     16  C   UNL     1       1.809   7.802  20.129  0.00  0.00    +0.000 A 
ATOM     17  C   UNL     1       1.111   8.848  20.738  0.00  0.00    +0.000 A 
BRANCH  12  19
ATOM     18  C   UNL     1      -0.502  10.772  22.152  0.00  0.00    +0.000 C 
ATOM     19  C   UNL     1      -0.041  11.128  20.719  0.00  0.00    +0.000 C 
ATOM     20  C   UNL     1      -1.306  11.485  19.910  0.00  0.00    +0.000 C 
ATOM     21  C   UNL     1       0.873  12.366  20.823  0.00  0.00    +0.000 C 
ENDBRANCH  12  19
ENDBRANCH   1  15
TORSDOF 2
ENDMDL
MODEL 7
REMARK VINA RESULT:      -7.6      1.070      1.906
REMARK  Name = 
REMARK  5 active torsions:
REMARK  status: ('A' for Active; 'I' for Inactive)
REMARK    1  A    between atoms: C_1  and  C_2
REMARK    2  A    between atoms: C_2  and  C_3
REMARK    3  A    between atoms: C_2  and  C_4
REMARK    4  A    between atoms: C_2  and  C_5
REMARK    5  A    between atoms: C_8  and  C_9
REMARK                            x       y       z     vdW  Elec       q    Type
REMARK                         _______ _______ _______ _____ _____    ______ ____
ROOT
ATOM      1  C   UNL     1       1.452   8.760  19.766  0.00  0.00    +0.000 A 
ATOM      2  N   UNL     1       1.061   8.658  20.994  0.00  0.00    +0.000 NA
ATOM      3  C   UNL     1       0.216   9.659  21.466  0.00  0.00    +0.000 A 
ATOM      4  C   UNL     1      -0.239   9.612  22.788  0.00  0.00    +0.000 A 
ATOM      5  C   UNL     1      -1.109  10.591  23.270  0.00  0.00    +0.000 A 
ATOM      6  C   UNL     1      -1.535  11.624  22.433  0.00  0.00    +0.000 A 
ATOM      7  C   UNL     1      -1.088  11.674  21.114  0.00  0.00    +0.000 A 
ATOM      8  C   UNL     1      -0.217  10.686  20.646  0.00  0.00    +0.000 A 
ATOM      9  C   UNL     1       0.251  10.693  19.259  0.00  0.00    +0.000 A 
ATOM     10  O   UNL     1      -0.166  11.518  18.454  0.00  0.00    +0.000 OA
ATOM     11  O   UNL     1       1.157   9.758  18.908  0.00  0.00    +0.000 OA
ENDROOT
BRANCH   1  15
ATOM     12  C   UNL     1       4.021   5.867  17.875  0.00  0.00    +0.000 A 
ATOM     13  C   UNL     1       3.345   5.561  19.066  0.00  0.00    +0.000 A 
ATOM     14  C   UNL     1       2.475   6.477  19.657  0.00  0.00    +0.000 A 
ATOM     15  C   UNL     1       2.260   7.731  19.075  0.00  0.00    +0.000 A 
ATOM     16  C   UNL     1       2.908   8.051  17.883  0.00  0.00    +0.000 A 
ATOM     17  C   UNL     1       3.778   7.129  17.295  0.00  0.00    +0.000 A 
BRANCH  12  19
ATOM     18  C   UNL     1       5.410   5.301  15.774  0.00  0.00    +0.000 C 
ATOM     19  C   UNL     1       4.977   4.875  17.196  0.00  0.00    +0.000 C 
ATOM     20  C   UNL     1       4.305   3.492  17.071  0.00  0.00    +0.000 C 
ATOM     21  C   UNL     1       6.255   4.755  18.050  0.00  0.00    +0.000 C 
ENDBRANCH  12  19
ENDBRANCH   1  15
TORSDOF 2
ENDMDL
MODEL 8
REMARK VINA RESULT:      -7.5      2.414      7.942
REMARK  Name = 
REMARK  5 active torsions:
REMARK  status: ('A' for Active; 'I' for Inactive)
REMARK    1  A    between atoms: C_1  and  C_2
REMARK    2  A    between atoms: C_2  and  C_3
REMARK    3  A    between atoms: C_2  and  C_4
REMARK    4  A    between atoms: C_2  and  C_5
REMARK    5  A    between atoms: C_8  and  C_9
REMARK                            x       y       z     vdW  Elec       q    Type
REMARK                         _______ _______ _______ _____ _____    ______ ____
ROOT
ATOM      1  C   UNL     1       3.026   6.991  18.149  0.00  0.00    +0.000 A 
ATOM      2  N   UNL     1       4.132   7.147  17.499  0.00  0.00    +0.000 NA
ATOM      3  C   UNL     1       4.687   6.006  16.926  0.00  0.00    +0.000 A 
ATOM      4  C   UNL     1       5.886   6.105  16.212  0.00  0.00    +0.000 A 
ATOM      5  C   UNL     1       6.442   4.977  15.607  0.00  0.00    +0.000 A 
ATOM      6  C   UNL     1       5.801   3.741  15.706  0.00  0.00    +0.000 A 
ATOM      7  C   UNL     1       4.604   3.637  16.412  0.00  0.00    +0.000 A 
ATOM      8  C   UNL     1       4.060   4.775  17.013  0.00  0.00    +0.000 A 
ATOM      9  C   UNL     1       2.790   4.708  17.738  0.00  0.00    +0.000 A 
ATOM     10  O   UNL     1       2.136   3.672  17.775  0.00  0.00    +0.000 OA
ATOM     11  O   UNL     1       2.375   5.829  18.363  0.00  0.00    +0.000 OA
ENDROOT
BRANCH   1  15
ATOM     12  C   UNL     1       0.542  10.130  19.737  0.00  0.00    +0.000 A 
ATOM     13  C   UNL     1       0.943   9.052  20.541  0.00  0.00    +0.000 A 
ATOM     14  C   UNL     1       1.787   8.058  20.046  0.00  0.00    +0.000 A 
ATOM     15  C   UNL     1       2.249   8.110  18.725  0.00  0.00    +0.000 A 
ATOM     16  C   UNL     1       1.876   9.180  17.913  0.00  0.00    +0.000 A 
ATOM     17  C   UNL     1       1.031  10.174  18.415  0.00  0.00    +0.000 A 
BRANCH  12  19
ATOM     18  C   UNL     1      -0.856  11.029  21.712  0.00  0.00    +0.000 C 
ATOM     19  C   UNL     1      -0.378  11.244  20.258  0.00  0.00    +0.000 C 
ATOM     20  C   UNL     1      -1.639  11.347  19.374  0.00  0.00    +0.000 C 
ATOM     21  C   UNL     1       0.391  12.581  20.217  0.00  0.00    +0.000 C 
ENDBRANCH  12  19
ENDBRANCH   1  15
TORSDOF 2
ENDMDL
