MODEL 1
REMARK VINA RESULT:      -8.0      0.000      0.000
REMARK  Name = 
REMARK  7 active torsions:
REMARK  status: ('A' for Active; 'I' for Inactive)
REMARK    1  A    between atoms: C_1  and  C_2
REMARK    2  A    between atoms: C_2  and  O_3
REMARK    3  A    between atoms: O_3  and  C_4
REMARK    4  A    between atoms: C_4  and  C_6
REMARK    5  A    between atoms: C_9  and  N_10
REMARK    6  A    between atoms: N_10  and  C_11
REMARK    7  A    between atoms: C_11  and  C_12
REMARK                            x       y       z     vdW  Elec       q    Type
REMARK                         _______ _______ _______ _____ _____    ______ ____
ROOT
ATOM      1  C   UNL     1       5.310   5.109  16.889  0.00  0.00    +0.000 A 
ATOM      2  C   UNL     1       5.375   6.491  16.987  0.00  0.00    +0.000 A 
ATOM      3  N   UNL     1       4.398   7.263  17.510  0.00  0.00    +0.000 NA
ATOM      4  C   UNL     1       3.279   6.655  17.957  0.00  0.00    +0.000 A 
ATOM      5  C   UNL     1       3.082   5.250  17.851  0.00  0.00    +0.000 A 
ATOM      6  C   UNL     1       1.905   4.602  18.300  0.00  0.00    +0.000 A 
ATOM      7  C   UNL     1       1.762   3.214  18.254  0.00  0.00    +0.000 A 
ATOM      8  C   UNL     1       2.798   2.435  17.767  0.00  0.00    +0.000 A 
ATOM      9  C   UNL     1       3.965   3.045  17.311  0.00  0.00    +0.000 A 
ATOM     10  C   UNL     1       4.136   4.455  17.325  0.00  0.00    +0.000 A 
ENDROOT
BRANCH   1  11
ATOM     11  C   UNL     1       6.503   4.382  16.395  0.00  0.00    +0.000 C 
ATOM     12  O   UNL     1       7.625   4.458  16.865  0.00  0.00    +0.000 OA
BRANCH  11  13
ATOM     13  O   UNL     1       6.162   3.746  15.245  0.00  0.00    +0.000 OA
BRANCH  13  15
ATOM     14  C   UNL     1       5.997   3.599  12.874  0.00  0.00    +0.000 C 
ATOM     15  C   UNL     1       6.555   4.408  14.033  0.00  0.00    +0.000 C 
ENDBRANCH  13  15
ENDBRANCH  11  13
ENDBRANCH   1  11
BRANCH   4  16
ATOM     16  N   UNL     1       2.299   7.453  18.589  0.00  0.00    +0.000 N 
ATOM     17  H   UNL     1       1.488   6.878  18.793  0.00  0.00    +0.000 HD
BRANCH  16  18
ATOM     18  C   UNL     1       1.949   8.664  17.849  0.00  0.00    +0.000 C 
BRANCH  18  19
ATOM     19  C   UNL     1       0.868   9.475  18.543  0.00  0.00    +0.000 A 
ATOM     20  C   UNL     1       0.985   9.913  19.873  0.00  0.00    +0.000 A 
ATOM     21  C   UNL     1       0.017  10.747  20.439  0.00  0.00    +0.000 A 
ATOM     22  C   UNL     1      -1.071  11.169  19.679  0.00  0.00    +0.000 A 
ATOM     23 CL   UNL     1      -2.245  12.222  20.368  0.00  0.00    +0.000 Cl
ATOM     24  C   UNL     1      -1.202  10.758  18.356  0.00  0.00    +0.000 A 
ATOM     25  C   UNL     1      -0.237   9.917  17.794  0.00  0.00    +0.000 A 
ENDBRANCH  18  19
ENDBRANCH  16  18
ENDBRANCH   4  16
TORSDOF 6
ENDMDL
MODEL 2
REMARK VINA RESULT:      -7.9      1.313      2.282
REMARK  Name = 
REMARK  7 active torsions:
REMARK  status: ('A' for Active; 'I' for Inactive)
REMARK    1  A    between atoms: C_1  and  C_2
REMARK    2  A    between atoms: C_2  and  O_3
REMARK    3  A    between atoms: O_3  and  C_4
REMARK    4  A    between atoms: C_4  and  C_6
REMARK    5  A    between atoms: C_9  and  N_10
REMARK    6  A    between atoms: N_10  and  C_11
REMARK    7  A    between atoms: C_11  and  C_12
REMARK                            x       y       z     vdW  Elec       q    Type
REMARK                         _______ _______ _______ _____ _____    ______ ____
ROOT
ATOM      1  C   UNL     1       4.992   5.337  16.648  0.00  0.00    +0.000 A 
ATOM      2  C   UNL     1       4.865   6.710  16.798  0.00  0.00    +0.000 A 
ATOM      3  N   UNL     1       3.886   7.311  17.507  0.00  0.00    +0.000 NA
ATOM      4  C   UNL     1       2.961   6.529  18.101  0.00  0.00    +0.000 A 
ATOM      5  C   UNL     1       2.960   5.112  17.964  0.00  0.00    +0.000 A 
ATOM      6  C   UNL     1       1.984   4.281  18.568  0.00  0.00    +0.000 A 
ATOM      7  C   UNL     1       2.044   2.889  18.483  0.00  0.00    +0.000 A 
ATOM      8  C   UNL     1       3.088   2.290  17.799  0.00  0.00    +0.000 A 
ATOM      9  C   UNL     1       4.058   3.081  17.188  0.00  0.00    +0.000 A 
ATOM     10  C   UNL     1       4.017   4.500  17.238  0.00  0.00    +0.000 A 
ENDROOT
BRANCH   1  11
ATOM     11  C   UNL     1       6.179   4.813  15.934  0.00  0.00    +0.000 C 
ATOM     12  O   UNL     1       6.162   3.988  15.038  0.00  0.00    +0.000 OA
BRANCH  11  13
ATOM     13  O   UNL     1       7.289   5.292  16.555  0.00  0.00    +0.000 OA
BRANCH  13  15
ATOM     14  C   UNL     1       7.810   5.677  18.846  0.00  0.00    +0.000 C 
ATOM     15  C   UNL     1       7.659   4.619  17.767  0.00  0.00    +0.000 C 
ENDBRANCH  13  15
ENDBRANCH  11  13
ENDBRANCH   1  11
BRANCH   4  16
ATOM     16  N   UNL     1       1.993   7.153  18.920  0.00  0.00    +0.000 N 
ATOM     17  H   UNL     1       1.103   6.680  18.796  0.00  0.00    +0.000 HD
BRANCH  16  18
ATOM     18  C   UNL     1       1.885   8.597  18.721  0.00  0.00    +0.000 C 
BRANCH  18  19
ATOM     19  C   UNL     1       1.127   9.282  19.844  0.00  0.00    +0.000 A 
ATOM     20  C   UNL     1       0.367  10.447  19.645  0.00  0.00    +0.000 A 
ATOM     21  C   UNL     1      -0.402  10.985  20.681  0.00  0.00    +0.000 A 
ATOM     22  C   UNL     1      -0.436  10.357  21.923  0.00  0.00    +0.000 A 
ATOM     23 CL   UNL     1      -1.409  11.003  23.187  0.00  0.00    +0.000 Cl
ATOM     24  C   UNL     1       0.299   9.196  22.140  0.00  0.00    +0.000 A 
ATOM     25  C   UNL     1       1.074   8.664  21.105  0.00  0.00    +0.000 A 
ENDBRANCH  18  19
ENDBRANCH  16  18
ENDBRANCH   4  16
TORSDOF 6
ENDMDL
MODEL 3
REMARK VINA RESULT:      -7.9      1.138      1.372
REMARK  Name = 
REMARK  7 active torsions:
REMARK  status: ('A' for Active; 'I' for Inactive)
REMARK    1  A    between atoms: C_1  and  C_2
REMARK    2  A    between atoms: C_2  and  O_3
REMARK    3  A    between atoms: O_3  and  C_4
REMARK    4  A    between atoms: C_4  and  C_6
REMARK    5  A    between atoms: C_9  and  N_10
REMARK    6  A    between atoms: N_10  and  C_11
REMARK    7  A    between atoms: C_11  and  C_12
REMARK                            x       y       z     vdW  Elec       q    Type
REMARK                         _______ _______ _______ _____ _____    ______ ____
ROOT
ATOM      1  C   UNL     1       4.811   5.218  16.662  0.00  0.00    +0.000 A 
ATOM      2  C   UNL     1       4.818   6.583  16.905  0.00  0.00    +0.000 A 
ATOM      3  N   UNL     1       3.958   7.212  17.735  0.00  0.00    +0.000 NA
ATOM      4  C   UNL     1       3.023   6.469  18.362  0.00  0.00    +0.000 A 
ATOM      5  C   UNL     1       2.887   5.070  18.140  0.00  0.00    +0.000 A 
ATOM      6  C   UNL     1       1.897   4.281  18.778  0.00  0.00    +0.000 A 
ATOM      7  C   UNL     1       1.828   2.898  18.603  0.00  0.00    +0.000 A 
ATOM      8  C   UNL     1       2.755   2.264  17.793  0.00  0.00    +0.000 A 
ATOM      9  C   UNL     1       3.735   3.014  17.146  0.00  0.00    +0.000 A 
ATOM     10  C   UNL     1       3.822   4.425  17.285  0.00  0.00    +0.000 A 
ENDROOT
BRANCH   1  11
ATOM     11  C   UNL     1       5.884   4.649  15.813  0.00  0.00    +0.000 C 
ATOM     12  O   UNL     1       6.993   4.318  16.197  0.00  0.00    +0.000 OA
BRANCH  11  13
ATOM     13  O   UNL     1       5.473   4.706  14.520  0.00  0.00    +0.000 OA
BRANCH  13  15
ATOM     14  C   UNL     1       5.570   3.348  12.567  0.00  0.00    +0.000 C 
ATOM     15  C   UNL     1       6.386   4.162  13.556  0.00  0.00    +0.000 C 
ENDBRANCH  13  15
ENDBRANCH  11  13
ENDBRANCH   1  11
BRANCH   4  16
ATOM     16  N   UNL     1       2.186   7.112  19.301  0.00  0.00    +0.000 N 
ATOM     17  H   UNL     1       1.338   6.565  19.415  0.00  0.00    +0.000 HD
BRANCH  16  18
ATOM     18  C   UNL     1       1.904   8.512  18.988  0.00  0.00    +0.000 C 
BRANCH  18  19
ATOM     19  C   UNL     1       0.993   9.164  20.014  0.00  0.00    +0.000 A 
ATOM     20  C   UNL     1       0.770   8.614  21.287  0.00  0.00    +0.000 A 
ATOM     21  C   UNL     1       0.010   9.300  22.239  0.00  0.00    +0.000 A 
ATOM     22  C   UNL     1      -0.521  10.551  21.937  0.00  0.00    +0.000 A 
ATOM     23 CL   UNL     1      -1.429  11.408  23.122  0.00  0.00    +0.000 Cl
ATOM     24  C   UNL     1      -0.304  11.121  20.687  0.00  0.00    +0.000 A 
ATOM     25  C   UNL     1       0.450  10.430  19.733  0.00  0.00    +0.000 A 
ENDBRANCH  18  19
ENDBRANCH  16  18
ENDBRANCH   4  16
TORSDOF 6
ENDMDL
MODEL 4
REMARK VINA RESULT:      -7.9      1.154      1.556
REMARK  Name = 
REMARK  7 active torsions:
REMARK  status: ('A' for Active; 'I' for Inactive)
REMARK    1  A    between atoms: C_1  and  C_2
REMARK    2  A    between atoms: C_2  and  O_3
REMARK    3  A    between atoms: O_3  and  C_4
REMARK    4  A    between atoms: C_4  and  C_6
REMARK    5  A    between atoms: C_9  and  N_10
REMARK    6  A    between atoms: N_10  and  C_11
REMARK    7  A    between atoms: C_11  and  C_12
REMARK                            x       y       z     vdW  Elec       q    Type
REMARK                         _______ _______ _______ _____ _____    ______ ____
ROOT
ATOM      1  C   UNL     1       5.236   5.595  16.781  0.00  0.00    +0.000 A 
ATOM      2  C   UNL     1       5.124   6.949  17.059  0.00  0.00    +0.000 A 
ATOM      3  N   UNL     1       4.131   7.496  17.793  0.00  0.00    +0.000 NA
ATOM      4  C   UNL     1       3.177   6.675  18.282  0.00  0.00    +0.000 A 
ATOM      5  C   UNL     1       3.161   5.279  18.009  0.00  0.00    +0.000 A 
ATOM      6  C   UNL     1       2.156   4.409  18.501  0.00  0.00    +0.000 A 
ATOM      7  C   UNL     1       2.200   3.031  18.283  0.00  0.00    +0.000 A 
ATOM      8  C   UNL     1       3.256   2.483  17.576  0.00  0.00    +0.000 A 
ATOM      9  C   UNL     1       4.256   3.314  17.072  0.00  0.00    +0.000 A 
ATOM     10  C   UNL     1       4.232   4.722  17.258  0.00  0.00    +0.000 A 
ENDROOT
BRANCH   1  11
ATOM     11  C   UNL     1       6.438   5.123  16.055  0.00  0.00    +0.000 C 
ATOM     12  O   UNL     1       7.406   4.583  16.561  0.00  0.00    +0.000 OA
BRANCH  11  13
ATOM     13  O   UNL     1       6.338   5.534  14.764  0.00  0.00    +0.000 OA
BRANCH  13  15
ATOM     14  C   UNL     1       6.007   3.686  13.300  0.00  0.00    +0.000 C 
ATOM     15  C   UNL     1       7.011   4.711  13.800  0.00  0.00    +0.000 C 
ENDBRANCH  13  15
ENDBRANCH  11  13
ENDBRANCH   1  11
BRANCH   4  16
ATOM     16  N   UNL     1       2.193   7.233  19.128  0.00  0.00    +0.000 N 
ATOM     17  H   UNL     1       1.399   6.602  19.170  0.00  0.00    +0.000 HD
BRANCH  16  18
ATOM     18  C   UNL     1       1.802   8.595  18.770  0.00  0.00    +0.000 C 
BRANCH  18  19
ATOM     19  C   UNL     1       1.066   9.302  19.895  0.00  0.00    +0.000 A 
ATOM     20  C   UNL     1       0.541  10.598  19.760  0.00  0.00    +0.000 A 
ATOM     21  C   UNL     1      -0.221  11.171  20.782  0.00  0.00    +0.000 A 
ATOM     22  C   UNL     1      -0.483  10.450  21.944  0.00  0.00    +0.000 A 
ATOM     23 CL   UNL     1      -1.449  11.144  23.188  0.00  0.00    +0.000 Cl
ATOM     24  C   UNL     1       0.017   9.161  22.096  0.00  0.00    +0.000 A 
ATOM     25  C   UNL     1       0.786   8.592  21.076  0.00  0.00    +0.000 A 
ENDBRANCH  18  19
ENDBRANCH  16  18
ENDBRANCH   4  16
TORSDOF 6
ENDMDL
MODEL 5
REMARK VINA RESULT:      -7.8      1.010      1.167
REMARK  Name = 
REMARK  7 active torsions:
REMARK  status: ('A' for Active; 'I' for Inactive)
REMARK    1  A    between atoms: C_1  and  C_2
REMARK    2  A    between atoms: C_2  and  O_3
REMARK    3  A    between atoms: O_3  and  C_4
REMARK    4  A    between atoms: C_4  and  C_6
REMARK    5  A    between atoms: C_9  and  N_10
REMARK    6  A    between atoms: N_10  and  C_11
REMARK    7  A    between atoms: C_11  and  C_12
REMARK                            x       y       z     vdW  Elec       q    Type
REMARK                         _______ _______ _______ _____ _____    ______ ____
ROOT
ATOM      1  C   UNL     1       5.307   5.105  16.836  0.00  0.00    +0.000 A 
ATOM      2  C   UNL     1       5.388   6.486  16.929  0.00  0.00    +0.000 A 
ATOM      3  N   UNL     1       4.423   7.271  17.455  0.00  0.00    +0.000 NA
ATOM      4  C   UNL     1       3.301   6.678  17.912  0.00  0.00    +0.000 A 
ATOM      5  C   UNL     1       3.087   5.275  17.812  0.00  0.00    +0.000 A 
ATOM      6  C   UNL     1       1.905   4.641  18.272  0.00  0.00    +0.000 A 
ATOM      7  C   UNL     1       1.746   3.255  18.232  0.00  0.00    +0.000 A 
ATOM      8  C   UNL     1       2.769   2.463  17.741  0.00  0.00    +0.000 A 
ATOM      9  C   UNL     1       3.940   3.058  17.274  0.00  0.00    +0.000 A 
ATOM     10  C   UNL     1       4.128   4.465  17.282  0.00  0.00    +0.000 A 
ENDROOT
BRANCH   1  11
ATOM     11  C   UNL     1       6.487   4.363  16.337  0.00  0.00    +0.000 C 
ATOM     12  O   UNL     1       7.610   4.416  16.807  0.00  0.00    +0.000 OA
BRANCH  11  13
ATOM     13  O   UNL     1       6.136   3.742  15.181  0.00  0.00    +0.000 OA
BRANCH  13  15
ATOM     14  C   UNL     1       6.082   3.546  12.809  0.00  0.00    +0.000 C 
ATOM     15  C   UNL     1       6.540   4.406  13.974  0.00  0.00    +0.000 C 
ENDBRANCH  13  15
ENDBRANCH  11  13
ENDBRANCH   1  11
BRANCH   4  16
ATOM     16  N   UNL     1       2.334   7.489  18.548  0.00  0.00    +0.000 N 
ATOM     17  H   UNL     1       1.564   6.904  18.856  0.00  0.00    +0.000 HD
BRANCH  16  18
ATOM     18  C   UNL     1       1.882   8.621  17.741  0.00  0.00    +0.000 C 
BRANCH  18  19
ATOM     19  C   UNL     1       1.452   9.804  18.591  0.00  0.00    +0.000 A 
ATOM     20  C   UNL     1       0.706   9.656  19.773  0.00  0.00    +0.000 A 
ATOM     21  C   UNL     1       0.422  10.760  20.582  0.00  0.00    +0.000 A 
ATOM     22  C   UNL     1       0.894  12.022  20.230  0.00  0.00    +0.000 A 
ATOM     23 CL   UNL     1       0.572  13.375  21.245  0.00  0.00    +0.000 Cl
ATOM     24  C   UNL     1       1.644  12.191  19.071  0.00  0.00    +0.000 A 
ATOM     25  C   UNL     1       1.920  11.087  18.258  0.00  0.00    +0.000 A 
ENDBRANCH  18  19
ENDBRANCH  16  18
ENDBRANCH   4  16
TORSDOF 6
ENDMDL
MODEL 6
REMARK VINA RESULT:      -7.8      1.962      2.830
REMARK  Name = 
REMARK  7 active torsions:
REMARK  status: ('A' for Active; 'I' for Inactive)
REMARK    1  A    between atoms: C_1  and  C_2
REMARK    2  A    between atoms: C_2  and  O_3
REMARK    3  A    between atoms: O_3  and  C_4
REMARK    4  A    between atoms: C_4  and  C_6
REMARK    5  A    between atoms: C_9  and  N_10
REMARK    6  A    between atoms: N_10  and  C_11
REMARK    7  A    between atoms: C_11  and  C_12
REMARK                            x       y       z     vdW  Elec       q    Type
REMARK                         _______ _______ _______ _____ _____    ______ ____
ROOT
ATOM      1  C   UNL     1       4.009   5.150  17.991  0.00  0.00    +0.000 A 
ATOM      2  C   UNL     1       3.950   6.530  17.866  0.00  0.00    +0.000 A 
ATOM      3  N   UNL     1       3.191   7.333  18.644  0.00  0.00    +0.000 NA
ATOM      4  C   UNL     1       2.432   6.757  19.599  0.00  0.00    +0.000 A 
ATOM      5  C   UNL     1       2.370   5.347  19.776  0.00  0.00    +0.000 A 
ATOM      6  C   UNL     1       1.563   4.729  20.764  0.00  0.00    +0.000 A 
ATOM      7  C   UNL     1       1.573   3.349  20.969  0.00  0.00    +0.000 A 
ATOM      8  C   UNL     1       2.400   2.549  20.200  0.00  0.00    +0.000 A 
ATOM      9  C   UNL     1       3.200   3.126  19.215  0.00  0.00    +0.000 A 
ATOM     10  C   UNL     1       3.199   4.524  18.966  0.00  0.00    +0.000 A 
ENDROOT
BRANCH   1  11
ATOM     11  C   UNL     1       4.969   4.407  17.142  0.00  0.00    +0.000 C 
ATOM     12  O   UNL     1       4.742   3.976  16.025  0.00  0.00    +0.000 OA
BRANCH  11  13
ATOM     13  O   UNL     1       6.081   4.159  17.881  0.00  0.00    +0.000 OA
BRANCH  13  15
ATOM     14  C   UNL     1       7.646   5.893  18.342  0.00  0.00    +0.000 C 
ATOM     15  C   UNL     1       7.292   4.758  17.397  0.00  0.00    +0.000 C 
ENDBRANCH  13  15
ENDBRANCH  11  13
ENDBRANCH   1  11
BRANCH   4  16
ATOM     16  N   UNL     1       1.713   7.604  20.473  0.00  0.00    +0.000 N 
ATOM     17  H   UNL     1       0.877   7.120  20.786  0.00  0.00    +0.000 HD
BRANCH  16  18
ATOM     18  C   UNL     1       1.414   8.921  19.914  0.00  0.00    +0.000 C 
BRANCH  18  19
ATOM     19  C   UNL     1       0.528   9.751  20.827  0.00  0.00    +0.000 A 
ATOM     20  C   UNL     1      -0.187  10.873  20.375  0.00  0.00    +0.000 A 
ATOM     21  C   UNL     1      -1.074  11.544  21.221  0.00  0.00    +0.000 A 
ATOM     22  C   UNL     1      -1.272  11.093  22.523  0.00  0.00    +0.000 A 
ATOM     23 CL   UNL     1      -2.390  11.901  23.553  0.00  0.00    +0.000 Cl
ATOM     24  C   UNL     1      -0.584   9.977  22.990  0.00  0.00    +0.000 A 
ATOM     25  C   UNL     1       0.309   9.312  22.145  0.00  0.00    +0.000 A 
ENDBRANCH  18  19
ENDBRANCH  16  18
ENDBRANCH   4  16
TORSDOF 6
ENDMDL
MODEL 7
REMARK VINA RESULT:      -7.7      1.369      2.112
REMARK  Name = 
REMARK  7 active torsions:
REMARK  status: ('A' for Active; 'I' for Inactive)
REMARK    1  A    between atoms: C_1  and  C_2
REMARK    2  A    between atoms: C_2  and  O_3
REMARK    3  A    between atoms: O_3  and  C_4
REMARK    4  A    between atoms: C_4  and  C_6
REMARK    5  A    between atoms: C_9  and  N_10
REMARK    6  A    between atoms: N_10  and  C_11
REMARK    7  A    between atoms: C_11  and  C_12
REMARK                            x       y       z     vdW  Elec       q    Type
REMARK                         _______ _______ _______ _____ _____    ______ ____
ROOT
ATOM      1  C   UNL     1       4.676   5.461  16.699  0.00  0.00    +0.000 A 
ATOM      2  C   UNL     1       4.658   6.827  16.939  0.00  0.00    +0.000 A 
ATOM      3  N   UNL     1       3.795   7.440  17.777  0.00  0.00    +0.000 NA
ATOM      4  C   UNL     1       2.883   6.680  18.417  0.00  0.00    +0.000 A 
ATOM      5  C   UNL     1       2.772   5.278  18.200  0.00  0.00    +0.000 A 
ATOM      6  C   UNL     1       1.807   4.472  18.852  0.00  0.00    +0.000 A 
ATOM      7  C   UNL     1       1.763   3.087  18.682  0.00  0.00    +0.000 A 
ATOM      8  C   UNL     1       2.692   2.469  17.862  0.00  0.00    +0.000 A 
ATOM      9  C   UNL     1       3.649   3.237  17.201  0.00  0.00    +0.000 A 
ATOM     10  C   UNL     1       3.710   4.649  17.336  0.00  0.00    +0.000 A 
ENDROOT
BRANCH   1  11
ATOM     11  C   UNL     1       5.749   4.911  15.839  0.00  0.00    +0.000 C 
ATOM     12  O   UNL     1       5.594   4.107  14.936  0.00  0.00    +0.000 OA
BRANCH  11  13
ATOM     13  O   UNL     1       6.942   5.338  16.330  0.00  0.00    +0.000 OA
BRANCH  13  15
ATOM     14  C   UNL     1       7.737   5.475  18.569  0.00  0.00    +0.000 C 
ATOM     15  C   UNL     1       7.491   4.546  17.393  0.00  0.00    +0.000 C 
ENDBRANCH  13  15
ENDBRANCH  11  13
ENDBRANCH   1  11
BRANCH   4  16
ATOM     16  N   UNL     1       2.044   7.309  19.365  0.00  0.00    +0.000 N 
ATOM     17  H   UNL     1       1.217   6.738  19.503  0.00  0.00    +0.000 HD
BRANCH  16  18
ATOM     18  C   UNL     1       1.714   8.696  19.041  0.00  0.00    +0.000 C 
BRANCH  18  19
ATOM     19  C   UNL     1       0.806   9.333  20.078  0.00  0.00    +0.000 A 
ATOM     20  C   UNL     1       0.625   8.792  21.362  0.00  0.00    +0.000 A 
ATOM     21  C   UNL     1      -0.134   9.466  22.323  0.00  0.00    +0.000 A 
ATOM     22  C   UNL     1      -0.708  10.698  22.018  0.00  0.00    +0.000 A 
ATOM     23 CL   UNL     1      -1.615  11.543  23.212  0.00  0.00    +0.000 Cl
ATOM     24  C   UNL     1      -0.534  11.260  20.757  0.00  0.00    +0.000 A 
ATOM     25  C   UNL     1       0.220  10.579  19.795  0.00  0.00    +0.000 A 
ENDBRANCH  18  19
ENDBRANCH  16  18
ENDBRANCH   4  16
TORSDOF 6
ENDMDL
MODEL 8
REMARK VINA RESULT:      -7.6      1.936      2.169
REMARK  Name = 
REMARK  7 active torsions:
REMARK  status: ('A' for Active; 'I' for Inactive)
REMARK    1  A    between atoms: C_1  and  C_2
REMARK    2  A    between atoms: C_2  and  O_3
REMARK    3  A    between atoms: O_3  and  C_4
REMARK    4  A    between atoms: C_4  and  C_6
REMARK    5  A    between atoms: C_9  and  N_10
REMARK    6  A    between atoms: N_10  and  C_11
REMARK    7  A    between atoms: C_11  and  C_12
REMARK                            x       y       z     vdW  Elec       q    Type
REMARK                         _______ _______ _______ _____ _____    ______ ____
ROOT
ATOM      1  C   UNL     1       4.854   4.953  18.315  0.00  0.00    +0.000 A 
ATOM      2  C   UNL     1       4.501   6.262  18.024  0.00  0.00    +0.000 A 
ATOM      3  N   UNL     1       3.504   6.935  18.638  0.00  0.00    +0.000 NA
ATOM      4  C   UNL     1       2.795   6.292  19.589  0.00  0.00    +0.000 A 
ATOM      5  C   UNL     1       3.032   4.929  19.924  0.00  0.00    +0.000 A 
ATOM      6  C   UNL     1       2.283   4.237  20.908  0.00  0.00    +0.000 A 
ATOM      7  C   UNL     1       2.580   2.923  21.274  0.00  0.00    +0.000 A 
ATOM      8  C   UNL     1       3.642   2.269  20.674  0.00  0.00    +0.000 A 
ATOM      9  C   UNL     1       4.393   2.921  19.697  0.00  0.00    +0.000 A 
ATOM     10  C   UNL     1       4.106   4.250  19.286  0.00  0.00    +0.000 A 
ENDROOT
BRANCH   1  11
ATOM     11  C   UNL     1       6.041   4.377  17.639  0.00  0.00    +0.000 C 
ATOM     12  O   UNL     1       7.174   4.365  18.086  0.00  0.00    +0.000 OA
BRANCH  11  13
ATOM     13  O   UNL     1       5.674   4.011  16.384  0.00  0.00    +0.000 OA
BRANCH  13  15
ATOM     14  C   UNL     1       5.932   4.025  14.017  0.00  0.00    +0.000 C 
ATOM     15  C   UNL     1       6.585   4.386  15.340  0.00  0.00    +0.000 C 
ENDBRANCH  13  15
ENDBRANCH  11  13
ENDBRANCH   1  11
BRANCH   4  16
ATOM     16  N   UNL     1       1.816   7.026  20.296  0.00  0.00    +0.000 N 
ATOM     17  H   UNL     1       0.930   6.534  20.237  0.00  0.00    +0.000 HD
BRANCH  16  18
ATOM     18  C   UNL     1       1.704   8.423  19.881  0.00  0.00    +0.000 C 
BRANCH  18  19
ATOM     19  C   UNL     1       0.746   9.213  20.756  0.00  0.00    +0.000 A 
ATOM     20  C   UNL     1       0.638   9.004  22.141  0.00  0.00    +0.000 A 
ATOM     21  C   UNL     1      -0.177   9.824  22.926  0.00  0.00    +0.000 A 
ATOM     22  C   UNL     1      -0.881  10.874  22.341  0.00  0.00    +0.000 A 
ATOM     23 CL   UNL     1      -1.858  11.903  23.314  0.00  0.00    +0.000 Cl
ATOM     24  C   UNL     1      -0.780  11.107  20.973  0.00  0.00    +0.000 A 
ATOM     25  C   UNL     1       0.030  10.280  20.187  0.00  0.00    +0.000 A 
ENDBRANCH  18  19
ENDBRANCH  16  18
ENDBRANCH   4  16
TORSDOF 6
ENDMDL
MODEL 9
REMARK VINA RESULT:      -7.6      5.011      8.446
REMARK  Name = 
REMARK  7 active torsions:
REMARK  status: ('A' for Active; 'I' for Inactive)
REMARK    1  A    between atoms: C_1  and  C_2
REMARK    2  A    between atoms: C_2  and  O_3
REMARK    3  A    between atoms: O_3  and  C_4
REMARK    4  A    between atoms: C_4  and  C_6
REMARK    5  A    between atoms: C_9  and  N_10
REMARK    6  A    between atoms: N_10  and  C_11
REMARK    7  A    between atoms: C_11  and  C_12
REMARK                            x       y       z     vdW  Elec       q    Type
REMARK                         _______ _______ _______ _____ _____    ______ ____
ROOT
ATOM      1  C   UNL     1      -0.292  11.201  19.231  0.00  0.00    +0.000 A 
ATOM      2  C   UNL     1       0.562  10.448  18.440  0.00  0.00    +0.000 A 
ATOM      3  N   UNL     1       1.277   9.391  18.884  0.00  0.00    +0.000 NA
ATOM      4  C   UNL     1       1.164   9.050  20.184  0.00  0.00    +0.000 A 
ATOM      5  C   UNL     1       0.363   9.790  21.099  0.00  0.00    +0.000 A 
ATOM      6  C   UNL     1       0.251   9.453  22.471  0.00  0.00    +0.000 A 
ATOM      7  C   UNL     1      -0.598  10.147  23.335  0.00  0.00    +0.000 A 
ATOM      8  C   UNL     1      -1.366  11.191  22.848  0.00  0.00    +0.000 A 
ATOM      9  C   UNL     1      -1.270  11.551  21.505  0.00  0.00    +0.000 A 
ATOM     10  C   UNL     1      -0.403  10.879  20.603  0.00  0.00    +0.000 A 
ENDROOT
BRANCH   1  11
ATOM     11  C   UNL     1      -1.097  12.263  18.584  0.00  0.00    +0.000 C 
ATOM     12  O   UNL     1      -0.702  13.381  18.301  0.00  0.00    +0.000 OA
BRANCH  11  13
ATOM     13  O   UNL     1      -2.382  11.829  18.505  0.00  0.00    +0.000 OA
BRANCH  13  15
ATOM     14  C   UNL     1      -3.074   9.858  17.363  0.00  0.00    +0.000 C 
ATOM     15  C   UNL     1      -2.793  11.344  17.219  0.00  0.00    +0.000 C 
ENDBRANCH  13  15
ENDBRANCH  11  13
ENDBRANCH   1  11
BRANCH   4  16
ATOM     16  N   UNL     1       1.838   7.889  20.625  0.00  0.00    +0.000 N 
ATOM     17  H   UNL     1       2.420   8.130  21.422  0.00  0.00    +0.000 HD
BRANCH  16  18
ATOM     18  C   UNL     1       2.589   7.201  19.577  0.00  0.00    +0.000 C 
BRANCH  18  19
ATOM     19  C   UNL     1       2.174   5.748  19.425  0.00  0.00    +0.000 A 
ATOM     20  C   UNL     1       1.628   5.001  20.482  0.00  0.00    +0.000 A 
ATOM     21  C   UNL     1       1.160   3.701  20.273  0.00  0.00    +0.000 A 
ATOM     22  C   UNL     1       1.215   3.137  19.001  0.00  0.00    +0.000 A 
ATOM     23 CL   UNL     1       0.608   1.548  18.738  0.00  0.00    +0.000 Cl
ATOM     24  C   UNL     1       1.740   3.861  17.935  0.00  0.00    +0.000 A 
ATOM     25  C   UNL     1       2.216   5.159  18.149  0.00  0.00    +0.000 A 
ENDBRANCH  18  19
ENDBRANCH  16  18
ENDBRANCH   4  16
TORSDOF 6
ENDMDL
