MODEL 1
REMARK VINA RESULT:      -7.1      0.000      0.000
REMARK  Name = 
REMARK  6 active torsions:
REMARK  status: ('A' for Active; 'I' for Inactive)
REMARK    1  A    between atoms: C_1  and  S_2
REMARK    2  A    between atoms: S_2  and  C_3
REMARK    3  A    between atoms: N_9  and  C_10
REMARK    4  A    between atoms: C_10  and  C_11
REMARK    5  A    between atoms: C_11  and  C_12
REMARK    6  A    between atoms: N_17  and  C_18
REMARK                            x       y       z     vdW  Elec       q    Type
REMARK                         _______ _______ _______ _____ _____    ______ ____
ROOT
ATOM      1  C   UNL     1       1.189   9.599  19.297  0.00  0.00    +0.000 A 
ATOM      2  C   UNL     1       0.968   9.415  20.659  0.00  0.00    +0.000 A 
ATOM      3  C   UNL     1       1.269   8.199  21.256  0.00  0.00    +0.000 A 
ATOM      4  C   UNL     1       1.800   7.149  20.503  0.00  0.00    +0.000 A 
ATOM      5  C   UNL     1       2.091   7.328  19.134  0.00  0.00    +0.000 A 
ATOM      6  C   UNL     1       1.782   8.576  18.535  0.00  0.00    +0.000 A 
ATOM      7  N   UNL     1       2.629   6.239  18.370  0.00  0.00    +0.000 N 
ATOM      8  C   UNL     1       2.121   4.934  18.629  0.00  0.00    +0.000 A 
ATOM      9  C   UNL     1       1.870   4.027  17.566  0.00  0.00    +0.000 A 
ATOM     10  C   UNL     1       1.290   2.780  17.814  0.00  0.00    +0.000 A 
ATOM     11  C   UNL     1       0.960   2.413  19.116  0.00  0.00    +0.000 A 
ATOM     12  C   UNL     1       1.208   3.287  20.175  0.00  0.00    +0.000 A 
ATOM     13  C   UNL     1       1.777   4.540  19.937  0.00  0.00    +0.000 A 
ATOM     14  S   UNL     1       2.147   5.605  21.332  0.00  0.00    +0.000 S 
ENDROOT
BRANCH   1  16
ATOM     15  C   UNL     1      -1.100  10.944  18.520  0.00  0.00    +0.000 C 
ATOM     16  S   UNL     1       0.719  11.181  18.594  0.00  0.00    +0.000 S 
ENDBRANCH   1  16
BRANCH   7  17
ATOM     17  C   UNL     1       3.602   6.465  17.310  0.00  0.00    +0.000 C 
BRANCH  17  18
ATOM     18  C   UNL     1       5.037   6.184  17.812  0.00  0.00    +0.000 C 
BRANCH  18  19
ATOM     19  C   UNL     1       5.567   4.724  17.574  0.00  0.00    +0.000 C 
ATOM     20  C   UNL     1       4.914   3.996  16.372  0.00  0.00    +0.000 C 
ATOM     21  C   UNL     1       5.341   4.640  15.047  0.00  0.00    +0.000 C 
ATOM     22  C   UNL     1       6.871   4.624  14.936  0.00  0.00    +0.000 C 
ATOM     23  C   UNL     1       7.512   5.302  16.152  0.00  0.00    +0.000 C 
ATOM     24  N   UNL     1       7.043   4.656  17.400  0.00  0.00    +0.000 NA
ATOM     25  C   UNL     1       7.799   5.132  18.568  0.00  0.00    +0.000 C 
ENDBRANCH  18  19
ENDBRANCH  17  18
ENDBRANCH   7  17
TORSDOF 4
ENDMDL
MODEL 2
REMARK VINA RESULT:      -6.7      0.965      1.789
REMARK  Name = 
REMARK  6 active torsions:
REMARK  status: ('A' for Active; 'I' for Inactive)
REMARK    1  A    between atoms: C_1  and  S_2
REMARK    2  A    between atoms: S_2  and  C_3
REMARK    3  A    between atoms: N_9  and  C_10
REMARK    4  A    between atoms: C_10  and  C_11
REMARK    5  A    between atoms: C_11  and  C_12
REMARK    6  A    between atoms: N_17  and  C_18
REMARK                            x       y       z     vdW  Elec       q    Type
REMARK                         _______ _______ _______ _____ _____    ______ ____
ROOT
ATOM      1  C   UNL     1       0.868  10.225  19.336  0.00  0.00    +0.000 A 
ATOM      2  C   UNL     1       0.548  10.005  20.672  0.00  0.00    +0.000 A 
ATOM      3  C   UNL     1       0.870   8.799  21.277  0.00  0.00    +0.000 A 
ATOM      4  C   UNL     1       1.520   7.793  20.558  0.00  0.00    +0.000 A 
ATOM      5  C   UNL     1       1.911   8.012  19.219  0.00  0.00    +0.000 A 
ATOM      6  C   UNL     1       1.579   9.250  18.612  0.00  0.00    +0.000 A 
ATOM      7  N   UNL     1       2.572   6.969  18.488  0.00  0.00    +0.000 N 
ATOM      8  C   UNL     1       2.121   5.632  18.689  0.00  0.00    +0.000 A 
ATOM      9  C   UNL     1       2.010   4.731  17.598  0.00  0.00    +0.000 A 
ATOM     10  C   UNL     1       1.487   3.448  17.782  0.00  0.00    +0.000 A 
ATOM     11  C   UNL     1       1.073   3.041  19.048  0.00  0.00    +0.000 A 
ATOM     12  C   UNL     1       1.184   3.910  20.135  0.00  0.00    +0.000 A 
ATOM     13  C   UNL     1       1.696   5.197  19.960  0.00  0.00    +0.000 A 
ATOM     14  S   UNL     1       1.888   6.258  21.393  0.00  0.00    +0.000 S 
ENDROOT
BRANCH   1  16
ATOM     15  C   UNL     1      -1.447  11.506  18.527  0.00  0.00    +0.000 C 
ATOM     16  S   UNL     1       0.365  11.789  18.615  0.00  0.00    +0.000 S 
ENDBRANCH   1  16
BRANCH   7  17
ATOM     17  C   UNL     1       3.613   7.268  17.515  0.00  0.00    +0.000 C 
BRANCH  17  18
ATOM     18  C   UNL     1       4.695   6.164  17.511  0.00  0.00    +0.000 C 
BRANCH  18  19
ATOM     19  C   UNL     1       6.073   6.566  16.871  0.00  0.00    +0.000 C 
ATOM     20  C   UNL     1       7.182   6.896  17.901  0.00  0.00    +0.000 C 
ATOM     21  C   UNL     1       7.613   5.635  18.662  0.00  0.00    +0.000 C 
ATOM     22  C   UNL     1       8.086   4.569  17.667  0.00  0.00    +0.000 C 
ATOM     23  C   UNL     1       7.003   4.282  16.620  0.00  0.00    +0.000 C 
ATOM     24  N   UNL     1       6.610   5.537  15.939  0.00  0.00    +0.000 NA
ATOM     25  C   UNL     1       5.736   5.271  14.786  0.00  0.00    +0.000 C 
ENDBRANCH  18  19
ENDBRANCH  17  18
ENDBRANCH   7  17
TORSDOF 4
ENDMDL
MODEL 3
REMARK VINA RESULT:      -6.7      1.082      1.913
REMARK  Name = 
REMARK  6 active torsions:
REMARK  status: ('A' for Active; 'I' for Inactive)
REMARK    1  A    between atoms: C_1  and  S_2
REMARK    2  A    between atoms: S_2  and  C_3
REMARK    3  A    between atoms: N_9  and  C_10
REMARK    4  A    between atoms: C_10  and  C_11
REMARK    5  A    between atoms: C_11  and  C_12
REMARK    6  A    between atoms: N_17  and  C_18
REMARK                            x       y       z     vdW  Elec       q    Type
REMARK                         _______ _______ _______ _____ _____    ______ ____
ROOT
ATOM      1  C   UNL     1       0.978   9.544  19.366  0.00  0.00    +0.000 A 
ATOM      2  C   UNL     1       0.627   9.145  20.652  0.00  0.00    +0.000 A 
ATOM      3  C   UNL     1       1.053   7.919  21.143  0.00  0.00    +0.000 A 
ATOM      4  C   UNL     1       1.841   7.074  20.359  0.00  0.00    +0.000 A 
ATOM      5  C   UNL     1       2.263   7.480  19.075  0.00  0.00    +0.000 A 
ATOM      6  C   UNL     1       1.824   8.736  18.584  0.00  0.00    +0.000 A 
ATOM      7  N   UNL     1       3.067   6.599  18.276  0.00  0.00    +0.000 N 
ATOM      8  C   UNL     1       2.758   5.209  18.309  0.00  0.00    +0.000 A 
ATOM      9  C   UNL     1       2.795   4.427  17.125  0.00  0.00    +0.000 A 
ATOM     10  C   UNL     1       2.409   3.084  17.143  0.00  0.00    +0.000 A 
ATOM     11  C   UNL     1       1.988   2.498  18.334  0.00  0.00    +0.000 A 
ATOM     12  C   UNL     1       1.954   3.247  19.511  0.00  0.00    +0.000 A 
ATOM     13  C   UNL     1       2.329   4.593  19.501  0.00  0.00    +0.000 A 
ATOM     14  S   UNL     1       2.339   5.503  21.047  0.00  0.00    +0.000 S 
ENDROOT
BRANCH   1  16
ATOM     15  C   UNL     1       0.668  12.137  20.279  0.00  0.00    +0.000 C 
ATOM     16  S   UNL     1       0.338  11.117  18.788  0.00  0.00    +0.000 S 
ENDBRANCH   1  16
BRANCH   7  17
ATOM     17  C   UNL     1       4.110   7.112  17.399  0.00  0.00    +0.000 C 
BRANCH  17  18
ATOM     18  C   UNL     1       4.940   5.955  16.796  0.00  0.00    +0.000 C 
BRANCH  18  19
ATOM     19  C   UNL     1       6.435   6.296  16.456  0.00  0.00    +0.000 C 
ATOM     20  C   UNL     1       7.187   7.057  17.577  0.00  0.00    +0.000 C 
ATOM     21  C   UNL     1       7.404   6.154  18.798  0.00  0.00    +0.000 C 
ATOM     22  C   UNL     1       8.171   4.894  18.378  0.00  0.00    +0.000 C 
ATOM     23  C   UNL     1       7.448   4.173  17.235  0.00  0.00    +0.000 C 
ATOM     24  N   UNL     1       7.243   5.099  16.097  0.00  0.00    +0.000 NA
ATOM     25  C   UNL     1       6.752   4.388  14.907  0.00  0.00    +0.000 C 
ENDBRANCH  18  19
ENDBRANCH  17  18
ENDBRANCH   7  17
TORSDOF 4
ENDMDL
MODEL 4
REMARK VINA RESULT:      -6.7      1.083      1.822
REMARK  Name = 
REMARK  6 active torsions:
REMARK  status: ('A' for Active; 'I' for Inactive)
REMARK    1  A    between atoms: C_1  and  S_2
REMARK    2  A    between atoms: S_2  and  C_3
REMARK    3  A    between atoms: N_9  and  C_10
REMARK    4  A    between atoms: C_10  and  C_11
REMARK    5  A    between atoms: C_11  and  C_12
REMARK    6  A    between atoms: N_17  and  C_18
REMARK                            x       y       z     vdW  Elec       q    Type
REMARK                         _______ _______ _______ _____ _____    ______ ____
ROOT
ATOM      1  C   UNL     1       1.033   9.709  19.319  0.00  0.00    +0.000 A 
ATOM      2  C   UNL     1       0.856   9.522  20.686  0.00  0.00    +0.000 A 
ATOM      3  C   UNL     1       1.192   8.312  21.274  0.00  0.00    +0.000 A 
ATOM      4  C   UNL     1       1.715   7.269  20.505  0.00  0.00    +0.000 A 
ATOM      5  C   UNL     1       1.961   7.451  19.128  0.00  0.00    +0.000 A 
ATOM      6  C   UNL     1       1.616   8.694  18.538  0.00  0.00    +0.000 A 
ATOM      7  N   UNL     1       2.491   6.370  18.348  0.00  0.00    +0.000 N 
ATOM      8  C   UNL     1       2.010   5.057  18.622  0.00  0.00    +0.000 A 
ATOM      9  C   UNL     1       1.739   4.147  17.568  0.00  0.00    +0.000 A 
ATOM     10  C   UNL     1       1.186   2.891  17.833  0.00  0.00    +0.000 A 
ATOM     11  C   UNL     1       0.900   2.520  19.145  0.00  0.00    +0.000 A 
ATOM     12  C   UNL     1       1.169   3.398  20.196  0.00  0.00    +0.000 A 
ATOM     13  C   UNL     1       1.713   4.659  19.941  0.00  0.00    +0.000 A 
ATOM     14  S   UNL     1       2.109   5.730  21.323  0.00  0.00    +0.000 S 
ENDROOT
BRANCH   1  16
ATOM     15  C   UNL     1      -1.210  10.860  18.178  0.00  0.00    +0.000 C 
ATOM     16  S   UNL     1       0.518  11.284  18.630  0.00  0.00    +0.000 S 
ENDBRANCH   1  16
BRANCH   7  17
ATOM     17  C   UNL     1       3.428   6.609  17.258  0.00  0.00    +0.000 C 
BRANCH  17  18
ATOM     18  C   UNL     1       4.837   6.934  17.806  0.00  0.00    +0.000 C 
BRANCH  18  19
ATOM     19  C   UNL     1       5.995   6.000  17.300  0.00  0.00    +0.000 C 
ATOM     20  C   UNL     1       7.284   6.751  16.881  0.00  0.00    +0.000 C 
ATOM     21  C   UNL     1       7.974   7.372  18.102  0.00  0.00    +0.000 C 
ATOM     22  C   UNL     1       8.283   6.278  19.132  0.00  0.00    +0.000 C 
ATOM     23  C   UNL     1       7.012   5.506  19.505  0.00  0.00    +0.000 C 
ATOM     24  N   UNL     1       6.378   4.953  18.286  0.00  0.00    +0.000 NA
ATOM     25  C   UNL     1       5.284   4.029  18.622  0.00  0.00    +0.000 C 
ENDBRANCH  18  19
ENDBRANCH  17  18
ENDBRANCH   7  17
TORSDOF 4
ENDMDL
MODEL 5
REMARK VINA RESULT:      -6.5      1.235      1.390
REMARK  Name = 
REMARK  6 active torsions:
REMARK  status: ('A' for Active; 'I' for Inactive)
REMARK    1  A    between atoms: C_1  and  S_2
REMARK    2  A    between atoms: S_2  and  C_3
REMARK    3  A    between atoms: N_9  and  C_10
REMARK    4  A    between atoms: C_10  and  C_11
REMARK    5  A    between atoms: C_11  and  C_12
REMARK    6  A    between atoms: N_17  and  C_18
REMARK                            x       y       z     vdW  Elec       q    Type
REMARK                         _______ _______ _______ _____ _____    ______ ____
ROOT
ATOM      1  C   UNL     1       1.528   8.933  19.273  0.00  0.00    +0.000 A 
ATOM      2  C   UNL     1       0.932   8.615  20.490  0.00  0.00    +0.000 A 
ATOM      3  C   UNL     1       1.135   7.367  21.062  0.00  0.00    +0.000 A 
ATOM      4  C   UNL     1       1.940   6.417  20.428  0.00  0.00    +0.000 A 
ATOM      5  C   UNL     1       2.605   6.734  19.225  0.00  0.00    +0.000 A 
ATOM      6  C   UNL     1       2.393   8.014  18.651  0.00  0.00    +0.000 A 
ATOM      7  N   UNL     1       3.423   5.747  18.580  0.00  0.00    +0.000 N 
ATOM      8  C   UNL     1       2.960   4.400  18.582  0.00  0.00    +0.000 A 
ATOM      9  C   UNL     1       3.100   3.581  17.430  0.00  0.00    +0.000 A 
ATOM     10  C   UNL     1       2.568   2.289  17.404  0.00  0.00    +0.000 A 
ATOM     11  C   UNL     1       1.899   1.790  18.519  0.00  0.00    +0.000 A 
ATOM     12  C   UNL     1       1.761   2.576  19.664  0.00  0.00    +0.000 A 
ATOM     13  C   UNL     1       2.279   3.872  19.697  0.00  0.00    +0.000 A 
ATOM     14  S   UNL     1       2.143   4.824  21.210  0.00  0.00    +0.000 S 
ENDROOT
BRANCH   1  16
ATOM     15  C   UNL     1      -0.618  10.657  18.992  0.00  0.00    +0.000 C 
ATOM     16  S   UNL     1       1.167  10.546  18.577  0.00  0.00    +0.000 S 
ENDBRANCH   1  16
BRANCH   7  17
ATOM     17  C   UNL     1       4.644   6.116  17.877  0.00  0.00    +0.000 C 
BRANCH  17  18
ATOM     18  C   UNL     1       5.893   5.703  18.689  0.00  0.00    +0.000 C 
BRANCH  18  19
ATOM     19  C   UNL     1       7.225   5.570  17.868  0.00  0.00    +0.000 C 
ATOM     20  C   UNL     1       7.405   4.203  17.160  0.00  0.00    +0.000 C 
ATOM     21  C   UNL     1       6.388   4.040  16.023  0.00  0.00    +0.000 C 
ATOM     22  C   UNL     1       6.536   5.198  15.029  0.00  0.00    +0.000 C 
ATOM     23  C   UNL     1       6.406   6.549  15.743  0.00  0.00    +0.000 C 
ATOM     24  N   UNL     1       7.393   6.638  16.845  0.00  0.00    +0.000 NA
ATOM     25  C   UNL     1       7.447   7.995  17.409  0.00  0.00    +0.000 C 
ENDBRANCH  18  19
ENDBRANCH  17  18
ENDBRANCH   7  17
TORSDOF 4
ENDMDL
MODEL 6
REMARK VINA RESULT:      -6.5      2.247      4.529
REMARK  Name = 
REMARK  6 active torsions:
REMARK  status: ('A' for Active; 'I' for Inactive)
REMARK    1  A    between atoms: C_1  and  S_2
REMARK    2  A    between atoms: S_2  and  C_3
REMARK    3  A    between atoms: N_9  and  C_10
REMARK    4  A    between atoms: C_10  and  C_11
REMARK    5  A    between atoms: C_11  and  C_12
REMARK    6  A    between atoms: N_17  and  C_18
REMARK                            x       y       z     vdW  Elec       q    Type
REMARK                         _______ _______ _______ _____ _____    ______ ____
ROOT
ATOM      1  C   UNL     1       0.740   9.062  21.531  0.00  0.00    +0.000 A 
ATOM      2  C   UNL     1       0.630   9.961  20.474  0.00  0.00    +0.000 A 
ATOM      3  C   UNL     1       1.150   9.641  19.228  0.00  0.00    +0.000 A 
ATOM      4  C   UNL     1       1.784   8.414  19.017  0.00  0.00    +0.000 A 
ATOM      5  C   UNL     1       1.856   7.460  20.053  0.00  0.00    +0.000 A 
ATOM      6  C   UNL     1       1.318   7.797  21.322  0.00  0.00    +0.000 A 
ATOM      7  N   UNL     1       2.517   6.206  19.826  0.00  0.00    +0.000 N 
ATOM      8  C   UNL     1       3.708   6.219  19.044  0.00  0.00    +0.000 A 
ATOM      9  C   UNL     1       4.821   5.413  19.401  0.00  0.00    +0.000 A 
ATOM     10  C   UNL     1       6.018   5.491  18.684  0.00  0.00    +0.000 A 
ATOM     11  C   UNL     1       6.126   6.362  17.603  0.00  0.00    +0.000 A 
ATOM     12  C   UNL     1       5.040   7.155  17.230  0.00  0.00    +0.000 A 
ATOM     13  C   UNL     1       3.842   7.092  17.946  0.00  0.00    +0.000 A 
ATOM     14  S   UNL     1       2.447   8.074  17.393  0.00  0.00    +0.000 S 
ENDROOT
BRANCH   1  16
ATOM     15  C   UNL     1      -0.788  11.105  22.603  0.00  0.00    +0.000 C 
ATOM     16  S   UNL     1       0.092   9.579  23.122  0.00  0.00    +0.000 S 
ENDBRANCH   1  16
BRANCH   7  17
ATOM     17  C   UNL     1       2.037   4.974  20.436  0.00  0.00    +0.000 C 
BRANCH  17  18
ATOM     18  C   UNL     1       1.071   4.230  19.486  0.00  0.00    +0.000 C 
BRANCH  18  19
ATOM     19  C   UNL     1       1.196   2.664  19.479  0.00  0.00    +0.000 C 
ATOM     20  C   UNL     1       1.777   2.076  18.169  0.00  0.00    +0.000 C 
ATOM     21  C   UNL     1       3.257   2.450  18.013  0.00  0.00    +0.000 C 
ATOM     22  C   UNL     1       4.044   1.958  19.234  0.00  0.00    +0.000 C 
ATOM     23  C   UNL     1       3.433   2.503  20.531  0.00  0.00    +0.000 C 
ATOM     24  N   UNL     1       2.001   2.135  20.612  0.00  0.00    +0.000 NA
ATOM     25  C   UNL     1       1.440   2.449  21.935  0.00  0.00    +0.000 C 
ENDBRANCH  18  19
ENDBRANCH  17  18
ENDBRANCH   7  17
TORSDOF 4
ENDMDL
MODEL 7
REMARK VINA RESULT:      -6.4      2.049      4.514
REMARK  Name = 
REMARK  6 active torsions:
REMARK  status: ('A' for Active; 'I' for Inactive)
REMARK    1  A    between atoms: C_1  and  S_2
REMARK    2  A    between atoms: S_2  and  C_3
REMARK    3  A    between atoms: N_9  and  C_10
REMARK    4  A    between atoms: C_10  and  C_11
REMARK    5  A    between atoms: C_11  and  C_12
REMARK    6  A    between atoms: N_17  and  C_18
REMARK                            x       y       z     vdW  Elec       q    Type
REMARK                         _______ _______ _______ _____ _____    ______ ____
ROOT
ATOM      1  C   UNL     1       1.127   9.193  20.053  0.00  0.00    +0.000 A 
ATOM      2  C   UNL     1       1.215   9.864  18.837  0.00  0.00    +0.000 A 
ATOM      3  C   UNL     1       1.959   9.328  17.797  0.00  0.00    +0.000 A 
ATOM      4  C   UNL     1       2.625   8.110  17.952  0.00  0.00    +0.000 A 
ATOM      5  C   UNL     1       2.503   7.378  19.153  0.00  0.00    +0.000 A 
ATOM      6  C   UNL     1       1.737   7.934  20.209  0.00  0.00    +0.000 A 
ATOM      7  N   UNL     1       3.198   6.132  19.303  0.00  0.00    +0.000 N 
ATOM      8  C   UNL     1       4.514   6.038  18.767  0.00  0.00    +0.000 A 
ATOM      9  C   UNL     1       5.541   5.361  19.474  0.00  0.00    +0.000 A 
ATOM     10  C   UNL     1       6.852   5.345  18.988  0.00  0.00    +0.000 A 
ATOM     11  C   UNL     1       7.159   5.993  17.794  0.00  0.00    +0.000 A 
ATOM     12  C   UNL     1       6.160   6.655  17.079  0.00  0.00    +0.000 A 
ATOM     13  C   UNL     1       4.850   6.686  17.561  0.00  0.00    +0.000 A 
ATOM     14  S   UNL     1       3.581   7.487  16.578  0.00  0.00    +0.000 S 
ENDROOT
BRANCH   1  16
ATOM     15  C   UNL     1      -0.555  11.361  20.407  0.00  0.00    +0.000 C 
ATOM     16  S   UNL     1       0.191   9.983  21.364  0.00  0.00    +0.000 S 
ENDBRANCH   1  16
BRANCH   7  17
ATOM     17  C   UNL     1       2.614   5.024  20.047  0.00  0.00    +0.000 C 
BRANCH  17  18
ATOM     18  C   UNL     1       1.456   4.377  19.253  0.00  0.00    +0.000 C 
BRANCH  18  19
ATOM     19  C   UNL     1       1.445   2.806  19.225  0.00  0.00    +0.000 C 
ATOM     20  C   UNL     1       2.092   2.187  17.960  0.00  0.00    +0.000 C 
ATOM     21  C   UNL     1       3.606   2.430  17.947  0.00  0.00    +0.000 C 
ATOM     22  C   UNL     1       4.232   1.856  19.224  0.00  0.00    +0.000 C 
ATOM     23  C   UNL     1       3.555   2.435  20.471  0.00  0.00    +0.000 C 
ATOM     24  N   UNL     1       2.095   2.193  20.415  0.00  0.00    +0.000 NA
ATOM     25  C   UNL     1       1.444   2.539  21.688  0.00  0.00    +0.000 C 
ENDBRANCH  18  19
ENDBRANCH  17  18
ENDBRANCH   7  17
TORSDOF 4
ENDMDL
MODEL 8
REMARK VINA RESULT:      -6.3      6.591      8.480
REMARK  Name = 
REMARK  6 active torsions:
REMARK  status: ('A' for Active; 'I' for Inactive)
REMARK    1  A    between atoms: C_1  and  S_2
REMARK    2  A    between atoms: S_2  and  C_3
REMARK    3  A    between atoms: N_9  and  C_10
REMARK    4  A    between atoms: C_10  and  C_11
REMARK    5  A    between atoms: C_11  and  C_12
REMARK    6  A    between atoms: N_17  and  C_18
REMARK                            x       y       z     vdW  Elec       q    Type
REMARK                         _______ _______ _______ _____ _____    ______ ____
ROOT
ATOM      1  C   UNL     1      -3.437  11.515  17.446  0.00  0.00    +0.000 A 
ATOM      2  C   UNL     1      -4.356  12.031  18.354  0.00  0.00    +0.000 A 
ATOM      3  C   UNL     1      -3.968  12.311  19.657  0.00  0.00    +0.000 A 
ATOM      4  C   UNL     1      -2.654  12.083  20.072  0.00  0.00    +0.000 A 
ATOM      5  C   UNL     1      -1.687  11.618  19.156  0.00  0.00    +0.000 A 
ATOM      6  C   UNL     1      -2.094  11.338  17.826  0.00  0.00    +0.000 A 
ATOM      7  N   UNL     1      -0.342  11.381  19.597  0.00  0.00    +0.000 N 
ATOM      8  C   UNL     1      -0.160  10.804  20.886  0.00  0.00    +0.000 A 
ATOM      9  C   UNL     1       0.831   9.811  21.105  0.00  0.00    +0.000 A 
ATOM     10  C   UNL     1       0.951   9.184  22.349  0.00  0.00    +0.000 A 
ATOM     11  C   UNL     1       0.096   9.536  23.390  0.00  0.00    +0.000 A 
ATOM     12  C   UNL     1      -0.878  10.518  23.197  0.00  0.00    +0.000 A 
ATOM     13  C   UNL     1      -1.012  11.143  21.956  0.00  0.00    +0.000 A 
ATOM     14  S   UNL     1      -2.228  12.448  21.768  0.00  0.00    +0.000 S 
ENDROOT
BRANCH   1  16
ATOM     15  C   UNL     1      -2.787   9.869  15.319  0.00  0.00    +0.000 C 
ATOM     16  S   UNL     1      -4.035  11.128  15.800  0.00  0.00    +0.000 S 
ENDBRANCH   1  16
BRANCH   7  17
ATOM     17  C   UNL     1       0.798  11.645  18.729  0.00  0.00    +0.000 C 
BRANCH  17  18
ATOM     18  C   UNL     1       0.936  13.158  18.447  0.00  0.00    +0.000 C 
BRANCH  18  19
ATOM     19  C   UNL     1       1.859  13.953  19.441  0.00  0.00    +0.000 C 
ATOM     20  C   UNL     1       3.307  14.167  18.934  0.00  0.00    +0.000 C 
ATOM     21  C   UNL     1       3.330  15.131  17.740  0.00  0.00    +0.000 C 
ATOM     22  C   UNL     1       2.684  16.462  18.140  0.00  0.00    +0.000 C 
ATOM     23  C   UNL     1       1.269  16.239  18.687  0.00  0.00    +0.000 C 
ATOM     24  N   UNL     1       1.307  15.283  19.818  0.00  0.00    +0.000 NA
ATOM     25  C   UNL     1       0.008  15.211  20.504  0.00  0.00    +0.000 C 
ENDBRANCH  18  19
ENDBRANCH  17  18
ENDBRANCH   7  17
TORSDOF 4
ENDMDL
MODEL 9
REMARK VINA RESULT:      -6.2      6.536      8.485
REMARK  Name = 
REMARK  6 active torsions:
REMARK  status: ('A' for Active; 'I' for Inactive)
REMARK    1  A    between atoms: C_1  and  S_2
REMARK    2  A    between atoms: S_2  and  C_3
REMARK    3  A    between atoms: N_9  and  C_10
REMARK    4  A    between atoms: C_10  and  C_11
REMARK    5  A    between atoms: C_11  and  C_12
REMARK    6  A    between atoms: N_17  and  C_18
REMARK                            x       y       z     vdW  Elec       q    Type
REMARK                         _______ _______ _______ _____ _____    ______ ____
ROOT
ATOM      1  C   UNL     1      -3.276  11.471  17.350  0.00  0.00    +0.000 A 
ATOM      2  C   UNL     1      -4.216  12.001  18.229  0.00  0.00    +0.000 A 
ATOM      3  C   UNL     1      -3.862  12.285  19.540  0.00  0.00    +0.000 A 
ATOM      4  C   UNL     1      -2.562  12.047  19.994  0.00  0.00    +0.000 A 
ATOM      5  C   UNL     1      -1.574  11.567  19.108  0.00  0.00    +0.000 A 
ATOM      6  C   UNL     1      -1.946  11.284  17.769  0.00  0.00    +0.000 A 
ATOM      7  N   UNL     1      -0.244  11.319  19.587  0.00  0.00    +0.000 N 
ATOM      8  C   UNL     1      -0.104  10.747  20.885  0.00  0.00    +0.000 A 
ATOM      9  C   UNL     1       0.870   9.746  21.137  0.00  0.00    +0.000 A 
ATOM     10  C   UNL     1       0.948   9.125  22.387  0.00  0.00    +0.000 A 
ATOM     11  C   UNL     1       0.068   9.492  23.402  0.00  0.00    +0.000 A 
ATOM     12  C   UNL     1      -0.890  10.481  23.176  0.00  0.00    +0.000 A 
ATOM     13  C   UNL     1      -0.983  11.101  21.928  0.00  0.00    +0.000 A 
ATOM     14  S   UNL     1      -2.180  12.417  21.699  0.00  0.00    +0.000 S 
ENDROOT
BRANCH   1  16
ATOM     15  C   UNL     1      -2.729   9.655  15.336  0.00  0.00    +0.000 C 
ATOM     16  S   UNL     1      -3.832  11.080  15.690  0.00  0.00    +0.000 S 
ENDBRANCH   1  16
BRANCH   7  17
ATOM     17  C   UNL     1       0.922  11.566  18.750  0.00  0.00    +0.000 C 
BRANCH  17  18
ATOM     18  C   UNL     1       1.706  12.801  19.251  0.00  0.00    +0.000 C 
BRANCH  18  19
ATOM     19  C   UNL     1       1.410  14.147  18.497  0.00  0.00    +0.000 C 
ATOM     20  C   UNL     1       0.038  14.781  18.839  0.00  0.00    +0.000 C 
ATOM     21  C   UNL     1       0.018  15.291  20.286  0.00  0.00    +0.000 C 
ATOM     22  C   UNL     1       1.157  16.296  20.493  0.00  0.00    +0.000 C 
ATOM     23  C   UNL     1       2.506  15.679  20.107  0.00  0.00    +0.000 C 
ATOM     24  N   UNL     1       2.456  15.183  18.712  0.00  0.00    +0.000 NA
ATOM     25  C   UNL     1       3.790  14.785  18.236  0.00  0.00    +0.000 C 
ENDBRANCH  18  19
ENDBRANCH  17  18
ENDBRANCH   7  17
TORSDOF 4
ENDMDL
