MODEL 1
REMARK VINA RESULT:      -6.3      0.000      0.000
REMARK  Name = 
REMARK  6 active torsions:
REMARK  status: ('A' for Active; 'I' for Inactive)
REMARK    1  A    between atoms: O_1  and  C_2
REMARK    2  A    between atoms: C_2  and  C_3
REMARK    3  A    between atoms: C_3  and  C_4
REMARK    4  A    between atoms: C_4  and  N_5
REMARK    5  A    between atoms: N_5  and  C_6
REMARK    6  A    between atoms: N_14  and  C_15
REMARK                            x       y       z     vdW  Elec       q    Type
REMARK                         _______ _______ _______ _____ _____    ______ ____
ROOT
ATOM      1  C   UNL     1       6.313   4.989  15.955  0.00  0.00    +0.000 A 
ATOM      2  N   UNL     1       7.186   6.006  16.147  0.00  0.00    +0.000 NA
ATOM      3  C   UNL     1       6.820   7.041  16.923  0.00  0.00    +0.000 A 
ATOM      4  N   UNL     1       5.655   7.221  17.560  0.00  0.00    +0.000 NA
ATOM      5  C   UNL     1       4.799   6.198  17.357  0.00  0.00    +0.000 A 
ATOM      6  C   UNL     1       5.067   5.075  16.592  0.00  0.00    +0.000 A 
ATOM      7  C   UNL     1       3.913   4.283  16.704  0.00  0.00    +0.000 A 
ATOM      8  N   UNL     1       2.979   4.828  17.482  0.00  0.00    +0.000 NA
ATOM      9  N   UNL     1       3.509   6.033  17.859  0.00  0.00    +0.000 N 
ENDROOT
BRANCH   9  10
ATOM     10  C   UNL     1       2.734   6.922  18.666  0.00  0.00    +0.000 A 
ATOM     11  C   UNL     1       2.387   6.537  19.974  0.00  0.00    +0.000 A 
ATOM     12  C   UNL     1       1.633   7.388  20.787  0.00  0.00    +0.000 A 
ATOM     13  C   UNL     1       1.209   8.620  20.296  0.00  0.00    +0.000 A 
ATOM     14 CL   UNL     1       0.276   9.666  21.291  0.00  0.00    +0.000 Cl
ATOM     15  C   UNL     1       1.538   9.009  18.999  0.00  0.00    +0.000 A 
ATOM     16  C   UNL     1       2.301   8.165  18.185  0.00  0.00    +0.000 A 
ENDBRANCH   9  10
BRANCH   1  17
ATOM     17  N   UNL     1       6.650   3.913  15.133  0.00  0.00    +0.000 N 
ATOM     18  H   UNL     1       7.652   3.757  15.104  0.00  0.00    +0.000 HD
BRANCH  17  19
ATOM     19  C   UNL     1       6.028   3.922  13.813  0.00  0.00    +0.000 C 
BRANCH  19  20
ATOM     20  C   UNL     1       7.131   3.900  12.755  0.00  0.00    +0.000 C 
BRANCH  20  21
ATOM     21  C   UNL     1       7.625   5.297  12.416  0.00  0.00    +0.000 C 
BRANCH  21  22
ATOM     22  O   UNL     1       8.511   5.751  13.428  0.00  0.00    +0.000 OA
ATOM     23  H   UNL     1       8.549   6.722  13.361  0.00  0.00    +0.000 HD
ENDBRANCH  21  22
ENDBRANCH  20  21
ENDBRANCH  19  20
ENDBRANCH  17  19
ENDBRANCH   1  17
TORSDOF 6
ENDMDL
MODEL 2
REMARK VINA RESULT:      -6.3      2.107      3.740
REMARK  Name = 
REMARK  6 active torsions:
REMARK  status: ('A' for Active; 'I' for Inactive)
REMARK    1  A    between atoms: O_1  and  C_2
REMARK    2  A    between atoms: C_2  and  C_3
REMARK    3  A    between atoms: C_3  and  C_4
REMARK    4  A    between atoms: C_4  and  N_5
REMARK    5  A    between atoms: N_5  and  C_6
REMARK    6  A    between atoms: N_14  and  C_15
REMARK                            x       y       z     vdW  Elec       q    Type
REMARK                         _______ _______ _______ _____ _____    ______ ____
ROOT
ATOM      1  C   UNL     1       3.712   5.661  17.918  0.00  0.00    +0.000 A 
ATOM      2  N   UNL     1       3.556   4.693  18.852  0.00  0.00    +0.000 NA
ATOM      3  C   UNL     1       2.811   4.953  19.940  0.00  0.00    +0.000 A 
ATOM      4  N   UNL     1       2.173   6.091  20.249  0.00  0.00    +0.000 NA
ATOM      5  C   UNL     1       2.341   7.041  19.307  0.00  0.00    +0.000 A 
ATOM      6  C   UNL     1       3.072   6.887  18.141  0.00  0.00    +0.000 A 
ATOM      7  C   UNL     1       2.931   8.111  17.467  0.00  0.00    +0.000 A 
ATOM      8  N   UNL     1       2.166   8.982  18.122  0.00  0.00    +0.000 NA
ATOM      9  N   UNL     1       1.828   8.338  19.281  0.00  0.00    +0.000 N 
ENDROOT
BRANCH   9  10
ATOM     10  C   UNL     1       1.045   9.018  20.264  0.00  0.00    +0.000 A 
ATOM     11  C   UNL     1       0.151  10.024  19.854  0.00  0.00    +0.000 A 
ATOM     12  C   UNL     1      -0.630  10.704  20.793  0.00  0.00    +0.000 A 
ATOM     13  C   UNL     1      -0.515  10.394  22.146  0.00  0.00    +0.000 A 
ATOM     14 CL   UNL     1      -1.470  11.232  23.304  0.00  0.00    +0.000 Cl
ATOM     15  C   UNL     1       0.373   9.406  22.565  0.00  0.00    +0.000 A 
ATOM     16  C   UNL     1       1.149   8.716  21.629  0.00  0.00    +0.000 A 
ENDBRANCH   9  10
BRANCH   1  17
ATOM     17  N   UNL     1       4.503   5.434  16.791  0.00  0.00    +0.000 N 
ATOM     18  H   UNL     1       4.177   5.960  15.986  0.00  0.00    +0.000 HD
BRANCH  17  19
ATOM     19  C   UNL     1       4.772   4.031  16.493  0.00  0.00    +0.000 C 
BRANCH  19  20
ATOM     20  C   UNL     1       6.134   3.930  15.808  0.00  0.00    +0.000 C 
BRANCH  20  21
ATOM     21  C   UNL     1       7.228   4.618  16.609  0.00  0.00    +0.000 C 
BRANCH  21  22
ATOM     22  O   UNL     1       7.424   5.936  16.121  0.00  0.00    +0.000 OA
ATOM     23  H   UNL     1       8.348   5.997  15.821  0.00  0.00    +0.000 HD
ENDBRANCH  21  22
ENDBRANCH  20  21
ENDBRANCH  19  20
ENDBRANCH  17  19
ENDBRANCH   1  17
TORSDOF 6
ENDMDL
MODEL 3
REMARK VINA RESULT:      -6.3      1.294      1.723
REMARK  Name = 
REMARK  6 active torsions:
REMARK  status: ('A' for Active; 'I' for Inactive)
REMARK    1  A    between atoms: O_1  and  C_2
REMARK    2  A    between atoms: C_2  and  C_3
REMARK    3  A    between atoms: C_3  and  C_4
REMARK    4  A    between atoms: C_4  and  N_5
REMARK    5  A    between atoms: N_5  and  C_6
REMARK    6  A    between atoms: N_14  and  C_15
REMARK                            x       y       z     vdW  Elec       q    Type
REMARK                         _______ _______ _______ _____ _____    ______ ____
ROOT
ATOM      1  C   UNL     1       6.160   4.920  16.257  0.00  0.00    +0.000 A 
ATOM      2  N   UNL     1       7.057   5.927  16.378  0.00  0.00    +0.000 NA
ATOM      3  C   UNL     1       6.701   7.040  17.041  0.00  0.00    +0.000 A 
ATOM      4  N   UNL     1       5.525   7.312  17.622  0.00  0.00    +0.000 NA
ATOM      5  C   UNL     1       4.645   6.297  17.492  0.00  0.00    +0.000 A 
ATOM      6  C   UNL     1       4.901   5.100  16.845  0.00  0.00    +0.000 A 
ATOM      7  C   UNL     1       3.721   4.354  16.996  0.00  0.00    +0.000 A 
ATOM      8  N   UNL     1       2.782   4.996  17.690  0.00  0.00    +0.000 NA
ATOM      9  N   UNL     1       3.337   6.216  17.967  0.00  0.00    +0.000 N 
ENDROOT
BRANCH   9  10
ATOM     10  C   UNL     1       2.566   7.199  18.662  0.00  0.00    +0.000 A 
ATOM     11  C   UNL     1       2.136   8.347  17.974  0.00  0.00    +0.000 A 
ATOM     12  C   UNL     1       1.378   9.323  18.628  0.00  0.00    +0.000 A 
ATOM     13  C   UNL     1       1.057   9.166  19.973  0.00  0.00    +0.000 A 
ATOM     14 CL   UNL     1       0.131  10.367  20.781  0.00  0.00    +0.000 Cl
ATOM     15  C   UNL     1       1.486   8.038  20.669  0.00  0.00    +0.000 A 
ATOM     16  C   UNL     1       2.236   7.054  20.017  0.00  0.00    +0.000 A 
ENDBRANCH   9  10
BRANCH   1  17
ATOM     17  N   UNL     1       6.488   3.762  15.551  0.00  0.00    +0.000 N 
ATOM     18  H   UNL     1       7.225   3.235  16.007  0.00  0.00    +0.000 HD
BRANCH  17  19
ATOM     19  C   UNL     1       6.710   3.948  14.121  0.00  0.00    +0.000 C 
BRANCH  19  20
ATOM     20  C   UNL     1       5.415   3.617  13.379  0.00  0.00    +0.000 C 
BRANCH  20  21
ATOM     21  C   UNL     1       5.671   3.211  11.937  0.00  0.00    +0.000 C 
BRANCH  21  22
ATOM     22  O   UNL     1       6.060   1.847  11.885  0.00  0.00    +0.000 OA
ATOM     23  H   UNL     1       5.641   1.458  11.097  0.00  0.00    +0.000 HD
ENDBRANCH  21  22
ENDBRANCH  20  21
ENDBRANCH  19  20
ENDBRANCH  17  19
ENDBRANCH   1  17
TORSDOF 6
ENDMDL
MODEL 4
REMARK VINA RESULT:      -6.3      1.149      1.260
REMARK  Name = 
REMARK  6 active torsions:
REMARK  status: ('A' for Active; 'I' for Inactive)
REMARK    1  A    between atoms: O_1  and  C_2
REMARK    2  A    between atoms: C_2  and  C_3
REMARK    3  A    between atoms: C_3  and  C_4
REMARK    4  A    between atoms: C_4  and  N_5
REMARK    5  A    between atoms: N_5  and  C_6
REMARK    6  A    between atoms: N_14  and  C_15
REMARK                            x       y       z     vdW  Elec       q    Type
REMARK                         _______ _______ _______ _____ _____    ______ ____
ROOT
ATOM      1  C   UNL     1       6.116   4.862  16.199  0.00  0.00    +0.000 A 
ATOM      2  N   UNL     1       7.020   5.866  16.292  0.00  0.00    +0.000 NA
ATOM      3  C   UNL     1       6.678   6.991  16.943  0.00  0.00    +0.000 A 
ATOM      4  N   UNL     1       5.512   7.277  17.538  0.00  0.00    +0.000 NA
ATOM      5  C   UNL     1       4.625   6.265  17.435  0.00  0.00    +0.000 A 
ATOM      6  C   UNL     1       4.866   5.057  16.802  0.00  0.00    +0.000 A 
ATOM      7  C   UNL     1       3.685   4.319  16.981  0.00  0.00    +0.000 A 
ATOM      8  N   UNL     1       2.759   4.976  17.679  0.00  0.00    +0.000 NA
ATOM      9  N   UNL     1       3.324   6.197  17.930  0.00  0.00    +0.000 N 
ENDROOT
BRANCH   9  10
ATOM     10  C   UNL     1       2.568   7.194  18.621  0.00  0.00    +0.000 A 
ATOM     11  C   UNL     1       2.252   6.999  19.978  0.00  0.00    +0.000 A 
ATOM     12  C   UNL     1       1.517   7.959  20.680  0.00  0.00    +0.000 A 
ATOM     13  C   UNL     1       1.083   9.111  20.031  0.00  0.00    +0.000 A 
ATOM     14 CL   UNL     1       0.174  10.291  20.890  0.00  0.00    +0.000 Cl
ATOM     15  C   UNL     1       1.381   9.312  18.685  0.00  0.00    +0.000 A 
ATOM     16  C   UNL     1       2.124   8.359  17.981  0.00  0.00    +0.000 A 
ENDBRANCH   9  10
BRANCH   1  17
ATOM     17  N   UNL     1       6.428   3.691  15.507  0.00  0.00    +0.000 N 
ATOM     18  H   UNL     1       7.139   3.147  15.982  0.00  0.00    +0.000 HD
BRANCH  17  19
ATOM     19  C   UNL     1       6.689   3.865  14.081  0.00  0.00    +0.000 C 
BRANCH  19  20
ATOM     20  C   UNL     1       5.352   3.905  13.342  0.00  0.00    +0.000 C 
BRANCH  20  21
ATOM     21  C   UNL     1       5.400   3.132  12.033  0.00  0.00    +0.000 C 
BRANCH  21  22
ATOM     22  O   UNL     1       6.633   2.437  11.932  0.00  0.00    +0.000 OA
ATOM     23  H   UNL     1       7.068   2.741  11.116  0.00  0.00    +0.000 HD
ENDBRANCH  21  22
ENDBRANCH  20  21
ENDBRANCH  19  20
ENDBRANCH  17  19
ENDBRANCH   1  17
TORSDOF 6
ENDMDL
MODEL 5
REMARK VINA RESULT:      -6.2      2.054      3.225
REMARK  Name = 
REMARK  6 active torsions:
REMARK  status: ('A' for Active; 'I' for Inactive)
REMARK    1  A    between atoms: O_1  and  C_2
REMARK    2  A    between atoms: C_2  and  C_3
REMARK    3  A    between atoms: C_3  and  C_4
REMARK    4  A    between atoms: C_4  and  N_5
REMARK    5  A    between atoms: N_5  and  C_6
REMARK    6  A    between atoms: N_14  and  C_15
REMARK                            x       y       z     vdW  Elec       q    Type
REMARK                         _______ _______ _______ _____ _____    ______ ____
ROOT
ATOM      1  C   UNL     1       4.025   3.924  17.395  0.00  0.00    +0.000 A 
ATOM      2  N   UNL     1       3.043   3.115  17.859  0.00  0.00    +0.000 NA
ATOM      3  C   UNL     1       1.976   3.666  18.462  0.00  0.00    +0.000 A 
ATOM      4  N   UNL     1       1.737   4.965  18.687  0.00  0.00    +0.000 NA
ATOM      5  C   UNL     1       2.725   5.754  18.217  0.00  0.00    +0.000 A 
ATOM      6  C   UNL     1       3.863   5.305  17.568  0.00  0.00    +0.000 A 
ATOM      7  C   UNL     1       4.569   6.473  17.238  0.00  0.00    +0.000 A 
ATOM      8  N   UNL     1       3.947   7.586  17.621  0.00  0.00    +0.000 NA
ATOM      9  N   UNL     1       2.821   7.145  18.262  0.00  0.00    +0.000 N 
ENDROOT
BRANCH   9  10
ATOM     10  C   UNL     1       1.935   8.091  18.864  0.00  0.00    +0.000 A 
ATOM     11  C   UNL     1       1.354   9.092  18.065  0.00  0.00    +0.000 A 
ATOM     12  C   UNL     1       0.481  10.029  18.625  0.00  0.00    +0.000 A 
ATOM     13  C   UNL     1       0.194   9.982  19.987  0.00  0.00    +0.000 A 
ATOM     14 CL   UNL     1      -0.874  11.136  20.681  0.00  0.00    +0.000 Cl
ATOM     15  C   UNL     1       0.771   9.001  20.791  0.00  0.00    +0.000 A 
ATOM     16  C   UNL     1       1.637   8.055  20.233  0.00  0.00    +0.000 A 
ENDBRANCH   9  10
BRANCH   1  17
ATOM     17  N   UNL     1       5.159   3.383  16.788  0.00  0.00    +0.000 N 
ATOM     18  H   UNL     1       5.928   3.281  17.442  0.00  0.00    +0.000 HD
BRANCH  17  19
ATOM     19  C   UNL     1       5.551   4.014  15.531  0.00  0.00    +0.000 C 
BRANCH  19  20
ATOM     20  C   UNL     1       7.058   4.272  15.564  0.00  0.00    +0.000 C 
BRANCH  20  21
ATOM     21  C   UNL     1       7.497   4.919  16.867  0.00  0.00    +0.000 C 
BRANCH  21  22
ATOM     22  O   UNL     1       8.231   3.985  17.644  0.00  0.00    +0.000 OA
ATOM     23  H   UNL     1       8.767   4.496  18.277  0.00  0.00    +0.000 HD
ENDBRANCH  21  22
ENDBRANCH  20  21
ENDBRANCH  19  20
ENDBRANCH  17  19
ENDBRANCH   1  17
TORSDOF 6
ENDMDL
MODEL 6
REMARK VINA RESULT:      -6.1      1.569      2.720
REMARK  Name = 
REMARK  6 active torsions:
REMARK  status: ('A' for Active; 'I' for Inactive)
REMARK    1  A    between atoms: O_1  and  C_2
REMARK    2  A    between atoms: C_2  and  C_3
REMARK    3  A    between atoms: C_3  and  C_4
REMARK    4  A    between atoms: C_4  and  N_5
REMARK    5  A    between atoms: N_5  and  C_6
REMARK    6  A    between atoms: N_14  and  C_15
REMARK                            x       y       z     vdW  Elec       q    Type
REMARK                         _______ _______ _______ _____ _____    ______ ____
ROOT
ATOM      1  C   UNL     1       4.752   3.785  16.814  0.00  0.00    +0.000 A 
ATOM      2  N   UNL     1       3.867   2.883  17.300  0.00  0.00    +0.000 NA
ATOM      3  C   UNL     1       2.804   3.323  17.994  0.00  0.00    +0.000 A 
ATOM      4  N   UNL     1       2.482   4.589  18.294  0.00  0.00    +0.000 NA
ATOM      5  C   UNL     1       3.375   5.472  17.801  0.00  0.00    +0.000 A 
ATOM      6  C   UNL     1       4.498   5.141  17.061  0.00  0.00    +0.000 A 
ATOM      7  C   UNL     1       5.091   6.373  16.743  0.00  0.00    +0.000 A 
ATOM      8  N   UNL     1       4.413   7.417  17.217  0.00  0.00    +0.000 NA
ATOM      9  N   UNL     1       3.369   6.863  17.906  0.00  0.00    +0.000 N 
ENDROOT
BRANCH   9  10
ATOM     10  C   UNL     1       2.456   7.711  18.605  0.00  0.00    +0.000 A 
ATOM     11  C   UNL     1       1.867   8.794  17.928  0.00  0.00    +0.000 A 
ATOM     12  C   UNL     1       0.969   9.638  18.586  0.00  0.00    +0.000 A 
ATOM     13  C   UNL     1       0.662   9.415  19.926  0.00  0.00    +0.000 A 
ATOM     14 CL   UNL     1      -0.438  10.455  20.740  0.00  0.00    +0.000 Cl
ATOM     15  C   UNL     1       1.246   8.352  20.611  0.00  0.00    +0.000 A 
ATOM     16  C   UNL     1       2.138   7.499  19.954  0.00  0.00    +0.000 A 
ENDBRANCH   9  10
BRANCH   1  17
ATOM     17  N   UNL     1       5.881   3.361  16.112  0.00  0.00    +0.000 N 
ATOM     18  H   UNL     1       6.633   3.084  16.734  0.00  0.00    +0.000 HD
BRANCH  17  19
ATOM     19  C   UNL     1       6.316   4.251  15.040  0.00  0.00    +0.000 C 
BRANCH  19  20
ATOM     20  C   UNL     1       5.517   3.921  13.779  0.00  0.00    +0.000 C 
BRANCH  20  21
ATOM     21  C   UNL     1       6.420   3.555  12.612  0.00  0.00    +0.000 C 
BRANCH  21  22
ATOM     22  O   UNL     1       6.021   2.305  12.071  0.00  0.00    +0.000 OA
ATOM     23  H   UNL     1       5.624   1.791  12.798  0.00  0.00    +0.000 HD
ENDBRANCH  21  22
ENDBRANCH  20  21
ENDBRANCH  19  20
ENDBRANCH  17  19
ENDBRANCH   1  17
TORSDOF 6
ENDMDL
MODEL 7
REMARK VINA RESULT:      -6.1      2.740      4.216
REMARK  Name = 
REMARK  6 active torsions:
REMARK  status: ('A' for Active; 'I' for Inactive)
REMARK    1  A    between atoms: O_1  and  C_2
REMARK    2  A    between atoms: C_2  and  C_3
REMARK    3  A    between atoms: C_3  and  C_4
REMARK    4  A    between atoms: C_4  and  N_5
REMARK    5  A    between atoms: N_5  and  C_6
REMARK    6  A    between atoms: N_14  and  C_15
REMARK                            x       y       z     vdW  Elec       q    Type
REMARK                         _______ _______ _______ _____ _____    ______ ____
ROOT
ATOM      1  C   UNL     1       3.796   5.620  18.020  0.00  0.00    +0.000 A 
ATOM      2  N   UNL     1       3.693   4.694  19.001  0.00  0.00    +0.000 NA
ATOM      3  C   UNL     1       2.956   4.977  20.089  0.00  0.00    +0.000 A 
ATOM      4  N   UNL     1       2.281   6.103  20.356  0.00  0.00    +0.000 NA
ATOM      5  C   UNL     1       2.395   7.013  19.367  0.00  0.00    +0.000 A 
ATOM      6  C   UNL     1       3.113   6.831  18.196  0.00  0.00    +0.000 A 
ATOM      7  C   UNL     1       2.913   8.015  17.468  0.00  0.00    +0.000 A 
ATOM      8  N   UNL     1       2.125   8.887  18.095  0.00  0.00    +0.000 NA
ATOM      9  N   UNL     1       1.832   8.286  19.289  0.00  0.00    +0.000 N 
ENDROOT
BRANCH   9  10
ATOM     10  C   UNL     1       1.040   8.983  20.253  0.00  0.00    +0.000 A 
ATOM     11  C   UNL     1       0.351  10.146  19.864  0.00  0.00    +0.000 A 
ATOM     12  C   UNL     1      -0.434  10.846  20.785  0.00  0.00    +0.000 A 
ATOM     13  C   UNL     1      -0.527  10.398  22.100  0.00  0.00    +0.000 A 
ATOM     14 CL   UNL     1      -1.487  11.260  23.236  0.00  0.00    +0.000 Cl
ATOM     15  C   UNL     1       0.159   9.252  22.499  0.00  0.00    +0.000 A 
ATOM     16  C   UNL     1       0.937   8.543  21.580  0.00  0.00    +0.000 A 
ENDBRANCH   9  10
BRANCH   1  17
ATOM     17  N   UNL     1       4.575   5.370  16.890  0.00  0.00    +0.000 N 
ATOM     18  H   UNL     1       4.090   4.789  16.215  0.00  0.00    +0.000 HD
BRANCH  17  19
ATOM     19  C   UNL     1       5.938   4.924  17.162  0.00  0.00    +0.000 C 
BRANCH  19  20
ATOM     20  C   UNL     1       6.748   6.115  17.672  0.00  0.00    +0.000 C 
BRANCH  20  21
ATOM     21  C   UNL     1       7.621   5.745  18.860  0.00  0.00    +0.000 C 
BRANCH  21  22
ATOM     22  O   UNL     1       6.812   5.237  19.909  0.00  0.00    +0.000 OA
ATOM     23  H   UNL     1       7.388   5.124  20.687  0.00  0.00    +0.000 HD
ENDBRANCH  21  22
ENDBRANCH  20  21
ENDBRANCH  19  20
ENDBRANCH  17  19
ENDBRANCH   1  17
TORSDOF 6
ENDMDL
MODEL 8
REMARK VINA RESULT:      -6.1      1.384      2.768
REMARK  Name = 
REMARK  6 active torsions:
REMARK  status: ('A' for Active; 'I' for Inactive)
REMARK    1  A    between atoms: O_1  and  C_2
REMARK    2  A    between atoms: C_2  and  C_3
REMARK    3  A    between atoms: C_3  and  C_4
REMARK    4  A    between atoms: C_4  and  N_5
REMARK    5  A    between atoms: N_5  and  C_6
REMARK    6  A    between atoms: N_14  and  C_15
REMARK                            x       y       z     vdW  Elec       q    Type
REMARK                         _______ _______ _______ _____ _____    ______ ____
ROOT
ATOM      1  C   UNL     1       4.281   3.792  17.101  0.00  0.00    +0.000 A 
ATOM      2  N   UNL     1       3.212   3.003  17.364  0.00  0.00    +0.000 NA
ATOM      3  C   UNL     1       2.103   3.561  17.880  0.00  0.00    +0.000 A 
ATOM      4  N   UNL     1       1.897   4.848  18.191  0.00  0.00    +0.000 NA
ATOM      5  C   UNL     1       2.972   5.616  17.922  0.00  0.00    +0.000 A 
ATOM      6  C   UNL     1       4.162   5.160  17.379  0.00  0.00    +0.000 A 
ATOM      7  C   UNL     1       4.958   6.309  17.247  0.00  0.00    +0.000 A 
ATOM      8  N   UNL     1       4.343   7.419  17.652  0.00  0.00    +0.000 NA
ATOM      9  N   UNL     1       3.125   6.990  18.107  0.00  0.00    +0.000 N 
ENDROOT
BRANCH   9  10
ATOM     10  C   UNL     1       2.215   7.931  18.679  0.00  0.00    +0.000 A 
ATOM     11  C   UNL     1       1.638   8.916  17.857  0.00  0.00    +0.000 A 
ATOM     12  C   UNL     1       0.742   9.847  18.389  0.00  0.00    +0.000 A 
ATOM     13  C   UNL     1       0.425   9.809  19.744  0.00  0.00    +0.000 A 
ATOM     14 CL   UNL     1      -0.673  10.956  20.403  0.00  0.00    +0.000 Cl
ATOM     15  C   UNL     1       0.997   8.844  20.571  0.00  0.00    +0.000 A 
ATOM     16  C   UNL     1       1.887   7.904  20.041  0.00  0.00    +0.000 A 
ENDBRANCH   9  10
BRANCH   1  17
ATOM     17  N   UNL     1       5.458   3.241  16.592  0.00  0.00    +0.000 N 
ATOM     18  H   UNL     1       5.969   2.720  17.296  0.00  0.00    +0.000 HD
BRANCH  17  19
ATOM     19  C   UNL     1       6.297   4.163  15.833  0.00  0.00    +0.000 C 
BRANCH  19  20
ATOM     20  C   UNL     1       6.077   3.908  14.342  0.00  0.00    +0.000 C 
BRANCH  20  21
ATOM     21  C   UNL     1       7.015   4.734  13.477  0.00  0.00    +0.000 C 
BRANCH  21  22
ATOM     22  O   UNL     1       7.869   5.511  14.302  0.00  0.00    +0.000 OA
ATOM     23  H   UNL     1       8.465   4.893  14.761  0.00  0.00    +0.000 HD
ENDBRANCH  21  22
ENDBRANCH  20  21
ENDBRANCH  19  20
ENDBRANCH  17  19
ENDBRANCH   1  17
TORSDOF 6
ENDMDL
MODEL 9
REMARK VINA RESULT:      -6.1      2.142      3.605
REMARK  Name = 
REMARK  6 active torsions:
REMARK  status: ('A' for Active; 'I' for Inactive)
REMARK    1  A    between atoms: O_1  and  C_2
REMARK    2  A    between atoms: C_2  and  C_3
REMARK    3  A    between atoms: C_3  and  C_4
REMARK    4  A    between atoms: C_4  and  N_5
REMARK    5  A    between atoms: N_5  and  C_6
REMARK    6  A    between atoms: N_14  and  C_15
REMARK                            x       y       z     vdW  Elec       q    Type
REMARK                         _______ _______ _______ _____ _____    ______ ____
ROOT
ATOM      1  C   UNL     1       3.691   4.963  18.377  0.00  0.00    +0.000 A 
ATOM      2  N   UNL     1       3.338   4.082  19.343  0.00  0.00    +0.000 NA
ATOM      3  C   UNL     1       2.528   4.492  20.334  0.00  0.00    +0.000 A 
ATOM      4  N   UNL     1       1.999   5.710  20.515  0.00  0.00    +0.000 NA
ATOM      5  C   UNL     1       2.362   6.573  19.544  0.00  0.00    +0.000 A 
ATOM      6  C   UNL     1       3.177   6.264  18.467  0.00  0.00    +0.000 A 
ATOM      7  C   UNL     1       3.241   7.449  17.716  0.00  0.00    +0.000 A 
ATOM      8  N   UNL     1       2.522   8.439  18.242  0.00  0.00    +0.000 NA
ATOM      9  N   UNL     1       2.005   7.913  19.395  0.00  0.00    +0.000 N 
ENDROOT
BRANCH   9  10
ATOM     10  C   UNL     1       1.217   8.737  20.255  0.00  0.00    +0.000 A 
ATOM     11  C   UNL     1       1.313   8.567  21.648  0.00  0.00    +0.000 A 
ATOM     12  C   UNL     1       0.556   9.362  22.514  0.00  0.00    +0.000 A 
ATOM     13  C   UNL     1      -0.310  10.321  21.995  0.00  0.00    +0.000 A 
ATOM     14 CL   UNL     1      -1.247  11.296  23.057  0.00  0.00    +0.000 Cl
ATOM     15  C   UNL     1      -0.423  10.492  20.617  0.00  0.00    +0.000 A 
ATOM     16  C   UNL     1       0.340   9.706  19.748  0.00  0.00    +0.000 A 
ENDBRANCH   9  10
BRANCH   1  17
ATOM     17  N   UNL     1       4.552   4.579  17.349  0.00  0.00    +0.000 N 
ATOM     18  H   UNL     1       4.402   3.616  17.068  0.00  0.00    +0.000 HD
BRANCH  17  19
ATOM     19  C   UNL     1       5.959   4.905  17.563  0.00  0.00    +0.000 C 
BRANCH  19  20
ATOM     20  C   UNL     1       6.735   4.573  16.288  0.00  0.00    +0.000 C 
BRANCH  20  21
ATOM     21  C   UNL     1       6.059   5.133  15.047  0.00  0.00    +0.000 C 
BRANCH  21  22
ATOM     22  O   UNL     1       5.568   6.437  15.315  0.00  0.00    +0.000 OA
ATOM     23  H   UNL     1       5.764   6.984  14.533  0.00  0.00    +0.000 HD
ENDBRANCH  21  22
ENDBRANCH  20  21
ENDBRANCH  19  20
ENDBRANCH  17  19
ENDBRANCH   1  17
TORSDOF 6
ENDMDL
