MODEL 1
REMARK VINA RESULT:      -8.0      0.000      0.000
REMARK  Name = 
REMARK  5 active torsions:
REMARK  status: ('A' for Active; 'I' for Inactive)
REMARK    1  A    between atoms: C_1  and  N_2
REMARK    2  A    between atoms: N_2  and  C_3
REMARK    3  A    between atoms: N_2  and  C_4
REMARK    4  A    between atoms: C_8  and  C_9
REMARK    5  A    between atoms: C_10  and  C_11
REMARK                            x       y       z     vdW  Elec       q    Type
REMARK                         _______ _______ _______ _____ _____    ______ ____
ROOT
ATOM      1  C   UNL     1       1.847   8.515  18.338  0.00  0.00    +0.000 C 
ATOM      2  C   UNL     1       2.392   7.417  18.889  0.00  0.00    +0.000 C 
ENDROOT
BRANCH   2   3
ATOM      3  C   UNL     1       3.149   6.438  18.097  0.00  0.00    +0.000 A 
ATOM      4  C   UNL     1       4.252   6.908  17.385  0.00  0.00    +0.000 A 
ATOM      5  C   UNL     1       4.994   6.001  16.658  0.00  0.00    +0.000 A 
ATOM      6  N   UNL     1       4.716   4.683  16.598  0.00  0.00    +0.000 NA
ATOM      7  C   UNL     1       3.654   4.226  17.282  0.00  0.00    +0.000 A 
ATOM      8  C   UNL     1       3.372   2.867  17.229  0.00  0.00    +0.000 A 
ATOM      9  C   UNL     1       2.286   2.309  17.908  0.00  0.00    +0.000 A 
ATOM     10  C   UNL     1       1.453   3.125  18.661  0.00  0.00    +0.000 A 
ATOM     11  C   UNL     1       1.715   4.491  18.736  0.00  0.00    +0.000 A 
ATOM     12  C   UNL     1       2.817   5.064  18.053  0.00  0.00    +0.000 A 
ENDBRANCH   2   3
BRANCH   1  17
ATOM     13  C   UNL     1      -0.368  11.484  20.669  0.00  0.00    +0.000 A 
ATOM     14  C   UNL     1      -0.062  11.662  19.293  0.00  0.00    +0.000 A 
ATOM     15 CL   UNL     1      -0.445  13.089  18.373  0.00  0.00    +0.000 Cl
ATOM     16  C   UNL     1       0.652  10.708  18.539  0.00  0.00    +0.000 A 
ATOM     17  C   UNL     1       1.139   9.539  19.110  0.00  0.00    +0.000 A 
ATOM     18  C   UNL     1       0.855   9.322  20.455  0.00  0.00    +0.000 A 
ATOM     19  C   UNL     1       0.118  10.260  21.213  0.00  0.00    +0.000 A 
ATOM     20 BR   UNL     1      -0.266   9.638  22.986  0.00  0.00    +0.000 Br
BRANCH  13  22
ATOM     21  C   UNL     1      -2.555  12.546  21.284  0.00  0.00    +0.000 C 
ATOM     22  N   UNL     1      -1.110  12.399  21.429  0.00  0.00    +0.000 N 
ATOM     23  C   UNL     1      -0.445  13.469  22.167  0.00  0.00    +0.000 C 
ENDBRANCH  13  22
ENDBRANCH   1  17
TORSDOF 3
ENDMDL
MODEL 2
REMARK VINA RESULT:      -7.8      1.708      2.105
REMARK  Name = 
REMARK  5 active torsions:
REMARK  status: ('A' for Active; 'I' for Inactive)
REMARK    1  A    between atoms: C_1  and  N_2
REMARK    2  A    between atoms: N_2  and  C_3
REMARK    3  A    between atoms: N_2  and  C_4
REMARK    4  A    between atoms: C_8  and  C_9
REMARK    5  A    between atoms: C_10  and  C_11
REMARK                            x       y       z     vdW  Elec       q    Type
REMARK                         _______ _______ _______ _____ _____    ______ ____
ROOT
ATOM      1  C   UNL     1       1.877   8.611  18.468  0.00  0.00    +0.000 C 
ATOM      2  C   UNL     1       2.168   7.370  18.895  0.00  0.00    +0.000 C 
ENDROOT
BRANCH   2   3
ATOM      3  C   UNL     1       3.026   6.460  18.126  0.00  0.00    +0.000 A 
ATOM      4  C   UNL     1       4.129   7.017  17.478  0.00  0.00    +0.000 A 
ATOM      5  C   UNL     1       4.965   6.176  16.774  0.00  0.00    +0.000 A 
ATOM      6  N   UNL     1       4.780   4.844  16.677  0.00  0.00    +0.000 NA
ATOM      7  C   UNL     1       3.718   4.304  17.298  0.00  0.00    +0.000 A 
ATOM      8  C   UNL     1       3.531   2.931  17.207  0.00  0.00    +0.000 A 
ATOM      9  C   UNL     1       2.452   2.288  17.820  0.00  0.00    +0.000 A 
ATOM     10  C   UNL     1       1.530   3.032  18.545  0.00  0.00    +0.000 A 
ATOM     11  C   UNL     1       1.697   4.410  18.657  0.00  0.00    +0.000 A 
ATOM     12  C   UNL     1       2.790   5.068  18.040  0.00  0.00    +0.000 A 
ENDBRANCH   2   3
BRANCH   1  17
ATOM     13  C   UNL     1      -0.421  11.548  20.759  0.00  0.00    +0.000 A 
ATOM     14  C   UNL     1       0.015  10.315  21.313  0.00  0.00    +0.000 A 
ATOM     15 CL   UNL     1      -0.358   9.768  22.924  0.00  0.00    +0.000 Cl
ATOM     16  C   UNL     1       0.755   9.366  20.578  0.00  0.00    +0.000 A 
ATOM     17  C   UNL     1       1.074   9.563  19.240  0.00  0.00    +0.000 A 
ATOM     18  C   UNL     1       0.670  10.763  18.661  0.00  0.00    +0.000 A 
ATOM     19  C   UNL     1      -0.049  11.731  19.396  0.00  0.00    +0.000 A 
ATOM     20 BR   UNL     1      -0.334  13.348  18.405  0.00  0.00    +0.000 Br
BRANCH  13  22
ATOM     21  C   UNL     1      -0.467  13.420  22.427  0.00  0.00    +0.000 C 
ATOM     22  N   UNL     1      -1.123  12.524  21.482  0.00  0.00    +0.000 N 
ATOM     23  C   UNL     1      -2.580  12.483  21.568  0.00  0.00    +0.000 C 
ENDBRANCH  13  22
ENDBRANCH   1  17
TORSDOF 3
ENDMDL
MODEL 3
REMARK VINA RESULT:      -7.7      3.334      8.496
REMARK  Name = 
REMARK  5 active torsions:
REMARK  status: ('A' for Active; 'I' for Inactive)
REMARK    1  A    between atoms: C_1  and  N_2
REMARK    2  A    between atoms: N_2  and  C_3
REMARK    3  A    between atoms: N_2  and  C_4
REMARK    4  A    between atoms: C_8  and  C_9
REMARK    5  A    between atoms: C_10  and  C_11
REMARK                            x       y       z     vdW  Elec       q    Type
REMARK                         _______ _______ _______ _____ _____    ______ ____
ROOT
ATOM      1  C   UNL     1       1.460   7.978  20.617  0.00  0.00    +0.000 C 
ATOM      2  C   UNL     1       0.261   8.150  21.201  0.00  0.00    +0.000 C 
ENDROOT
BRANCH   2   3
ATOM      3  C   UNL     1      -0.290   9.482  21.478  0.00  0.00    +0.000 A 
ATOM      4  C   UNL     1      -0.423   9.853  22.816  0.00  0.00    +0.000 A 
ATOM      5  C   UNL     1      -0.911  11.112  23.099  0.00  0.00    +0.000 A 
ATOM      6  N   UNL     1      -1.266  12.007  22.155  0.00  0.00    +0.000 NA
ATOM      7  C   UNL     1      -1.142  11.653  20.865  0.00  0.00    +0.000 A 
ATOM      8  C   UNL     1      -1.497  12.577  19.892  0.00  0.00    +0.000 A 
ATOM      9  C   UNL     1      -1.402  12.291  18.528  0.00  0.00    +0.000 A 
ATOM     10  C   UNL     1      -0.940  11.047  18.117  0.00  0.00    +0.000 A 
ATOM     11  C   UNL     1      -0.570  10.103  19.073  0.00  0.00    +0.000 A 
ATOM     12  C   UNL     1      -0.661  10.388  20.457  0.00  0.00    +0.000 A 
ENDBRANCH   2   3
BRANCH   1  17
ATOM     13  C   UNL     1       3.055   4.070  19.462  0.00  0.00    +0.000 A 
ATOM     14  C   UNL     1       2.069   4.227  20.472  0.00  0.00    +0.000 A 
ATOM     15 CL   UNL     1       1.421   2.926  21.431  0.00  0.00    +0.000 Cl
ATOM     16  C   UNL     1       1.553   5.485  20.847  0.00  0.00    +0.000 A 
ATOM     17  C   UNL     1       2.010   6.664  20.274  0.00  0.00    +0.000 A 
ATOM     18  C   UNL     1       2.972   6.554  19.274  0.00  0.00    +0.000 A 
ATOM     19  C   UNL     1       3.477   5.297  18.872  0.00  0.00    +0.000 A 
ATOM     20 BR   UNL     1       4.666   5.423  17.373  0.00  0.00    +0.000 Br
BRANCH  13  22
ATOM     21  C   UNL     1       2.935   2.056  17.972  0.00  0.00    +0.000 C 
ATOM     22  N   UNL     1       3.554   2.828  19.044  0.00  0.00    +0.000 N 
ATOM     23  C   UNL     1       4.516   2.096  19.864  0.00  0.00    +0.000 C 
ENDBRANCH  13  22
ENDBRANCH   1  17
TORSDOF 3
ENDMDL
MODEL 4
REMARK VINA RESULT:      -7.7      1.206      1.294
REMARK  Name = 
REMARK  5 active torsions:
REMARK  status: ('A' for Active; 'I' for Inactive)
REMARK    1  A    between atoms: C_1  and  N_2
REMARK    2  A    between atoms: N_2  and  C_3
REMARK    3  A    between atoms: N_2  and  C_4
REMARK    4  A    between atoms: C_8  and  C_9
REMARK    5  A    between atoms: C_10  and  C_11
REMARK                            x       y       z     vdW  Elec       q    Type
REMARK                         _______ _______ _______ _____ _____    ______ ____
ROOT
ATOM      1  C   UNL     1       2.040   8.032  18.173  0.00  0.00    +0.000 C 
ATOM      2  C   UNL     1       2.832   7.120  18.765  0.00  0.00    +0.000 C 
ENDROOT
BRANCH   2   3
ATOM      3  C   UNL     1       3.224   5.873  18.096  0.00  0.00    +0.000 A 
ATOM      4  C   UNL     1       4.281   5.941  17.188  0.00  0.00    +0.000 A 
ATOM      5  C   UNL     1       4.686   4.776  16.571  0.00  0.00    +0.000 A 
ATOM      6  N   UNL     1       4.120   3.573  16.796  0.00  0.00    +0.000 NA
ATOM      7  C   UNL     1       3.100   3.504  17.668  0.00  0.00    +0.000 A 
ATOM      8  C   UNL     1       2.523   2.264  17.908  0.00  0.00    +0.000 A 
ATOM      9  C   UNL     1       1.458   2.103  18.798  0.00  0.00    +0.000 A 
ATOM     10  C   UNL     1       0.950   3.207  19.469  0.00  0.00    +0.000 A 
ATOM     11  C   UNL     1       1.514   4.462  19.251  0.00  0.00    +0.000 A 
ATOM     12  C   UNL     1       2.596   4.632  18.353  0.00  0.00    +0.000 A 
ENDBRANCH   2   3
BRANCH   1  17
ATOM     13  C   UNL     1       0.832  11.816  20.008  0.00  0.00    +0.000 A 
ATOM     14  C   UNL     1       1.523  11.752  18.769  0.00  0.00    +0.000 A 
ATOM     15 CL   UNL     1       2.049  13.139  17.857  0.00  0.00    +0.000 Cl
ATOM     16  C   UNL     1       1.915  10.534  18.175  0.00  0.00    +0.000 A 
ATOM     17  C   UNL     1       1.680   9.311  18.790  0.00  0.00    +0.000 A 
ATOM     18  C   UNL     1       0.999   9.329  20.004  0.00  0.00    +0.000 A 
ATOM     19  C   UNL     1       0.579  10.542  20.595  0.00  0.00    +0.000 A 
ATOM     20 BR   UNL     1      -0.473  10.269  22.174  0.00  0.00    +0.000 Br
BRANCH  13  22
ATOM     21  C   UNL     1      -0.887  13.623  20.275  0.00  0.00    +0.000 C 
ATOM     22  N   UNL     1       0.398  13.012  20.599  0.00  0.00    +0.000 N 
ATOM     23  C   UNL     1       1.333  13.871  21.320  0.00  0.00    +0.000 C 
ENDBRANCH  13  22
ENDBRANCH   1  17
TORSDOF 3
ENDMDL
MODEL 5
REMARK VINA RESULT:      -7.7      3.404      8.454
REMARK  Name = 
REMARK  5 active torsions:
REMARK  status: ('A' for Active; 'I' for Inactive)
REMARK    1  A    between atoms: C_1  and  N_2
REMARK    2  A    between atoms: N_2  and  C_3
REMARK    3  A    between atoms: N_2  and  C_4
REMARK    4  A    between atoms: C_8  and  C_9
REMARK    5  A    between atoms: C_10  and  C_11
REMARK                            x       y       z     vdW  Elec       q    Type
REMARK                         _______ _______ _______ _____ _____    ______ ____
ROOT
ATOM      1  C   UNL     1       2.005   7.848  19.201  0.00  0.00    +0.000 C 
ATOM      2  C   UNL     1       1.479   8.509  20.247  0.00  0.00    +0.000 C 
ENDROOT
BRANCH   2   3
ATOM      3  C   UNL     1       0.911   9.856  20.114  0.00  0.00    +0.000 A 
ATOM      4  C   UNL     1       1.189  10.554  18.938  0.00  0.00    +0.000 A 
ATOM      5  C   UNL     1       0.641  11.809  18.779  0.00  0.00    +0.000 A 
ATOM      6  N   UNL     1      -0.152  12.402  19.695  0.00  0.00    +0.000 NA
ATOM      7  C   UNL     1      -0.420  11.735  20.830  0.00  0.00    +0.000 A 
ATOM      8  C   UNL     1      -1.244  12.340  21.770  0.00  0.00    +0.000 A 
ATOM      9  C   UNL     1      -1.572  11.718  22.977  0.00  0.00    +0.000 A 
ATOM     10  C   UNL     1      -1.066  10.456  23.260  0.00  0.00    +0.000 A 
ATOM     11  C   UNL     1      -0.242   9.823  22.332  0.00  0.00    +0.000 A 
ATOM     12  C   UNL     1       0.093  10.447  21.105  0.00  0.00    +0.000 A 
ENDBRANCH   2   3
BRANCH   1  17
ATOM     13  C   UNL     1       3.519   3.744  19.332  0.00  0.00    +0.000 A 
ATOM     14  C   UNL     1       2.475   4.203  20.179  0.00  0.00    +0.000 A 
ATOM     15 CL   UNL     1       1.716   3.246  21.420  0.00  0.00    +0.000 Cl
ATOM     16  C   UNL     1       1.986   5.525  20.140  0.00  0.00    +0.000 A 
ATOM     17  C   UNL     1       2.525   6.481  19.289  0.00  0.00    +0.000 A 
ATOM     18  C   UNL     1       3.545   6.069  18.436  0.00  0.00    +0.000 A 
ATOM     19  C   UNL     1       4.025   4.741  18.449  0.00  0.00    +0.000 A 
ATOM     20 BR   UNL     1       5.313   4.407  17.068  0.00  0.00    +0.000 Br
BRANCH  13  22
ATOM     21  C   UNL     1       3.488   1.415  18.401  0.00  0.00    +0.000 C 
ATOM     22  N   UNL     1       3.995   2.424  19.324  0.00  0.00    +0.000 N 
ATOM     23  C   UNL     1       4.783   1.909  20.441  0.00  0.00    +0.000 C 
ENDBRANCH  13  22
ENDBRANCH   1  17
TORSDOF 3
ENDMDL
MODEL 6
REMARK VINA RESULT:      -7.6      1.989      2.216
REMARK  Name = 
REMARK  5 active torsions:
REMARK  status: ('A' for Active; 'I' for Inactive)
REMARK    1  A    between atoms: C_1  and  N_2
REMARK    2  A    between atoms: N_2  and  C_3
REMARK    3  A    between atoms: N_2  and  C_4
REMARK    4  A    between atoms: C_8  and  C_9
REMARK    5  A    between atoms: C_10  and  C_11
REMARK                            x       y       z     vdW  Elec       q    Type
REMARK                         _______ _______ _______ _____ _____    ______ ____
ROOT
ATOM      1  C   UNL     1       2.261   8.380  17.961  0.00  0.00    +0.000 C 
ATOM      2  C   UNL     1       2.517   7.252  18.645  0.00  0.00    +0.000 C 
ENDROOT
BRANCH   2   3
ATOM      3  C   UNL     1       3.124   6.074  18.012  0.00  0.00    +0.000 A 
ATOM      4  C   UNL     1       4.243   6.287  17.207  0.00  0.00    +0.000 A 
ATOM      5  C   UNL     1       4.847   5.192  16.626  0.00  0.00    +0.000 A 
ATOM      6  N   UNL     1       4.419   3.924  16.794  0.00  0.00    +0.000 NA
ATOM      7  C   UNL     1       3.341   3.714  17.567  0.00  0.00    +0.000 A 
ATOM      8  C   UNL     1       2.905   2.409  17.749  0.00  0.00    +0.000 A 
ATOM      9  C   UNL     1       1.792   2.102  18.535  0.00  0.00    +0.000 A 
ATOM     10  C   UNL     1       1.088   3.123  19.159  0.00  0.00    +0.000 A 
ATOM     11  C   UNL     1       1.507   4.442  18.998  0.00  0.00    +0.000 A 
ATOM     12  C   UNL     1       2.637   4.761  18.206  0.00  0.00    +0.000 A 
ENDBRANCH   2   3
BRANCH   1  17
ATOM     13  C   UNL     1       0.750  12.035  19.835  0.00  0.00    +0.000 A 
ATOM     14  C   UNL     1       0.382  10.737  20.279  0.00  0.00    +0.000 A 
ATOM     15 CL   UNL     1      -0.760  10.416  21.554  0.00  0.00    +0.000 Cl
ATOM     16  C   UNL     1       0.866   9.558  19.677  0.00  0.00    +0.000 A 
ATOM     17  C   UNL     1       1.712   9.591  18.576  0.00  0.00    +0.000 A 
ATOM     18  C   UNL     1       2.104  10.844  18.113  0.00  0.00    +0.000 A 
ATOM     19  C   UNL     1       1.645  12.032  18.725  0.00  0.00    +0.000 A 
ATOM     20 BR   UNL     1       2.464  13.604  17.993  0.00  0.00    +0.000 Br
BRANCH  13  22
ATOM     21  C   UNL     1      -0.792  14.011  19.911  0.00  0.00    +0.000 C 
ATOM     22  N   UNL     1       0.314  13.222  20.442  0.00  0.00    +0.000 N 
ATOM     23  C   UNL     1       1.140  13.896  21.441  0.00  0.00    +0.000 C 
ENDBRANCH  13  22
ENDBRANCH   1  17
TORSDOF 3
ENDMDL
MODEL 7
REMARK VINA RESULT:      -7.5      1.805      2.080
REMARK  Name = 
REMARK  5 active torsions:
REMARK  status: ('A' for Active; 'I' for Inactive)
REMARK    1  A    between atoms: C_1  and  N_2
REMARK    2  A    between atoms: N_2  and  C_3
REMARK    3  A    between atoms: N_2  and  C_4
REMARK    4  A    between atoms: C_8  and  C_9
REMARK    5  A    between atoms: C_10  and  C_11
REMARK                            x       y       z     vdW  Elec       q    Type
REMARK                         _______ _______ _______ _____ _____    ______ ____
ROOT
ATOM      1  C   UNL     1       2.263   7.684  19.571  0.00  0.00    +0.000 C 
ATOM      2  C   UNL     1       2.313   7.305  18.282  0.00  0.00    +0.000 C 
ENDROOT
BRANCH   2   3
ATOM      3  C   UNL     1       3.146   6.184  17.829  0.00  0.00    +0.000 A 
ATOM      4  C   UNL     1       4.382   6.494  17.263  0.00  0.00    +0.000 A 
ATOM      5  C   UNL     1       5.193   5.455  16.857  0.00  0.00    +0.000 A 
ATOM      6  N   UNL     1       4.860   4.154  16.978  0.00  0.00    +0.000 NA
ATOM      7  C   UNL     1       3.669   3.850  17.520  0.00  0.00    +0.000 A 
ATOM      8  C   UNL     1       3.329   2.511  17.654  0.00  0.00    +0.000 A 
ATOM      9  C   UNL     1       2.110   2.108  18.205  0.00  0.00    +0.000 A 
ATOM     10  C   UNL     1       1.200   3.064  18.635  0.00  0.00    +0.000 A 
ATOM     11  C   UNL     1       1.518   4.415  18.518  0.00  0.00    +0.000 A 
ATOM     12  C   UNL     1       2.754   4.832  17.964  0.00  0.00    +0.000 A 
ENDBRANCH   2   3
BRANCH   1  17
ATOM     13  C   UNL     1      -0.219  10.983  21.024  0.00  0.00    +0.000 A 
ATOM     14  C   UNL     1       0.114   9.861  21.830  0.00  0.00    +0.000 A 
ATOM     15 CL   UNL     1      -0.468   9.602  23.450  0.00  0.00    +0.000 Cl
ATOM     16  C   UNL     1       0.912   8.796  21.365  0.00  0.00    +0.000 A 
ATOM     17  C   UNL     1       1.397   8.758  20.064  0.00  0.00    +0.000 A 
ATOM     18  C   UNL     1       1.100   9.843  19.243  0.00  0.00    +0.000 A 
ATOM     19  C   UNL     1       0.322  10.927  19.707  0.00  0.00    +0.000 A 
ATOM     20 BR   UNL     1       0.203  12.351  18.428  0.00  0.00    +0.000 Br
BRANCH  13  22
ATOM     21  C   UNL     1      -2.350  12.306  21.040  0.00  0.00    +0.000 C 
ATOM     22  N   UNL     1      -0.977  12.072  21.476  0.00  0.00    +0.000 N 
ATOM     23  C   UNL     1      -0.337  13.199  22.150  0.00  0.00    +0.000 C 
ENDBRANCH  13  22
ENDBRANCH   1  17
TORSDOF 3
ENDMDL
MODEL 8
REMARK VINA RESULT:      -7.5      3.014      8.383
REMARK  Name = 
REMARK  5 active torsions:
REMARK  status: ('A' for Active; 'I' for Inactive)
REMARK    1  A    between atoms: C_1  and  N_2
REMARK    2  A    between atoms: N_2  and  C_3
REMARK    3  A    between atoms: N_2  and  C_4
REMARK    4  A    between atoms: C_8  and  C_9
REMARK    5  A    between atoms: C_10  and  C_11
REMARK                            x       y       z     vdW  Elec       q    Type
REMARK                         _______ _______ _______ _____ _____    ______ ____
ROOT
ATOM      1  C   UNL     1       1.506   7.871  20.640  0.00  0.00    +0.000 C 
ATOM      2  C   UNL     1       0.254   8.051  21.096  0.00  0.00    +0.000 C 
ENDROOT
BRANCH   2   3
ATOM      3  C   UNL     1      -0.265   9.378  21.451  0.00  0.00    +0.000 A 
ATOM      4  C   UNL     1      -0.401   9.669  22.809  0.00  0.00    +0.000 A 
ATOM      5  C   UNL     1      -0.859  10.920  23.165  0.00  0.00    +0.000 A 
ATOM      6  N   UNL     1      -1.181  11.881  22.276  0.00  0.00    +0.000 NA
ATOM      7  C   UNL     1      -1.054  11.605  20.967  0.00  0.00    +0.000 A 
ATOM      8  C   UNL     1      -1.375  12.597  20.051  0.00  0.00    +0.000 A 
ATOM      9  C   UNL     1      -1.273  12.393  18.673  0.00  0.00    +0.000 A 
ATOM     10  C   UNL     1      -0.839  11.166  18.189  0.00  0.00    +0.000 A 
ATOM     11  C   UNL     1      -0.504  10.155  19.087  0.00  0.00    +0.000 A 
ATOM     12  C   UNL     1      -0.602  10.355  20.486  0.00  0.00    +0.000 A 
ENDBRANCH   2   3
BRANCH   1  17
ATOM     13  C   UNL     1       3.127   3.964  19.517  0.00  0.00    +0.000 A 
ATOM     14  C   UNL     1       3.566   5.176  18.920  0.00  0.00    +0.000 A 
ATOM     15 CL   UNL     1       4.729   5.276  17.629  0.00  0.00    +0.000 Cl
ATOM     16  C   UNL     1       3.045   6.436  19.279  0.00  0.00    +0.000 A 
ATOM     17  C   UNL     1       2.033   6.570  20.221  0.00  0.00    +0.000 A 
ATOM     18  C   UNL     1       1.579   5.406  20.836  0.00  0.00    +0.000 A 
ATOM     19  C   UNL     1       2.112   4.140  20.502  0.00  0.00    +0.000 A 
ATOM     20 BR   UNL     1       1.424   2.734  21.610  0.00  0.00    +0.000 Br
BRANCH  13  22
ATOM     21  C   UNL     1       4.736   2.096  19.978  0.00  0.00    +0.000 C 
ATOM     22  N   UNL     1       3.657   2.703  19.206  0.00  0.00    +0.000 N 
ATOM     23  C   UNL     1       3.384   2.077  17.915  0.00  0.00    +0.000 C 
ENDBRANCH  13  22
ENDBRANCH   1  17
TORSDOF 3
ENDMDL
MODEL 9
REMARK VINA RESULT:      -7.5      1.795      2.019
REMARK  Name = 
REMARK  5 active torsions:
REMARK  status: ('A' for Active; 'I' for Inactive)
REMARK    1  A    between atoms: C_1  and  N_2
REMARK    2  A    between atoms: N_2  and  C_3
REMARK    3  A    between atoms: N_2  and  C_4
REMARK    4  A    between atoms: C_8  and  C_9
REMARK    5  A    between atoms: C_10  and  C_11
REMARK                            x       y       z     vdW  Elec       q    Type
REMARK                         _______ _______ _______ _____ _____    ______ ____
ROOT
ATOM      1  C   UNL     1       1.778   8.433  17.671  0.00  0.00    +0.000 C 
ATOM      2  C   UNL     1       2.601   7.662  18.404  0.00  0.00    +0.000 C 
ENDROOT
BRANCH   2   3
ATOM      3  C   UNL     1       3.371   6.560  17.814  0.00  0.00    +0.000 A 
ATOM      4  C   UNL     1       4.589   6.882  17.213  0.00  0.00    +0.000 A 
ATOM      5  C   UNL     1       5.343   5.858  16.679  0.00  0.00    +0.000 A 
ATOM      6  N   UNL     1       4.972   4.561  16.706  0.00  0.00    +0.000 NA
ATOM      7  C   UNL     1       3.799   4.248  17.281  0.00  0.00    +0.000 A 
ATOM      8  C   UNL     1       3.421   2.913  17.319  0.00  0.00    +0.000 A 
ATOM      9  C   UNL     1       2.218   2.499  17.896  0.00  0.00    +0.000 A 
ATOM     10  C   UNL     1       1.363   3.441  18.453  0.00  0.00    +0.000 A 
ATOM     11  C   UNL     1       1.721   4.788  18.434  0.00  0.00    +0.000 A 
ATOM     12  C   UNL     1       2.941   5.214  17.854  0.00  0.00    +0.000 A 
ENDBRANCH   2   3
BRANCH   1  17
ATOM     13  C   UNL     1      -0.437  11.895  19.175  0.00  0.00    +0.000 A 
ATOM     14  C   UNL     1       0.920  11.646  19.515  0.00  0.00    +0.000 A 
ATOM     15 CL   UNL     1       1.856  12.616  20.617  0.00  0.00    +0.000 Cl
ATOM     16  C   UNL     1       1.636  10.531  19.033  0.00  0.00    +0.000 A 
ATOM     17  C   UNL     1       1.043   9.576  18.217  0.00  0.00    +0.000 A 
ATOM     18  C   UNL     1      -0.285   9.786  17.854  0.00  0.00    +0.000 A 
ATOM     19  C   UNL     1      -1.004  10.913  18.311  0.00  0.00    +0.000 A 
ATOM     20 BR   UNL     1      -2.752  11.039  17.532  0.00  0.00    +0.000 Br
BRANCH  13  22
ATOM     21  C   UNL     1      -0.783  14.378  19.242  0.00  0.00    +0.000 C 
ATOM     22  N   UNL     1      -1.158  13.016  19.609  0.00  0.00    +0.000 N 
ATOM     23  C   UNL     1      -2.120  12.907  20.702  0.00  0.00    +0.000 C 
ENDBRANCH  13  22
ENDBRANCH   1  17
TORSDOF 3
ENDMDL
