MODEL 1
REMARK VINA RESULT:      -7.7      0.000      0.000
REMARK  Name = 
REMARK  7 active torsions:
REMARK  status: ('A' for Active; 'I' for Inactive)
REMARK    1  A    between atoms: C_1  and  C_2
REMARK    2  A    between atoms: C_2  and  C_4
REMARK    3  A    between atoms: C_5  and  O_6
REMARK    4  A    between atoms: N_9  and  C_10
REMARK    5  A    between atoms: C_10  and  C_11
REMARK    6  A    between atoms: C_17  and  C_18
REMARK    7  A    between atoms: C_21  and  N_22
REMARK                            x       y       z     vdW  Elec       q    Type
REMARK                         _______ _______ _______ _____ _____    ______ ____
ROOT
ATOM      1  C   UNL     1       2.473   4.226  19.181  0.00  0.00    +0.000 C 
ATOM      2  C   UNL     1       2.542   3.360  18.157  0.00  0.00    +0.000 C 
ATOM      3  C   UNL     1       3.409   3.970  17.122  0.00  0.00    +0.000 C 
ATOM      4  O   UNL     1       3.717   3.466  16.061  0.00  0.00    +0.000 OA
ATOM      5  N   UNL     1       3.785   5.210  17.605  0.00  0.00    +0.000 N 
ATOM      6  C   UNL     1       3.285   5.461  18.943  0.00  0.00    +0.000 C 
ENDROOT
BRANCH   6   7
ATOM      7  C   UNL     1       2.517   6.768  19.014  0.00  0.00    +0.000 A 
ATOM      8  C   UNL     1       2.303   7.562  17.872  0.00  0.00    +0.000 A 
ATOM      9  C   UNL     1       1.632   8.783  17.966  0.00  0.00    +0.000 A 
ATOM     10  C   UNL     1       1.175   9.227  19.212  0.00  0.00    +0.000 A 
ATOM     11  C   UNL     1       1.370   8.447  20.359  0.00  0.00    +0.000 A 
ATOM     12  C   UNL     1       2.040   7.224  20.256  0.00  0.00    +0.000 A 
BRANCH  10  13
ATOM     13  N   UNL     1       0.502  10.527  19.323  0.00  0.00    +0.000 N 
ATOM     14  O   UNL     1      -0.656  10.541  19.761  0.00  0.00    +0.000 OA
ATOM     15  O   UNL     1       1.133  11.533  18.967  0.00  0.00    +0.000 OA
ENDBRANCH  10  13
ENDBRANCH   6   7
BRANCH   1  17
ATOM     16  C   UNL     1       2.352   3.783  21.722  0.00  0.00    +0.000 C 
ATOM     17  C   UNL     1       1.679   3.907  20.384  0.00  0.00    +0.000 C 
ATOM     18  O   UNL     1       0.458   3.758  20.274  0.00  0.00    +0.000 OA
ENDBRANCH   1  17
BRANCH   2  19
ATOM     19  O   UNL     1       1.947   2.136  18.034  0.00  0.00    +0.000 OA
ATOM     20  H   UNL     1       2.622   1.517  17.675  0.00  0.00    +0.000 HD
ENDBRANCH   2  19
BRANCH   5  21
ATOM     21  C   UNL     1       4.685   6.100  16.894  0.00  0.00    +0.000 C 
BRANCH  21  22
ATOM     22  C   UNL     1       6.013   6.307  17.581  0.00  0.00    +0.000 A 
ATOM     23  C   UNL     1       6.782   7.451  17.317  0.00  0.00    +0.000 A 
ATOM     24  C   UNL     1       7.959   7.696  18.027  0.00  0.00    +0.000 A 
ATOM     25  C   UNL     1       8.378   6.805  19.012  0.00  0.00    +0.000 A 
ATOM     26  C   UNL     1       7.628   5.661  19.279  0.00  0.00    +0.000 A 
ATOM     27  C   UNL     1       6.453   5.410  18.565  0.00  0.00    +0.000 A 
ENDBRANCH  21  22
ENDBRANCH   5  21
TORSDOF 6
ENDMDL
MODEL 2
REMARK VINA RESULT:      -7.7      0.460      1.071
REMARK  Name = 
REMARK  7 active torsions:
REMARK  status: ('A' for Active; 'I' for Inactive)
REMARK    1  A    between atoms: C_1  and  C_2
REMARK    2  A    between atoms: C_2  and  C_4
REMARK    3  A    between atoms: C_5  and  O_6
REMARK    4  A    between atoms: N_9  and  C_10
REMARK    5  A    between atoms: C_10  and  C_11
REMARK    6  A    between atoms: C_17  and  C_18
REMARK    7  A    between atoms: C_21  and  N_22
REMARK                            x       y       z     vdW  Elec       q    Type
REMARK                         _______ _______ _______ _____ _____    ______ ____
ROOT
ATOM      1  C   UNL     1       2.407   4.071  19.189  0.00  0.00    +0.000 C 
ATOM      2  C   UNL     1       2.400   3.218  18.153  0.00  0.00    +0.000 C 
ATOM      3  C   UNL     1       3.262   3.799  17.098  0.00  0.00    +0.000 C 
ATOM      4  O   UNL     1       3.511   3.296  16.021  0.00  0.00    +0.000 OA
ATOM      5  N   UNL     1       3.715   5.012  17.585  0.00  0.00    +0.000 N 
ATOM      6  C   UNL     1       3.271   5.268  18.941  0.00  0.00    +0.000 C 
ENDROOT
BRANCH   6   7
ATOM      7  C   UNL     1       2.571   6.610  19.054  0.00  0.00    +0.000 A 
ATOM      8  C   UNL     1       2.386   7.444  17.934  0.00  0.00    +0.000 A 
ATOM      9  C   UNL     1       1.779   8.695  18.067  0.00  0.00    +0.000 A 
ATOM     10  C   UNL     1       1.358   9.128  19.329  0.00  0.00    +0.000 A 
ATOM     11  C   UNL     1       1.524   8.309  20.453  0.00  0.00    +0.000 A 
ATOM     12  C   UNL     1       2.131   7.058  20.312  0.00  0.00    +0.000 A 
BRANCH  10  13
ATOM     13  N   UNL     1       0.754  10.458  19.480  0.00  0.00    +0.000 N 
ATOM     14  O   UNL     1       0.196  10.952  18.491  0.00  0.00    +0.000 OA
ATOM     15  O   UNL     1       0.843  11.007  20.588  0.00  0.00    +0.000 OA
ENDBRANCH  10  13
ENDBRANCH   6   7
BRANCH   1  17
ATOM     16  C   UNL     1       2.348   3.369  21.673  0.00  0.00    +0.000 C 
ATOM     17  C   UNL     1       1.636   3.775  20.413  0.00  0.00    +0.000 C 
ATOM     18  O   UNL     1       0.406   3.877  20.387  0.00  0.00    +0.000 OA
ENDBRANCH   1  17
BRANCH   2  19
ATOM     19  O   UNL     1       1.742   2.027  18.033  0.00  0.00    +0.000 OA
ATOM     20  H   UNL     1       2.162   1.395  18.659  0.00  0.00    +0.000 HD
ENDBRANCH   2  19
BRANCH   5  21
ATOM     21  C   UNL     1       4.635   5.867  16.856  0.00  0.00    +0.000 C 
BRANCH  21  22
ATOM     22  C   UNL     1       5.877   6.233  17.632  0.00  0.00    +0.000 A 
ATOM     23  C   UNL     1       6.350   5.396  18.655  0.00  0.00    +0.000 A 
ATOM     24  C   UNL     1       7.553   5.678  19.305  0.00  0.00    +0.000 A 
ATOM     25  C   UNL     1       8.300   6.794  18.936  0.00  0.00    +0.000 A 
ATOM     26  C   UNL     1       7.838   7.638  17.928  0.00  0.00    +0.000 A 
ATOM     27  C   UNL     1       6.631   7.362  17.281  0.00  0.00    +0.000 A 
ENDBRANCH  21  22
ENDBRANCH   5  21
TORSDOF 6
ENDMDL
MODEL 3
REMARK VINA RESULT:      -7.6      0.209      1.137
REMARK  Name = 
REMARK  7 active torsions:
REMARK  status: ('A' for Active; 'I' for Inactive)
REMARK    1  A    between atoms: C_1  and  C_2
REMARK    2  A    between atoms: C_2  and  C_4
REMARK    3  A    between atoms: C_5  and  O_6
REMARK    4  A    between atoms: N_9  and  C_10
REMARK    5  A    between atoms: C_10  and  C_11
REMARK    6  A    between atoms: C_17  and  C_18
REMARK    7  A    between atoms: C_21  and  N_22
REMARK                            x       y       z     vdW  Elec       q    Type
REMARK                         _______ _______ _______ _____ _____    ______ ____
ROOT
ATOM      1  C   UNL     1       2.482   4.223  19.247  0.00  0.00    +0.000 C 
ATOM      2  C   UNL     1       2.493   3.344  18.234  0.00  0.00    +0.000 C 
ATOM      3  C   UNL     1       3.348   3.912  17.166  0.00  0.00    +0.000 C 
ATOM      4  O   UNL     1       3.608   3.385  16.103  0.00  0.00    +0.000 OA
ATOM      5  N   UNL     1       3.779   5.144  17.621  0.00  0.00    +0.000 N 
ATOM      6  C   UNL     1       3.327   5.428  18.970  0.00  0.00    +0.000 C 
ENDROOT
BRANCH   6   7
ATOM      7  C   UNL     1       2.604   6.760  19.046  0.00  0.00    +0.000 A 
ATOM      8  C   UNL     1       2.094   7.256  20.261  0.00  0.00    +0.000 A 
ATOM      9  C   UNL     1       1.392   8.463  20.302  0.00  0.00    +0.000 A 
ATOM     10  C   UNL     1       1.185   9.182  19.119  0.00  0.00    +0.000 A 
ATOM     11  C   UNL     1       1.692   8.710  17.902  0.00  0.00    +0.000 A 
ATOM     12  C   UNL     1       2.396   7.503  17.870  0.00  0.00    +0.000 A 
BRANCH  10  13
ATOM     13  N   UNL     1       0.415  10.432  19.150  0.00  0.00    +0.000 N 
ATOM     14  O   UNL     1       1.047  11.497  19.168  0.00  0.00    +0.000 OA
ATOM     15  O   UNL     1      -0.821  10.346  19.162  0.00  0.00    +0.000 OA
ENDBRANCH  10  13
ENDBRANCH   6   7
BRANCH   1  17
ATOM     16  C   UNL     1       2.399   3.356  21.678  0.00  0.00    +0.000 C 
ATOM     17  C   UNL     1       1.714   3.945  20.477  0.00  0.00    +0.000 C 
ATOM     18  O   UNL     1       0.510   4.216  20.505  0.00  0.00    +0.000 OA
ENDBRANCH   1  17
BRANCH   2  19
ATOM     19  O   UNL     1       1.856   2.138  18.143  0.00  0.00    +0.000 OA
ATOM     20  H   UNL     1       2.530   1.468  17.892  0.00  0.00    +0.000 HD
ENDBRANCH   2  19
BRANCH   5  21
ATOM     21  C   UNL     1       4.686   5.996  16.872  0.00  0.00    +0.000 C 
BRANCH  21  22
ATOM     22  C   UNL     1       6.005   6.243  17.564  0.00  0.00    +0.000 A 
ATOM     23  C   UNL     1       6.751   7.399  17.283  0.00  0.00    +0.000 A 
ATOM     24  C   UNL     1       7.918   7.682  17.995  0.00  0.00    +0.000 A 
ATOM     25  C   UNL     1       8.350   6.818  18.998  0.00  0.00    +0.000 A 
ATOM     26  C   UNL     1       7.624   5.663  19.281  0.00  0.00    +0.000 A 
ATOM     27  C   UNL     1       6.459   5.374  18.566  0.00  0.00    +0.000 A 
ENDBRANCH  21  22
ENDBRANCH   5  21
TORSDOF 6
ENDMDL
MODEL 4
REMARK VINA RESULT:      -7.6      0.173      1.353
REMARK  Name = 
REMARK  7 active torsions:
REMARK  status: ('A' for Active; 'I' for Inactive)
REMARK    1  A    between atoms: C_1  and  C_2
REMARK    2  A    between atoms: C_2  and  C_4
REMARK    3  A    between atoms: C_5  and  O_6
REMARK    4  A    between atoms: N_9  and  C_10
REMARK    5  A    between atoms: C_10  and  C_11
REMARK    6  A    between atoms: C_17  and  C_18
REMARK    7  A    between atoms: C_21  and  N_22
REMARK                            x       y       z     vdW  Elec       q    Type
REMARK                         _______ _______ _______ _____ _____    ______ ____
ROOT
ATOM      1  C   UNL     1       2.382   4.161  19.192  0.00  0.00    +0.000 C 
ATOM      2  C   UNL     1       2.357   3.294  18.167  0.00  0.00    +0.000 C 
ATOM      3  C   UNL     1       3.231   3.842  17.105  0.00  0.00    +0.000 C 
ATOM      4  O   UNL     1       3.469   3.320  16.035  0.00  0.00    +0.000 OA
ATOM      5  N   UNL     1       3.709   5.052  17.575  0.00  0.00    +0.000 N 
ATOM      6  C   UNL     1       3.271   5.336  18.928  0.00  0.00    +0.000 C 
ENDROOT
BRANCH   6   7
ATOM      7  C   UNL     1       2.600   6.694  19.022  0.00  0.00    +0.000 A 
ATOM      8  C   UNL     1       2.103   7.189  20.242  0.00  0.00    +0.000 A 
ATOM      9  C   UNL     1       1.448   8.421  20.300  0.00  0.00    +0.000 A 
ATOM     10  C   UNL     1       1.276   9.167  19.129  0.00  0.00    +0.000 A 
ATOM     11  C   UNL     1       1.771   8.696  17.906  0.00  0.00    +0.000 A 
ATOM     12  C   UNL     1       2.428   7.463  17.858  0.00  0.00    +0.000 A 
BRANCH  10  13
ATOM     13  N   UNL     1       0.555  10.446  19.176  0.00  0.00    +0.000 N 
ATOM     14  O   UNL     1      -0.599  10.439  19.627  0.00  0.00    +0.000 OA
ATOM     15  O   UNL     1       1.143  11.454  18.759  0.00  0.00    +0.000 OA
ENDBRANCH  10  13
ENDBRANCH   6   7
BRANCH   1  17
ATOM     16  C   UNL     1       2.314   3.588  21.709  0.00  0.00    +0.000 C 
ATOM     17  C   UNL     1       1.605   3.897  20.420  0.00  0.00    +0.000 C 
ATOM     18  O   UNL     1       0.373   3.946  20.372  0.00  0.00    +0.000 OA
ENDBRANCH   1  17
BRANCH   2  19
ATOM     19  O   UNL     1       1.673   2.115  18.063  0.00  0.00    +0.000 OA
ATOM     20  H   UNL     1       0.945   2.139  18.724  0.00  0.00    +0.000 HD
ENDBRANCH   2  19
BRANCH   5  21
ATOM     21  C   UNL     1       4.647   5.878  16.835  0.00  0.00    +0.000 C 
BRANCH  21  22
ATOM     22  C   UNL     1       5.892   6.236  17.609  0.00  0.00    +0.000 A 
ATOM     23  C   UNL     1       6.394   5.367  18.592  0.00  0.00    +0.000 A 
ATOM     24  C   UNL     1       7.601   5.645  19.237  0.00  0.00    +0.000 A 
ATOM     25  C   UNL     1       8.322   6.789  18.905  0.00  0.00    +0.000 A 
ATOM     26  C   UNL     1       7.831   7.664  17.938  0.00  0.00    +0.000 A 
ATOM     27  C   UNL     1       6.620   7.392  17.295  0.00  0.00    +0.000 A 
ENDBRANCH  21  22
ENDBRANCH   5  21
TORSDOF 6
ENDMDL
MODEL 5
REMARK VINA RESULT:      -7.3      0.904      1.336
REMARK  Name = 
REMARK  7 active torsions:
REMARK  status: ('A' for Active; 'I' for Inactive)
REMARK    1  A    between atoms: C_1  and  C_2
REMARK    2  A    between atoms: C_2  and  C_4
REMARK    3  A    between atoms: C_5  and  O_6
REMARK    4  A    between atoms: N_9  and  C_10
REMARK    5  A    between atoms: C_10  and  C_11
REMARK    6  A    between atoms: C_17  and  C_18
REMARK    7  A    between atoms: C_21  and  N_22
REMARK                            x       y       z     vdW  Elec       q    Type
REMARK                         _______ _______ _______ _____ _____    ______ ____
ROOT
ATOM      1  C   UNL     1       3.043   3.887  19.104  0.00  0.00    +0.000 C 
ATOM      2  C   UNL     1       3.128   3.036  18.070  0.00  0.00    +0.000 C 
ATOM      3  C   UNL     1       3.908   3.711  17.007  0.00  0.00    +0.000 C 
ATOM      4  O   UNL     1       4.206   3.237  15.929  0.00  0.00    +0.000 OA
ATOM      5  N   UNL     1       4.220   4.970  17.487  0.00  0.00    +0.000 N 
ATOM      6  C   UNL     1       3.760   5.176  18.847  0.00  0.00    +0.000 C 
ENDROOT
BRANCH   6   7
ATOM      7  C   UNL     1       2.908   6.427  18.963  0.00  0.00    +0.000 A 
ATOM      8  C   UNL     1       2.671   7.265  17.856  0.00  0.00    +0.000 A 
ATOM      9  C   UNL     1       1.922   8.435  17.994  0.00  0.00    +0.000 A 
ATOM     10  C   UNL     1       1.408   8.784  19.248  0.00  0.00    +0.000 A 
ATOM     11  C   UNL     1       1.625   7.959  20.359  0.00  0.00    +0.000 A 
ATOM     12  C   UNL     1       2.374   6.788  20.212  0.00  0.00    +0.000 A 
BRANCH  10  13
ATOM     13  N   UNL     1       0.652  10.032  19.406  0.00  0.00    +0.000 N 
ATOM     14  O   UNL     1       0.634  10.556  20.528  0.00  0.00    +0.000 OA
ATOM     15  O   UNL     1       0.073  10.484  18.407  0.00  0.00    +0.000 OA
ENDBRANCH  10  13
ENDBRANCH   6   7
BRANCH   1  17
ATOM     16  C   UNL     1       0.821   3.441  20.341  0.00  0.00    +0.000 C 
ATOM     17  C   UNL     1       2.323   3.505  20.335  0.00  0.00    +0.000 C 
ATOM     18  O   UNL     1       2.971   3.229  21.349  0.00  0.00    +0.000 OA
ENDBRANCH   1  17
BRANCH   2  19
ATOM     19  O   UNL     1       2.613   1.775  17.958  0.00  0.00    +0.000 OA
ATOM     20  H   UNL     1       3.349   1.180  17.689  0.00  0.00    +0.000 HD
ENDBRANCH   2  19
BRANCH   5  21
ATOM     21  C   UNL     1       5.028   5.925  16.749  0.00  0.00    +0.000 C 
BRANCH  21  22
ATOM     22  C   UNL     1       6.206   6.460  17.526  0.00  0.00    +0.000 A 
ATOM     23  C   UNL     1       6.870   5.650  18.461  0.00  0.00    +0.000 A 
ATOM     24  C   UNL     1       8.022   6.106  19.105  0.00  0.00    +0.000 A 
ATOM     25  C   UNL     1       8.526   7.372  18.819  0.00  0.00    +0.000 A 
ATOM     26  C   UNL     1       7.873   8.189  17.899  0.00  0.00    +0.000 A 
ATOM     27  C   UNL     1       6.716   7.738  17.258  0.00  0.00    +0.000 A 
ENDBRANCH  21  22
ENDBRANCH   5  21
TORSDOF 6
ENDMDL
MODEL 6
REMARK VINA RESULT:      -7.3      2.520      6.178
REMARK  Name = 
REMARK  7 active torsions:
REMARK  status: ('A' for Active; 'I' for Inactive)
REMARK    1  A    between atoms: C_1  and  C_2
REMARK    2  A    between atoms: C_2  and  C_4
REMARK    3  A    between atoms: C_5  and  O_6
REMARK    4  A    between atoms: N_9  and  C_10
REMARK    5  A    between atoms: C_10  and  C_11
REMARK    6  A    between atoms: C_17  and  C_18
REMARK    7  A    between atoms: C_21  and  N_22
REMARK                            x       y       z     vdW  Elec       q    Type
REMARK                         _______ _______ _______ _____ _____    ______ ____
ROOT
ATOM      1  C   UNL     1       1.650   4.052  19.012  0.00  0.00    +0.000 C 
ATOM      2  C   UNL     1       1.237   4.288  20.266  0.00  0.00    +0.000 C 
ATOM      3  C   UNL     1       1.538   5.707  20.569  0.00  0.00    +0.000 C 
ATOM      4  O   UNL     1       1.286   6.284  21.607  0.00  0.00    +0.000 OA
ATOM      5  N   UNL     1       2.157   6.226  19.446  0.00  0.00    +0.000 N 
ATOM      6  C   UNL     1       2.236   5.267  18.361  0.00  0.00    +0.000 C 
ENDROOT
BRANCH   6   7
ATOM      7  C   UNL     1       3.660   5.112  17.858  0.00  0.00    +0.000 A 
ATOM      8  C   UNL     1       3.955   5.051  16.483  0.00  0.00    +0.000 A 
ATOM      9  C   UNL     1       5.267   4.863  16.042  0.00  0.00    +0.000 A 
ATOM     10  C   UNL     1       6.298   4.726  16.978  0.00  0.00    +0.000 A 
ATOM     11  C   UNL     1       6.026   4.793  18.350  0.00  0.00    +0.000 A 
ATOM     12  C   UNL     1       4.711   4.983  18.784  0.00  0.00    +0.000 A 
BRANCH  10  13
ATOM     13  N   UNL     1       7.673   4.490  16.520  0.00  0.00    +0.000 N 
ATOM     14  O   UNL     1       7.928   4.709  15.327  0.00  0.00    +0.000 OA
ATOM     15  O   UNL     1       8.495   4.083  17.353  0.00  0.00    +0.000 OA
ENDBRANCH  10  13
ENDBRANCH   6   7
BRANCH   1  17
ATOM     16  C   UNL     1       2.683   1.976  17.875  0.00  0.00    +0.000 C 
ATOM     17  C   UNL     1       1.487   2.716  18.405  0.00  0.00    +0.000 C 
ATOM     18  O   UNL     1       0.360   2.214  18.353  0.00  0.00    +0.000 OA
ENDBRANCH   1  17
BRANCH   2  19
ATOM     19  O   UNL     1       0.646   3.427  21.147  0.00  0.00    +0.000 OA
ATOM     20  H   UNL     1      -0.241   3.202  20.787  0.00  0.00    +0.000 HD
ENDBRANCH   2  19
BRANCH   5  21
ATOM     21  C   UNL     1       2.564   7.615  19.334  0.00  0.00    +0.000 C 
BRANCH  21  22
ATOM     22  C   UNL     1       1.412   8.581  19.190  0.00  0.00    +0.000 A 
ATOM     23  C   UNL     1       0.899   9.249  20.313  0.00  0.00    +0.000 A 
ATOM     24  C   UNL     1      -0.095  10.219  20.171  0.00  0.00    +0.000 A 
ATOM     25  C   UNL     1      -0.584  10.536  18.906  0.00  0.00    +0.000 A 
ATOM     26  C   UNL     1      -0.089   9.875  17.783  0.00  0.00    +0.000 A 
ATOM     27  C   UNL     1       0.902   8.899  17.924  0.00  0.00    +0.000 A 
ENDBRANCH  21  22
ENDBRANCH   5  21
TORSDOF 6
ENDMDL
MODEL 7
REMARK VINA RESULT:      -7.2      6.458      9.342
REMARK  Name = 
REMARK  7 active torsions:
REMARK  status: ('A' for Active; 'I' for Inactive)
REMARK    1  A    between atoms: C_1  and  C_2
REMARK    2  A    between atoms: C_2  and  C_4
REMARK    3  A    between atoms: C_5  and  O_6
REMARK    4  A    between atoms: N_9  and  C_10
REMARK    5  A    between atoms: C_10  and  C_11
REMARK    6  A    between atoms: C_17  and  C_18
REMARK    7  A    between atoms: C_21  and  N_22
REMARK                            x       y       z     vdW  Elec       q    Type
REMARK                         _______ _______ _______ _____ _____    ______ ____
ROOT
ATOM      1  C   UNL     1       0.300  13.399  19.341  0.00  0.00    +0.000 C 
ATOM      2  C   UNL     1       1.351  12.631  19.016  0.00  0.00    +0.000 C 
ATOM      3  C   UNL     1       0.839  11.262  18.776  0.00  0.00    +0.000 C 
ATOM      4  O   UNL     1       1.500  10.300  18.441  0.00  0.00    +0.000 OA
ATOM      5  N   UNL     1      -0.523  11.305  19.011  0.00  0.00    +0.000 N 
ATOM      6  C   UNL     1      -0.991  12.641  19.331  0.00  0.00    +0.000 C 
ENDROOT
BRANCH   6   7
ATOM      7  C   UNL     1      -1.767  12.662  20.635  0.00  0.00    +0.000 A 
ATOM      8  C   UNL     1      -3.102  13.104  20.693  0.00  0.00    +0.000 A 
ATOM      9  C   UNL     1      -3.785  13.158  21.910  0.00  0.00    +0.000 A 
ATOM     10  C   UNL     1      -3.130  12.776  23.087  0.00  0.00    +0.000 A 
ATOM     11  C   UNL     1      -1.805  12.324  23.049  0.00  0.00    +0.000 A 
ATOM     12  C   UNL     1      -1.130  12.271  21.826  0.00  0.00    +0.000 A 
BRANCH  10  13
ATOM     13  N   UNL     1      -3.831  12.867  24.374  0.00  0.00    +0.000 N 
ATOM     14  O   UNL     1      -4.621  11.958  24.665  0.00  0.00    +0.000 OA
ATOM     15  O   UNL     1      -3.593  13.850  25.091  0.00  0.00    +0.000 OA
ENDBRANCH  10  13
ENDBRANCH   6   7
BRANCH   1  17
ATOM     16  C   UNL     1      -0.325  15.866  18.902  0.00  0.00    +0.000 C 
ATOM     17  C   UNL     1       0.481  14.834  19.640  0.00  0.00    +0.000 C 
ATOM     18  O   UNL     1       1.292  15.168  20.509  0.00  0.00    +0.000 OA
ENDBRANCH   1  17
BRANCH   2  19
ATOM     19  O   UNL     1       2.667  12.984  18.911  0.00  0.00    +0.000 OA
ATOM     20  H   UNL     1       3.142  12.573  19.667  0.00  0.00    +0.000 HD
ENDBRANCH   2  19
BRANCH   5  21
ATOM     21  C   UNL     1      -1.398  10.160  18.832  0.00  0.00    +0.000 C 
BRANCH  21  22
ATOM     22  C   UNL     1      -2.348  10.291  17.665  0.00  0.00    +0.000 A 
ATOM     23  C   UNL     1      -3.582  10.942  17.821  0.00  0.00    +0.000 A 
ATOM     24  C   UNL     1      -4.416  11.157  16.722  0.00  0.00    +0.000 A 
ATOM     25  C   UNL     1      -4.025  10.729  15.456  0.00  0.00    +0.000 A 
ATOM     26  C   UNL     1      -2.807  10.074  15.289  0.00  0.00    +0.000 A 
ATOM     27  C   UNL     1      -1.973   9.852  16.388  0.00  0.00    +0.000 A 
ENDBRANCH  21  22
ENDBRANCH   5  21
TORSDOF 6
ENDMDL
MODEL 8
REMARK VINA RESULT:      -7.1      1.483      2.173
REMARK  Name = 
REMARK  7 active torsions:
REMARK  status: ('A' for Active; 'I' for Inactive)
REMARK    1  A    between atoms: C_1  and  C_2
REMARK    2  A    between atoms: C_2  and  C_4
REMARK    3  A    between atoms: C_5  and  O_6
REMARK    4  A    between atoms: N_9  and  C_10
REMARK    5  A    between atoms: C_10  and  C_11
REMARK    6  A    between atoms: C_17  and  C_18
REMARK    7  A    between atoms: C_21  and  N_22
REMARK                            x       y       z     vdW  Elec       q    Type
REMARK                         _______ _______ _______ _____ _____    ______ ____
ROOT
ATOM      1  C   UNL     1       2.412   3.419  19.562  0.00  0.00    +0.000 C 
ATOM      2  C   UNL     1       2.841   2.592  18.597  0.00  0.00    +0.000 C 
ATOM      3  C   UNL     1       4.091   3.166  18.047  0.00  0.00    +0.000 C 
ATOM      4  O   UNL     1       4.775   2.680  17.169  0.00  0.00    +0.000 OA
ATOM      5  N   UNL     1       4.311   4.350  18.725  0.00  0.00    +0.000 N 
ATOM      6  C   UNL     1       3.324   4.591  19.760  0.00  0.00    +0.000 C 
ENDROOT
BRANCH   6   7
ATOM      7  C   UNL     1       2.674   5.954  19.604  0.00  0.00    +0.000 A 
ATOM      8  C   UNL     1       2.651   6.624  18.367  0.00  0.00    +0.000 A 
ATOM      9  C   UNL     1       2.087   7.897  18.254  0.00  0.00    +0.000 A 
ATOM     10  C   UNL     1       1.548   8.517  19.386  0.00  0.00    +0.000 A 
ATOM     11  C   UNL     1       1.554   7.863  20.625  0.00  0.00    +0.000 A 
ATOM     12  C   UNL     1       2.117   6.588  20.729  0.00  0.00    +0.000 A 
BRANCH  10  13
ATOM     13  N   UNL     1       0.989   9.870  19.281  0.00  0.00    +0.000 N 
ATOM     14  O   UNL     1       1.563  10.674  18.533  0.00  0.00    +0.000 OA
ATOM     15  O   UNL     1      -0.021  10.129  19.952  0.00  0.00    +0.000 OA
ENDBRANCH  10  13
ENDBRANCH   6   7
BRANCH   1  17
ATOM     16  C   UNL     1       1.240   2.864  21.794  0.00  0.00    +0.000 C 
ATOM     17  C   UNL     1       1.178   3.122  20.315  0.00  0.00    +0.000 C 
ATOM     18  O   UNL     1       0.099   3.101  19.715  0.00  0.00    +0.000 OA
ENDBRANCH   1  17
BRANCH   2  19
ATOM     19  O   UNL     1       2.277   1.427  18.158  0.00  0.00    +0.000 OA
ATOM     20  H   UNL     1       2.051   1.550  17.209  0.00  0.00    +0.000 HD
ENDBRANCH   2  19
BRANCH   5  21
ATOM     21  C   UNL     1       5.475   5.190  18.503  0.00  0.00    +0.000 C 
BRANCH  21  22
ATOM     22  C   UNL     1       5.920   5.251  17.062  0.00  0.00    +0.000 A 
ATOM     23  C   UNL     1       7.144   4.686  16.669  0.00  0.00    +0.000 A 
ATOM     24  C   UNL     1       7.510   4.649  15.322  0.00  0.00    +0.000 A 
ATOM     25  C   UNL     1       6.657   5.171  14.353  0.00  0.00    +0.000 A 
ATOM     26  C   UNL     1       5.443   5.742  14.730  0.00  0.00    +0.000 A 
ATOM     27  C   UNL     1       5.077   5.786  16.078  0.00  0.00    +0.000 A 
ENDBRANCH  21  22
ENDBRANCH   5  21
TORSDOF 6
ENDMDL
MODEL 9
REMARK VINA RESULT:      -7.1      1.484      2.301
REMARK  Name = 
REMARK  7 active torsions:
REMARK  status: ('A' for Active; 'I' for Inactive)
REMARK    1  A    between atoms: C_1  and  C_2
REMARK    2  A    between atoms: C_2  and  C_4
REMARK    3  A    between atoms: C_5  and  O_6
REMARK    4  A    between atoms: N_9  and  C_10
REMARK    5  A    between atoms: C_10  and  C_11
REMARK    6  A    between atoms: C_17  and  C_18
REMARK    7  A    between atoms: C_21  and  N_22
REMARK                            x       y       z     vdW  Elec       q    Type
REMARK                         _______ _______ _______ _____ _____    ______ ____
ROOT
ATOM      1  C   UNL     1       2.411   3.464  19.661  0.00  0.00    +0.000 C 
ATOM      2  C   UNL     1       2.805   2.612  18.703  0.00  0.00    +0.000 C 
ATOM      3  C   UNL     1       4.071   3.137  18.141  0.00  0.00    +0.000 C 
ATOM      4  O   UNL     1       4.734   2.619  17.265  0.00  0.00    +0.000 OA
ATOM      5  N   UNL     1       4.336   4.320  18.807  0.00  0.00    +0.000 N 
ATOM      6  C   UNL     1       3.363   4.605  19.844  0.00  0.00    +0.000 C 
ENDROOT
BRANCH   6   7
ATOM      7  C   UNL     1       2.760   5.988  19.678  0.00  0.00    +0.000 A 
ATOM      8  C   UNL     1       2.169   6.671  20.757  0.00  0.00    +0.000 A 
ATOM      9  C   UNL     1       1.580   7.924  20.573  0.00  0.00    +0.000 A 
ATOM     10  C   UNL     1       1.569   8.502  19.299  0.00  0.00    +0.000 A 
ATOM     11  C   UNL     1       2.161   7.842  18.214  0.00  0.00    +0.000 A 
ATOM     12  C   UNL     1       2.751   6.590  18.407  0.00  0.00    +0.000 A 
BRANCH  10  13
ATOM     13  N   UNL     1       0.918   9.802  19.092  0.00  0.00    +0.000 N 
ATOM     14  O   UNL     1      -0.230   9.947  19.533  0.00  0.00    +0.000 OA
ATOM     15  O   UNL     1       1.555  10.674  18.485  0.00  0.00    +0.000 OA
ENDBRANCH  10  13
ENDBRANCH   6   7
BRANCH   1  17
ATOM     16  C   UNL     1       1.241   2.782  21.860  0.00  0.00    +0.000 C 
ATOM     17  C   UNL     1       1.170   3.217  20.423  0.00  0.00    +0.000 C 
ATOM     18  O   UNL     1       0.081   3.385  19.867  0.00  0.00    +0.000 OA
ENDBRANCH   1  17
BRANCH   2  19
ATOM     19  O   UNL     1       2.198   1.464  18.278  0.00  0.00    +0.000 OA
ATOM     20  H   UNL     1       1.565   1.190  18.979  0.00  0.00    +0.000 HD
ENDBRANCH   2  19
BRANCH   5  21
ATOM     21  C   UNL     1       5.528   5.116  18.571  0.00  0.00    +0.000 C 
BRANCH  21  22
ATOM     22  C   UNL     1       5.927   5.206  17.118  0.00  0.00    +0.000 A 
ATOM     23  C   UNL     1       7.126   4.630  16.671  0.00  0.00    +0.000 A 
ATOM     24  C   UNL     1       7.448   4.621  15.312  0.00  0.00    +0.000 A 
ATOM     25  C   UNL     1       6.573   5.182  14.385  0.00  0.00    +0.000 A 
ATOM     26  C   UNL     1       5.383   5.764  14.816  0.00  0.00    +0.000 A 
ATOM     27  C   UNL     1       5.062   5.780  16.176  0.00  0.00    +0.000 A 
ENDBRANCH  21  22
ENDBRANCH   5  21
TORSDOF 6
ENDMDL
