MODEL 1
REMARK VINA RESULT:      -7.7      0.000      0.000
REMARK  Name = 
REMARK  8 active torsions:
REMARK  status: ('A' for Active; 'I' for Inactive)
REMARK    1  A    between atoms: C_1  and  O_2
REMARK    2  A    between atoms: O_2  and  C_3
REMARK    3  A    between atoms: C_5  and  C_6
REMARK    4  A    between atoms: N_10  and  C_11
REMARK    5  A    between atoms: C_13  and  O_14
REMARK    6  A    between atoms: C_24  and  O_25
REMARK    7  A    between atoms: O_25  and  C_26
REMARK    8  A    between atoms: C_29  and  O_30
REMARK                            x       y       z     vdW  Elec       q    Type
REMARK                         _______ _______ _______ _____ _____    ______ ____
ROOT
ATOM      1  C   UNL     1       3.530   6.173  18.808  0.00  0.00    +0.000 A 
ATOM      2  C   UNL     1       2.932   7.445  18.779  0.00  0.00    +0.000 A 
ATOM      3  C   UNL     1       1.905   7.823  19.673  0.00  0.00    +0.000 A 
ATOM      4  C   UNL     1       1.245   9.061  19.646  0.00  0.00    +0.000 A 
ATOM      5  N   UNL     1       1.545   9.982  18.604  0.00  0.00    +0.000 N 
ATOM      6  N   UNL     1       0.306   9.389  20.557  0.00  0.00    +0.000 NA
ATOM      7  C   UNL     1      -0.005   8.457  21.456  0.00  0.00    +0.000 A 
ATOM      8  N   UNL     1       0.534   7.233  21.546  0.00  0.00    +0.000 NA
ATOM      9  C   UNL     1       1.486   6.927  20.656  0.00  0.00    +0.000 A 
ATOM     10  C   UNL     1       2.080   5.672  20.708  0.00  0.00    +0.000 A 
ATOM     11  C   UNL     1       3.087   5.278  19.807  0.00  0.00    +0.000 A 
ATOM     12  H   UNL     1       1.336   9.537  17.711  0.00  0.00    +0.000 HD
ENDROOT
BRANCH   5  13
ATOM     13  C   UNL     1       1.130  11.337  18.590  0.00  0.00    +0.000 A 
ATOM     14  C   UNL     1       2.045  12.350  18.906  0.00  0.00    +0.000 A 
ATOM     15  C   UNL     1       1.636  13.679  18.934  0.00  0.00    +0.000 A 
ATOM     16  C   UNL     1       0.332  14.032  18.615  0.00  0.00    +0.000 A 
ATOM     17  C   UNL     1      -0.586  13.040  18.268  0.00  0.00    +0.000 A 
ATOM     18  C   UNL     1      -0.187  11.702  18.252  0.00  0.00    +0.000 A 
ATOM     19 CL   UNL     1      -1.357  10.495  17.843  0.00  0.00    +0.000 Cl
BRANCH  15  20
ATOM     20  O   UNL     1       2.502  14.671  19.294  0.00  0.00    +0.000 OA
ATOM     21  H   UNL     1       2.042  15.261  19.915  0.00  0.00    +0.000 HD
ENDBRANCH  15  20
ENDBRANCH   5  13
BRANCH   1  24
ATOM     22  C   UNL     1       6.620   6.283  16.548  0.00  0.00    +0.000 A 
ATOM     23  C   UNL     1       5.751   6.482  17.636  0.00  0.00    +0.000 A 
ATOM     24  C   UNL     1       4.506   5.826  17.743  0.00  0.00    +0.000 A 
ATOM     25  C   UNL     1       4.187   4.909  16.732  0.00  0.00    +0.000 A 
ATOM     26  C   UNL     1       5.050   4.670  15.660  0.00  0.00    +0.000 A 
ATOM     27  C   UNL     1       6.255   5.367  15.560  0.00  0.00    +0.000 A 
BRANCH  22  29
ATOM     28  C   UNL     1       7.803   8.066  17.619  0.00  0.00    +0.000 C 
ATOM     29  O   UNL     1       7.741   7.067  16.611  0.00  0.00    +0.000 OA
ENDBRANCH  22  29
BRANCH  27  30
ATOM     30  O   UNL     1       7.045   5.128  14.470  0.00  0.00    +0.000 OA
ATOM     31  H   UNL     1       7.746   4.503  14.717  0.00  0.00    +0.000 HD
ENDBRANCH  27  30
ENDBRANCH   1  24
BRANCH  11  32
ATOM     32  O   UNL     1       3.708   4.055  19.864  0.00  0.00    +0.000 OA
ATOM     33  C   UNL     1       2.928   2.893  19.605  0.00  0.00    +0.000 C 
ENDBRANCH  11  32
TORSDOF 6
ENDMDL
MODEL 2
REMARK VINA RESULT:      -7.2      2.854      7.667
REMARK  Name = 
REMARK  8 active torsions:
REMARK  status: ('A' for Active; 'I' for Inactive)
REMARK    1  A    between atoms: C_1  and  O_2
REMARK    2  A    between atoms: O_2  and  C_3
REMARK    3  A    between atoms: C_5  and  C_6
REMARK    4  A    between atoms: N_10  and  C_11
REMARK    5  A    between atoms: C_13  and  O_14
REMARK    6  A    between atoms: C_24  and  O_25
REMARK    7  A    between atoms: O_25  and  C_26
REMARK    8  A    between atoms: C_29  and  O_30
REMARK                            x       y       z     vdW  Elec       q    Type
REMARK                         _______ _______ _______ _____ _____    ______ ____
ROOT
ATOM      1  C   UNL     1       1.191   8.711  19.518  0.00  0.00    +0.000 A 
ATOM      2  C   UNL     1       2.191   8.032  18.800  0.00  0.00    +0.000 A 
ATOM      3  C   UNL     1       2.703   6.780  19.210  0.00  0.00    +0.000 A 
ATOM      4  C   UNL     1       3.735   6.091  18.554  0.00  0.00    +0.000 A 
ATOM      5  N   UNL     1       4.390   6.712  17.454  0.00  0.00    +0.000 N 
ATOM      6  N   UNL     1       4.150   4.875  18.958  0.00  0.00    +0.000 NA
ATOM      7  C   UNL     1       3.569   4.377  20.048  0.00  0.00    +0.000 A 
ATOM      8  N   UNL     1       2.606   4.966  20.770  0.00  0.00    +0.000 NA
ATOM      9  C   UNL     1       2.178   6.161  20.344  0.00  0.00    +0.000 A 
ATOM     10  C   UNL     1       1.178   6.814  21.055  0.00  0.00    +0.000 A 
ATOM     11  C   UNL     1       0.678   8.071  20.668  0.00  0.00    +0.000 A 
ATOM     12  H   UNL     1       4.802   7.587  17.776  0.00  0.00    +0.000 HD
ENDROOT
BRANCH   5  13
ATOM     13  C   UNL     1       5.275   6.046  16.570  0.00  0.00    +0.000 A 
ATOM     14  C   UNL     1       4.767   5.370  15.452  0.00  0.00    +0.000 A 
ATOM     15  C   UNL     1       5.624   4.680  14.602  0.00  0.00    +0.000 A 
ATOM     16  C   UNL     1       6.995   4.676  14.820  0.00  0.00    +0.000 A 
ATOM     17  C   UNL     1       7.523   5.367  15.910  0.00  0.00    +0.000 A 
ATOM     18  C   UNL     1       6.667   6.051  16.777  0.00  0.00    +0.000 A 
ATOM     19 CL   UNL     1       7.352   6.877  18.134  0.00  0.00    +0.000 Cl
BRANCH  15  20
ATOM     20  O   UNL     1       5.138   3.972  13.541  0.00  0.00    +0.000 OA
ATOM     21  H   UNL     1       5.199   4.535  12.751  0.00  0.00    +0.000 HD
ENDBRANCH  15  20
ENDBRANCH   5  13
BRANCH   1  24
ATOM     22  C   UNL     1       1.251  12.512  19.054  0.00  0.00    +0.000 A 
ATOM     23  C   UNL     1       1.655  11.191  19.315  0.00  0.00    +0.000 A 
ATOM     24  C   UNL     1       0.814  10.081  19.082  0.00  0.00    +0.000 A 
ATOM     25  C   UNL     1      -0.442  10.347  18.519  0.00  0.00    +0.000 A 
ATOM     26  C   UNL     1      -0.850  11.649  18.221  0.00  0.00    +0.000 A 
ATOM     27  C   UNL     1      -0.013  12.730  18.503  0.00  0.00    +0.000 A 
BRANCH  22  29
ATOM     28  C   UNL     1       3.047  13.953  18.401  0.00  0.00    +0.000 C 
ATOM     29  O   UNL     1       2.194  13.438  19.414  0.00  0.00    +0.000 OA
ENDBRANCH  22  29
BRANCH  27  30
ATOM     30  O   UNL     1      -0.475  13.987  18.231  0.00  0.00    +0.000 OA
ATOM     31  H   UNL     1      -1.345  13.920  17.806  0.00  0.00    +0.000 HD
ENDBRANCH  27  30
ENDBRANCH   1  24
BRANCH  11  32
ATOM     32  O   UNL     1      -0.332   8.715  21.339  0.00  0.00    +0.000 OA
ATOM     33  C   UNL     1      -0.036   9.293  22.605  0.00  0.00    +0.000 C 
ENDBRANCH  11  32
TORSDOF 6
ENDMDL
MODEL 3
REMARK VINA RESULT:      -7.2      1.431      2.286
REMARK  Name = 
REMARK  8 active torsions:
REMARK  status: ('A' for Active; 'I' for Inactive)
REMARK    1  A    between atoms: C_1  and  O_2
REMARK    2  A    between atoms: O_2  and  C_3
REMARK    3  A    between atoms: C_5  and  C_6
REMARK    4  A    between atoms: N_10  and  C_11
REMARK    5  A    between atoms: C_13  and  O_14
REMARK    6  A    between atoms: C_24  and  O_25
REMARK    7  A    between atoms: O_25  and  C_26
REMARK    8  A    between atoms: C_29  and  O_30
REMARK                            x       y       z     vdW  Elec       q    Type
REMARK                         _______ _______ _______ _____ _____    ______ ____
ROOT
ATOM      1  C   UNL     1       2.489   6.928  19.197  0.00  0.00    +0.000 A 
ATOM      2  C   UNL     1       2.159   8.293  19.147  0.00  0.00    +0.000 A 
ATOM      3  C   UNL     1       1.284   8.898  20.079  0.00  0.00    +0.000 A 
ATOM      4  C   UNL     1       0.887  10.243  20.036  0.00  0.00    +0.000 A 
ATOM      5  N   UNL     1       1.304  11.053  18.943  0.00  0.00    +0.000 N 
ATOM      6  N   UNL     1       0.090  10.781  20.980  0.00  0.00    +0.000 NA
ATOM      7  C   UNL     1      -0.348   9.959  21.932  0.00  0.00    +0.000 A 
ATOM      8  N   UNL     1      -0.063   8.654  22.043  0.00  0.00    +0.000 NA
ATOM      9  C   UNL     1       0.753   8.135  21.118  0.00  0.00    +0.000 A 
ATOM     10  C   UNL     1       1.084   6.787  21.189  0.00  0.00    +0.000 A 
ATOM     11  C   UNL     1       1.936   6.171  20.253  0.00  0.00    +0.000 A 
ATOM     12  H   UNL     1       0.957  10.634  18.081  0.00  0.00    +0.000 HD
ENDROOT
BRANCH   5  13
ATOM     13  C   UNL     1       1.170  12.463  18.895  0.00  0.00    +0.000 A 
ATOM     14  C   UNL     1       2.255  13.279  19.244  0.00  0.00    +0.000 A 
ATOM     15  C   UNL     1       2.120  14.663  19.239  0.00  0.00    +0.000 A 
ATOM     16  C   UNL     1       0.929  15.263  18.856  0.00  0.00    +0.000 A 
ATOM     17  C   UNL     1      -0.153  14.468  18.477  0.00  0.00    +0.000 A 
ATOM     18  C   UNL     1      -0.031  13.077  18.493  0.00  0.00    +0.000 A 
ATOM     19 CL   UNL     1      -1.400  12.121  18.041  0.00  0.00    +0.000 Cl
BRANCH  15  20
ATOM     20  O   UNL     1       3.151  15.468  19.629  0.00  0.00    +0.000 OA
ATOM     21  H   UNL     1       3.526  15.101  20.448  0.00  0.00    +0.000 HD
ENDBRANCH  15  20
ENDBRANCH   5  13
BRANCH   1  24
ATOM     22  C   UNL     1       4.294   4.400  16.957  0.00  0.00    +0.000 A 
ATOM     23  C   UNL     1       3.403   4.965  17.887  0.00  0.00    +0.000 A 
ATOM     24  C   UNL     1       3.310   6.358  18.097  0.00  0.00    +0.000 A 
ATOM     25  C   UNL     1       4.115   7.174  17.290  0.00  0.00    +0.000 A 
ATOM     26  C   UNL     1       4.982   6.635  16.337  0.00  0.00    +0.000 A 
ATOM     27  C   UNL     1       5.083   5.251  16.182  0.00  0.00    +0.000 A 
BRANCH  22  29
ATOM     28  C   UNL     1       3.345   2.381  17.823  0.00  0.00    +0.000 C 
ATOM     29  O   UNL     1       4.269   3.030  16.961  0.00  0.00    +0.000 OA
ENDBRANCH  22  29
BRANCH  27  30
ATOM     30  O   UNL     1       5.977   4.772  15.265  0.00  0.00    +0.000 OA
ATOM     31  H   UNL     1       6.770   5.331  15.273  0.00  0.00    +0.000 HD
ENDBRANCH  27  30
ENDBRANCH   1  24
BRANCH  11  32
ATOM     32  O   UNL     1       2.299   4.849  20.328  0.00  0.00    +0.000 OA
ATOM     33  C   UNL     1       1.332   3.910  20.783  0.00  0.00    +0.000 C 
ENDBRANCH  11  32
TORSDOF 6
ENDMDL
MODEL 4
REMARK VINA RESULT:      -7.1      1.047      1.069
REMARK  Name = 
REMARK  8 active torsions:
REMARK  status: ('A' for Active; 'I' for Inactive)
REMARK    1  A    between atoms: C_1  and  O_2
REMARK    2  A    between atoms: O_2  and  C_3
REMARK    3  A    between atoms: C_5  and  C_6
REMARK    4  A    between atoms: N_10  and  C_11
REMARK    5  A    between atoms: C_13  and  O_14
REMARK    6  A    between atoms: C_24  and  O_25
REMARK    7  A    between atoms: O_25  and  C_26
REMARK    8  A    between atoms: C_29  and  O_30
REMARK                            x       y       z     vdW  Elec       q    Type
REMARK                         _______ _______ _______ _____ _____    ______ ____
ROOT
ATOM      1  C   UNL     1       3.287   6.408  19.098  0.00  0.00    +0.000 A 
ATOM      2  C   UNL     1       2.745   7.705  19.053  0.00  0.00    +0.000 A 
ATOM      3  C   UNL     1       1.660   8.103  19.866  0.00  0.00    +0.000 A 
ATOM      4  C   UNL     1       1.055   9.368  19.818  0.00  0.00    +0.000 A 
ATOM      5  N   UNL     1       1.483  10.302  18.832  0.00  0.00    +0.000 N 
ATOM      6  N   UNL     1       0.055   9.714  20.652  0.00  0.00    +0.000 NA
ATOM      7  C   UNL     1      -0.371   8.774  21.494  0.00  0.00    +0.000 A 
ATOM      8  N   UNL     1       0.108   7.526  21.595  0.00  0.00    +0.000 NA
ATOM      9  C   UNL     1       1.122   7.202  20.783  0.00  0.00    +0.000 A 
ATOM     10  C   UNL     1       1.657   5.921  20.850  0.00  0.00    +0.000 A 
ATOM     11  C   UNL     1       2.723   5.508  20.028  0.00  0.00    +0.000 A 
ATOM     12  H   UNL     1       1.335   9.889  17.912  0.00  0.00    +0.000 HD
ENDROOT
BRANCH   5  13
ATOM     13  C   UNL     1       1.126  11.673  18.820  0.00  0.00    +0.000 A 
ATOM     14  C   UNL     1       2.054  12.639  19.234  0.00  0.00    +0.000 A 
ATOM     15  C   UNL     1       1.698  13.983  19.264  0.00  0.00    +0.000 A 
ATOM     16  C   UNL     1       0.439  14.399  18.853  0.00  0.00    +0.000 A 
ATOM     17  C   UNL     1      -0.488  13.455  18.411  0.00  0.00    +0.000 A 
ATOM     18  C   UNL     1      -0.145  12.102  18.391  0.00  0.00    +0.000 A 
ATOM     19 CL   UNL     1      -1.326  10.955  17.860  0.00  0.00    +0.000 Cl
BRANCH  15  20
ATOM     20  O   UNL     1       2.573  14.929  19.717  0.00  0.00    +0.000 OA
ATOM     21  H   UNL     1       3.387  14.861  19.190  0.00  0.00    +0.000 HD
ENDBRANCH  15  20
ENDBRANCH   5  13
BRANCH   1  24
ATOM     22  C   UNL     1       6.635   5.284  17.617  0.00  0.00    +0.000 A 
ATOM     23  C   UNL     1       5.570   5.486  18.513  0.00  0.00    +0.000 A 
ATOM     24  C   UNL     1       4.338   6.046  18.111  0.00  0.00    +0.000 A 
ATOM     25  C   UNL     1       4.195   6.347  16.750  0.00  0.00    +0.000 A 
ATOM     26  C   UNL     1       5.228   6.123  15.837  0.00  0.00    +0.000 A 
ATOM     27  C   UNL     1       6.450   5.608  16.273  0.00  0.00    +0.000 A 
BRANCH  22  29
ATOM     28  C   UNL     1       8.195   5.415  19.428  0.00  0.00    +0.000 C 
ATOM     29  O   UNL     1       7.759   4.792  18.229  0.00  0.00    +0.000 OA
ENDBRANCH  22  29
BRANCH  27  30
ATOM     30  O   UNL     1       7.444   5.445  15.348  0.00  0.00    +0.000 OA
ATOM     31  H   UNL     1       8.181   6.037  15.567  0.00  0.00    +0.000 HD
ENDBRANCH  27  30
ENDBRANCH   1  24
BRANCH  11  32
ATOM     32  O   UNL     1       3.286   4.258  20.104  0.00  0.00    +0.000 OA
ATOM     33  C   UNL     1       2.615   3.264  20.869  0.00  0.00    +0.000 C 
ENDBRANCH  11  32
TORSDOF 6
ENDMDL
MODEL 5
REMARK VINA RESULT:      -6.8      2.926      7.861
REMARK  Name = 
REMARK  8 active torsions:
REMARK  status: ('A' for Active; 'I' for Inactive)
REMARK    1  A    between atoms: C_1  and  O_2
REMARK    2  A    between atoms: O_2  and  C_3
REMARK    3  A    between atoms: C_5  and  C_6
REMARK    4  A    between atoms: N_10  and  C_11
REMARK    5  A    between atoms: C_13  and  O_14
REMARK    6  A    between atoms: C_24  and  O_25
REMARK    7  A    between atoms: O_25  and  C_26
REMARK    8  A    between atoms: C_29  and  O_30
REMARK                            x       y       z     vdW  Elec       q    Type
REMARK                         _______ _______ _______ _____ _____    ______ ____
ROOT
ATOM      1  C   UNL     1       1.249   8.602  19.724  0.00  0.00    +0.000 A 
ATOM      2  C   UNL     1       2.239   7.943  18.973  0.00  0.00    +0.000 A 
ATOM      3  C   UNL     1       2.709   6.652  19.304  0.00  0.00    +0.000 A 
ATOM      4  C   UNL     1       3.729   5.978  18.616  0.00  0.00    +0.000 A 
ATOM      5  N   UNL     1       4.417   6.652  17.568  0.00  0.00    +0.000 N 
ATOM      6  N   UNL     1       4.104   4.726  18.942  0.00  0.00    +0.000 NA
ATOM      7  C   UNL     1       3.493   4.173  19.988  0.00  0.00    +0.000 A 
ATOM      8  N   UNL     1       2.538   4.741  20.737  0.00  0.00    +0.000 NA
ATOM      9  C   UNL     1       2.150   5.974  20.387  0.00  0.00    +0.000 A 
ATOM     10  C   UNL     1       1.160   6.606  21.128  0.00  0.00    +0.000 A 
ATOM     11  C   UNL     1       0.702   7.902  20.821  0.00  0.00    +0.000 A 
ATOM     12  H   UNL     1       4.849   7.491  17.953  0.00  0.00    +0.000 HD
ENDROOT
BRANCH   5  13
ATOM     13  C   UNL     1       5.296   6.021  16.652  0.00  0.00    +0.000 A 
ATOM     14  C   UNL     1       4.776   5.367  15.525  0.00  0.00    +0.000 A 
ATOM     15  C   UNL     1       5.628   4.710  14.643  0.00  0.00    +0.000 A 
ATOM     16  C   UNL     1       7.002   4.720  14.837  0.00  0.00    +0.000 A 
ATOM     17  C   UNL     1       7.540   5.390  15.935  0.00  0.00    +0.000 A 
ATOM     18  C   UNL     1       6.691   6.040  16.835  0.00  0.00    +0.000 A 
ATOM     19 CL   UNL     1       7.388   6.841  18.200  0.00  0.00    +0.000 Cl
BRANCH  15  20
ATOM     20  O   UNL     1       5.132   4.023  13.573  0.00  0.00    +0.000 OA
ATOM     21  H   UNL     1       5.335   3.081  13.702  0.00  0.00    +0.000 HD
ENDBRANCH  15  20
ENDBRANCH   5  13
BRANCH   1  24
ATOM     22  C   UNL     1      -0.708  11.685  18.569  0.00  0.00    +0.000 A 
ATOM     23  C   UNL     1      -0.400  10.401  19.052  0.00  0.00    +0.000 A 
ATOM     24  C   UNL     1       0.917  10.009  19.376  0.00  0.00    +0.000 A 
ATOM     25  C   UNL     1       1.917  10.983  19.247  0.00  0.00    +0.000 A 
ATOM     26  C   UNL     1       1.627  12.274  18.800  0.00  0.00    +0.000 A 
ATOM     27  C   UNL     1       0.322  12.619  18.447  0.00  0.00    +0.000 A 
BRANCH  22  29
ATOM     28  C   UNL     1      -2.493  11.292  17.025  0.00  0.00    +0.000 C 
ATOM     29  O   UNL     1      -2.033  11.832  18.255  0.00  0.00    +0.000 OA
ENDBRANCH  22  29
BRANCH  27  30
ATOM     30  O   UNL     1       0.098  13.883  17.977  0.00  0.00    +0.000 OA
ATOM     31  H   UNL     1      -0.221  13.829  17.062  0.00  0.00    +0.000 HD
ENDBRANCH  27  30
ENDBRANCH   1  24
BRANCH  11  32
ATOM     32  O   UNL     1      -0.299   8.528  21.522  0.00  0.00    +0.000 OA
ATOM     33  C   UNL     1       0.047   9.215  22.718  0.00  0.00    +0.000 C 
ENDBRANCH  11  32
TORSDOF 6
ENDMDL
MODEL 6
REMARK VINA RESULT:      -6.8      0.796      1.761
REMARK  Name = 
REMARK  8 active torsions:
REMARK  status: ('A' for Active; 'I' for Inactive)
REMARK    1  A    between atoms: C_1  and  O_2
REMARK    2  A    between atoms: O_2  and  C_3
REMARK    3  A    between atoms: C_5  and  C_6
REMARK    4  A    between atoms: N_10  and  C_11
REMARK    5  A    between atoms: C_13  and  O_14
REMARK    6  A    between atoms: C_24  and  O_25
REMARK    7  A    between atoms: O_25  and  C_26
REMARK    8  A    between atoms: C_29  and  O_30
REMARK                            x       y       z     vdW  Elec       q    Type
REMARK                         _______ _______ _______ _____ _____    ______ ____
ROOT
ATOM      1  C   UNL     1       3.915   6.264  18.518  0.00  0.00    +0.000 A 
ATOM      2  C   UNL     1       3.195   7.471  18.547  0.00  0.00    +0.000 A 
ATOM      3  C   UNL     1       2.151   7.710  19.470  0.00  0.00    +0.000 A 
ATOM      4  C   UNL     1       1.373   8.878  19.502  0.00  0.00    +0.000 A 
ATOM      5  N   UNL     1       1.564   9.864  18.495  0.00  0.00    +0.000 N 
ATOM      6  N   UNL     1       0.422   9.076  20.436  0.00  0.00    +0.000 NA
ATOM      7  C   UNL     1       0.218   8.084  21.301  0.00  0.00    +0.000 A 
ATOM      8  N   UNL     1       0.875   6.916  21.334  0.00  0.00    +0.000 NA
ATOM      9  C   UNL     1       1.838   6.740  20.420  0.00  0.00    +0.000 A 
ATOM     10  C   UNL     1       2.552   5.548  20.413  0.00  0.00    +0.000 A 
ATOM     11  C   UNL     1       3.578   5.291  19.484  0.00  0.00    +0.000 A 
ATOM     12  H   UNL     1       1.385   9.437  17.587  0.00  0.00    +0.000 HD
ENDROOT
BRANCH   5  13
ATOM     13  C   UNL     1       1.018  11.171  18.540  0.00  0.00    +0.000 A 
ATOM     14  C   UNL     1       1.826  12.251  18.926  0.00  0.00    +0.000 A 
ATOM     15  C   UNL     1       1.288  13.531  19.013  0.00  0.00    +0.000 A 
ATOM     16  C   UNL     1      -0.040  13.771  18.687  0.00  0.00    +0.000 A 
ATOM     17  C   UNL     1      -0.851  12.715  18.273  0.00  0.00    +0.000 A 
ATOM     18  C   UNL     1      -0.323  11.424  18.197  0.00  0.00    +0.000 A 
ATOM     19 CL   UNL     1      -1.362  10.132  17.703  0.00  0.00    +0.000 Cl
BRANCH  15  20
ATOM     20  O   UNL     1       2.048  14.582  19.440  0.00  0.00    +0.000 OA
ATOM     21  H   UNL     1       2.117  14.529  20.408  0.00  0.00    +0.000 HD
ENDBRANCH  15  20
ENDBRANCH   5  13
BRANCH   1  24
ATOM     22  C   UNL     1       5.716   4.740  15.501  0.00  0.00    +0.000 A 
ATOM     23  C   UNL     1       4.722   5.059  16.444  0.00  0.00    +0.000 A 
ATOM     24  C   UNL     1       4.903   6.056  17.426  0.00  0.00    +0.000 A 
ATOM     25  C   UNL     1       6.110   6.768  17.391  0.00  0.00    +0.000 A 
ATOM     26  C   UNL     1       7.095   6.491  16.441  0.00  0.00    +0.000 A 
ATOM     27  C   UNL     1       6.905   5.469  15.509  0.00  0.00    +0.000 A 
BRANCH  22  29
ATOM     28  C   UNL     1       5.374   3.915  13.280  0.00  0.00    +0.000 C 
ATOM     29  O   UNL     1       5.359   3.699  14.684  0.00  0.00    +0.000 OA
ENDBRANCH  22  29
BRANCH  27  30
ATOM     30  O   UNL     1       7.917   5.210  14.627  0.00  0.00    +0.000 OA
ATOM     31  H   UNL     1       8.214   4.293  14.745  0.00  0.00    +0.000 HD
ENDBRANCH  27  30
ENDBRANCH   1  24
BRANCH  11  32
ATOM     32  O   UNL     1       4.316   4.133  19.484  0.00  0.00    +0.000 OA
ATOM     33  C   UNL     1       3.658   2.917  19.818  0.00  0.00    +0.000 C 
ENDBRANCH  11  32
TORSDOF 6
ENDMDL
MODEL 7
REMARK VINA RESULT:      -6.7      6.413     10.226
REMARK  Name = 
REMARK  8 active torsions:
REMARK  status: ('A' for Active; 'I' for Inactive)
REMARK    1  A    between atoms: C_1  and  O_2
REMARK    2  A    between atoms: O_2  and  C_3
REMARK    3  A    between atoms: C_5  and  C_6
REMARK    4  A    between atoms: N_10  and  C_11
REMARK    5  A    between atoms: C_13  and  O_14
REMARK    6  A    between atoms: C_24  and  O_25
REMARK    7  A    between atoms: O_25  and  C_26
REMARK    8  A    between atoms: C_29  and  O_30
REMARK                            x       y       z     vdW  Elec       q    Type
REMARK                         _______ _______ _______ _____ _____    ______ ____
ROOT
ATOM      1  C   UNL     1       3.970  14.857  19.226  0.00  0.00    +0.000 A 
ATOM      2  C   UNL     1       5.314  14.487  19.040  0.00  0.00    +0.000 A 
ATOM      3  C   UNL     1       6.347  15.437  18.867  0.00  0.00    +0.000 A 
ATOM      4  C   UNL     1       7.691  15.113  18.629  0.00  0.00    +0.000 A 
ATOM      5  N   UNL     1       8.052  13.747  18.453  0.00  0.00    +0.000 N 
ATOM      6  N   UNL     1       8.645  16.058  18.522  0.00  0.00    +0.000 NA
ATOM      7  C   UNL     1       8.241  17.325  18.602  0.00  0.00    +0.000 A 
ATOM      8  N   UNL     1       6.982  17.744  18.788  0.00  0.00    +0.000 NA
ATOM      9  C   UNL     1       6.045  16.797  18.923  0.00  0.00    +0.000 A 
ATOM     10  C   UNL     1       4.723  17.177  19.121  0.00  0.00    +0.000 A 
ATOM     11  C   UNL     1       3.685  16.239  19.271  0.00  0.00    +0.000 A 
ATOM     12  H   UNL     1       7.532  13.376  17.659  0.00  0.00    +0.000 HD
ENDROOT
BRANCH   5  13
ATOM     13  C   UNL     1       9.386  13.268  18.437  0.00  0.00    +0.000 A 
ATOM     14  C   UNL     1      10.169  13.425  17.285  0.00  0.00    +0.000 A 
ATOM     15  C   UNL     1      11.465  12.921  17.246  0.00  0.00    +0.000 A 
ATOM     16  C   UNL     1      12.020  12.292  18.352  0.00  0.00    +0.000 A 
ATOM     17  C   UNL     1      11.267  12.153  19.517  0.00  0.00    +0.000 A 
ATOM     18  C   UNL     1       9.959  12.642  19.560  0.00  0.00    +0.000 A 
ATOM     19 CL   UNL     1       9.044  12.432  21.012  0.00  0.00    +0.000 Cl
BRANCH  15  20
ATOM     20  O   UNL     1      12.220  13.017  16.113  0.00  0.00    +0.000 OA
ATOM     21  H   UNL     1      12.239  13.951  15.843  0.00  0.00    +0.000 HD
ENDBRANCH  15  20
ENDBRANCH   5  13
BRANCH   1  24
ATOM     22  C   UNL     1       1.330  12.413  20.540  0.00  0.00    +0.000 A 
ATOM     23  C   UNL     1       2.192  13.520  20.431  0.00  0.00    +0.000 A 
ATOM     24  C   UNL     1       2.941  13.785  19.265  0.00  0.00    +0.000 A 
ATOM     25  C   UNL     1       2.747  12.920  18.179  0.00  0.00    +0.000 A 
ATOM     26  C   UNL     1       1.870  11.836  18.253  0.00  0.00    +0.000 A 
ATOM     27  C   UNL     1       1.176  11.574  19.436  0.00  0.00    +0.000 A 
BRANCH  22  29
ATOM     28  C   UNL     1      -0.520  12.903  21.977  0.00  0.00    +0.000 C 
ATOM     29  O   UNL     1       0.754  12.307  21.778  0.00  0.00    +0.000 OA
ENDBRANCH  22  29
BRANCH  27  30
ATOM     30  O   UNL     1       0.362  10.477  19.472  0.00  0.00    +0.000 OA
ATOM     31  H   UNL     1       0.790   9.780  19.995  0.00  0.00    +0.000 HD
ENDBRANCH  27  30
ENDBRANCH   1  24
BRANCH  11  32
ATOM     32  O   UNL     1       2.379  16.597  19.501  0.00  0.00    +0.000 OA
ATOM     33  C   UNL     1       1.667  17.249  18.456  0.00  0.00    +0.000 C 
ENDBRANCH  11  32
TORSDOF 6
ENDMDL
MODEL 8
REMARK VINA RESULT:      -6.6      1.324      1.556
REMARK  Name = 
REMARK  8 active torsions:
REMARK  status: ('A' for Active; 'I' for Inactive)
REMARK    1  A    between atoms: C_1  and  O_2
REMARK    2  A    between atoms: O_2  and  C_3
REMARK    3  A    between atoms: C_5  and  C_6
REMARK    4  A    between atoms: N_10  and  C_11
REMARK    5  A    between atoms: C_13  and  O_14
REMARK    6  A    between atoms: C_24  and  O_25
REMARK    7  A    between atoms: O_25  and  C_26
REMARK    8  A    between atoms: C_29  and  O_30
REMARK                            x       y       z     vdW  Elec       q    Type
REMARK                         _______ _______ _______ _____ _____    ______ ____
ROOT
ATOM      1  C   UNL     1       3.524   6.235  18.809  0.00  0.00    +0.000 A 
ATOM      2  C   UNL     1       2.879   7.484  18.784  0.00  0.00    +0.000 A 
ATOM      3  C   UNL     1       1.852   7.827  19.692  0.00  0.00    +0.000 A 
ATOM      4  C   UNL     1       1.148   9.041  19.671  0.00  0.00    +0.000 A 
ATOM      5  N   UNL     1       1.399   9.968  18.622  0.00  0.00    +0.000 N 
ATOM      6  N   UNL     1       0.212   9.338  20.594  0.00  0.00    +0.000 NA
ATOM      7  C   UNL     1      -0.052   8.400  21.501  0.00  0.00    +0.000 A 
ATOM      8  N   UNL     1       0.532   7.196  21.587  0.00  0.00    +0.000 NA
ATOM      9  C   UNL     1       1.482   6.921  20.684  0.00  0.00    +0.000 A 
ATOM     10  C   UNL     1       2.121   5.688  20.732  0.00  0.00    +0.000 A 
ATOM     11  C   UNL     1       3.128   5.328  19.817  0.00  0.00    +0.000 A 
ATOM     12  H   UNL     1       1.194   9.513  17.733  0.00  0.00    +0.000 HD
ENDROOT
BRANCH   5  13
ATOM     13  C   UNL     1       0.935  11.307  18.609  0.00  0.00    +0.000 A 
ATOM     14  C   UNL     1      -0.407  11.583  18.908  0.00  0.00    +0.000 A 
ATOM     15  C   UNL     1      -0.881  12.890  18.857  0.00  0.00    +0.000 A 
ATOM     16  C   UNL     1      -0.033  13.945  18.549  0.00  0.00    +0.000 A 
ATOM     17  C   UNL     1       1.312  13.694  18.278  0.00  0.00    +0.000 A 
ATOM     18  C   UNL     1       1.793  12.383  18.312  0.00  0.00    +0.000 A 
ATOM     19 CL   UNL     1       3.460  12.103  17.946  0.00  0.00    +0.000 Cl
BRANCH  15  20
ATOM     20  O   UNL     1      -2.197  13.167  19.092  0.00  0.00    +0.000 OA
ATOM     21  H   UNL     1      -2.240  13.939  19.681  0.00  0.00    +0.000 HD
ENDBRANCH  15  20
ENDBRANCH   5  13
BRANCH   1  24
ATOM     22  C   UNL     1       6.606   6.410  16.542  0.00  0.00    +0.000 A 
ATOM     23  C   UNL     1       5.741   6.577  17.639  0.00  0.00    +0.000 A 
ATOM     24  C   UNL     1       4.496   5.918  17.730  0.00  0.00    +0.000 A 
ATOM     25  C   UNL     1       4.172   5.032  16.693  0.00  0.00    +0.000 A 
ATOM     26  C   UNL     1       5.032   4.825  15.612  0.00  0.00    +0.000 A 
ATOM     27  C   UNL     1       6.237   5.524  15.529  0.00  0.00    +0.000 A 
BRANCH  22  29
ATOM     28  C   UNL     1       7.782   8.177  17.645  0.00  0.00    +0.000 C 
ATOM     29  O   UNL     1       7.728   7.191  16.625  0.00  0.00    +0.000 OA
ENDBRANCH  22  29
BRANCH  27  30
ATOM     30  O   UNL     1       7.023   5.317  14.430  0.00  0.00    +0.000 OA
ATOM     31  H   UNL     1       7.945   5.519  14.656  0.00  0.00    +0.000 HD
ENDBRANCH  27  30
ENDBRANCH   1  24
BRANCH  11  32
ATOM     32  O   UNL     1       3.794   4.128  19.869  0.00  0.00    +0.000 OA
ATOM     33  C   UNL     1       3.024   2.932  19.850  0.00  0.00    +0.000 C 
ENDBRANCH  11  32
TORSDOF 6
ENDMDL
MODEL 9
REMARK VINA RESULT:      -6.6      3.793      8.650
REMARK  Name = 
REMARK  8 active torsions:
REMARK  status: ('A' for Active; 'I' for Inactive)
REMARK    1  A    between atoms: C_1  and  O_2
REMARK    2  A    between atoms: O_2  and  C_3
REMARK    3  A    between atoms: C_5  and  C_6
REMARK    4  A    between atoms: N_10  and  C_11
REMARK    5  A    between atoms: C_13  and  O_14
REMARK    6  A    between atoms: C_24  and  O_25
REMARK    7  A    between atoms: O_25  and  C_26
REMARK    8  A    between atoms: C_29  and  O_30
REMARK                            x       y       z     vdW  Elec       q    Type
REMARK                         _______ _______ _______ _____ _____    ______ ____
ROOT
ATOM      1  C   UNL     1      -1.603  10.619  19.132  0.00  0.00    +0.000 A 
ATOM      2  C   UNL     1      -0.692   9.567  19.336  0.00  0.00    +0.000 A 
ATOM      3  C   UNL     1       0.121   9.480  20.489  0.00  0.00    +0.000 A 
ATOM      4  C   UNL     1       1.078   8.478  20.711  0.00  0.00    +0.000 A 
ATOM      5  N   UNL     1       1.334   7.527  19.684  0.00  0.00    +0.000 N 
ATOM      6  N   UNL     1       1.791   8.412  21.853  0.00  0.00    +0.000 NA
ATOM      7  C   UNL     1       1.581   9.379  22.744  0.00  0.00    +0.000 A 
ATOM      8  N   UNL     1       0.723  10.400  22.616  0.00  0.00    +0.000 NA
ATOM      9  C   UNL     1      -0.003  10.441  21.492  0.00  0.00    +0.000 A 
ATOM     10  C   UNL     1      -0.911  11.477  21.311  0.00  0.00    +0.000 A 
ATOM     11  C   UNL     1      -1.707  11.586  20.155  0.00  0.00    +0.000 A 
ATOM     12  H   UNL     1       1.643   8.026  18.851  0.00  0.00    +0.000 HD
ENDROOT
BRANCH   5  13
ATOM     13  C   UNL     1       2.094   6.343  19.860  0.00  0.00    +0.000 A 
ATOM     14  C   UNL     1       1.714   5.409  20.833  0.00  0.00    +0.000 A 
ATOM     15  C   UNL     1       2.477   4.265  21.041  0.00  0.00    +0.000 A 
ATOM     16  C   UNL     1       3.602   4.007  20.269  0.00  0.00    +0.000 A 
ATOM     17  C   UNL     1       3.979   4.911  19.276  0.00  0.00    +0.000 A 
ATOM     18  C   UNL     1       3.227   6.070  19.071  0.00  0.00    +0.000 A 
ATOM     19 CL   UNL     1       3.736   7.182  17.848  0.00  0.00    +0.000 Cl
BRANCH  15  20
ATOM     20  O   UNL     1       2.151   3.373  22.022  0.00  0.00    +0.000 OA
ATOM     21  H   UNL     1       1.694   3.860  22.729  0.00  0.00    +0.000 HD
ENDBRANCH  15  20
ENDBRANCH   5  13
BRANCH   1  24
ATOM     22  C   UNL     1      -4.282  11.386  16.505  0.00  0.00    +0.000 A 
ATOM     23  C   UNL     1      -3.510  11.430  17.680  0.00  0.00    +0.000 A 
ATOM     24  C   UNL     1      -2.314  10.695  17.829  0.00  0.00    +0.000 A 
ATOM     25  C   UNL     1      -1.888   9.950  16.721  0.00  0.00    +0.000 A 
ATOM     26  C   UNL     1      -2.621   9.920  15.532  0.00  0.00    +0.000 A 
ATOM     27  C   UNL     1      -3.823  10.623  15.430  0.00  0.00    +0.000 A 
BRANCH  22  29
ATOM     28  C   UNL     1      -6.083  12.190  17.860  0.00  0.00    +0.000 C 
ATOM     29  O   UNL     1      -5.435  12.120  16.598  0.00  0.00    +0.000 OA
ENDBRANCH  22  29
BRANCH  27  30
ATOM     30  O   UNL     1      -4.524  10.528  14.261  0.00  0.00    +0.000 OA
ATOM     31  H   UNL     1      -4.253  11.249  13.669  0.00  0.00    +0.000 HD
ENDBRANCH  27  30
ENDBRANCH   1  24
BRANCH  11  32
ATOM     32  O   UNL     1      -2.633  12.585  19.975  0.00  0.00    +0.000 OA
ATOM     33  C   UNL     1      -3.509  12.891  21.053  0.00  0.00    +0.000 C 
ENDBRANCH  11  32
TORSDOF 6
ENDMDL
