MODEL 1
REMARK VINA RESULT:      -8.1      0.000      0.000
REMARK  Name = 
REMARK  7 active torsions:
REMARK  status: ('A' for Active; 'I' for Inactive)
REMARK    1  A    between atoms: C_1  and  C_2
REMARK    2  A    between atoms: C_2  and  O_3
REMARK    3  A    between atoms: C_2  and  C_4
REMARK    4  A    between atoms: C_4  and  N_5
REMARK    5  A    between atoms: N_5  and  C_6
REMARK    6  A    between atoms: C_12  and  C_13
REMARK    7  A    between atoms: C_19  and  C_20
REMARK                            x       y       z     vdW  Elec       q    Type
REMARK                         _______ _______ _______ _____ _____    ______ ____
ROOT
ATOM      1  C   UNL     1       5.426   4.703  17.525  0.00  0.00    +0.000 A 
ATOM      2  N   UNL     1       6.590   5.007  16.899  0.00  0.00    +0.000 NA
ATOM      3  C   UNL     1       6.795   6.253  16.442  0.00  0.00    +0.000 A 
ATOM      4  N   UNL     1       5.972   7.296  16.534  0.00  0.00    +0.000 NA
ATOM      5  C   UNL     1       4.855   6.979  17.201  0.00  0.00    +0.000 A 
ATOM      6  O   UNL     1       3.896   7.903  17.453  0.00  0.00    +0.000 OA
ATOM      7  C   UNL     1       2.935   7.317  18.217  0.00  0.00    +0.000 A 
ATOM      8  C   UNL     1       3.236   5.968  18.405  0.00  0.00    +0.000 A 
ATOM      9  C   UNL     1       4.501   5.749  17.740  0.00  0.00    +0.000 A 
ENDROOT
BRANCH   7  10
ATOM     10  C   UNL     1       1.909   8.252  18.685  0.00  0.00    +0.000 A 
ATOM     11  C   UNL     1       1.246   9.100  17.785  0.00  0.00    +0.000 A 
ATOM     12  C   UNL     1       0.277  10.005  18.233  0.00  0.00    +0.000 A 
ATOM     13  C   UNL     1      -0.046  10.069  19.589  0.00  0.00    +0.000 A 
ATOM     14  C   UNL     1       0.606   9.239  20.496  0.00  0.00    +0.000 A 
ATOM     15  C   UNL     1       1.584   8.344  20.046  0.00  0.00    +0.000 A 
ENDBRANCH   7  10
BRANCH   8  16
ATOM     16  C   UNL     1       2.424   5.068  19.224  0.00  0.00    +0.000 A 
ATOM     17  C   UNL     1       2.604   4.978  20.613  0.00  0.00    +0.000 A 
ATOM     18  C   UNL     1       1.883   4.049  21.370  0.00  0.00    +0.000 A 
ATOM     19  C   UNL     1       0.919   3.253  20.760  0.00  0.00    +0.000 A 
ATOM     20  C   UNL     1       0.704   3.354  19.389  0.00  0.00    +0.000 A 
ATOM     21  C   UNL     1       1.481   4.225  18.622  0.00  0.00    +0.000 A 
ENDBRANCH   8  16
BRANCH   1  22
ATOM     22  N   UNL     1       5.214   3.375  17.883  0.00  0.00    +0.000 N 
ATOM     23  H   UNL     1       4.475   2.899  17.380  0.00  0.00    +0.000 HD
BRANCH  22  24
ATOM     24  C   UNL     1       5.249   3.086  19.319  0.00  0.00    +0.000 C 
BRANCH  24  26
ATOM     25  C   UNL     1       3.642   1.354  18.378  0.00  0.00    +0.000 C 
ATOM     26  C   UNL     1       4.402   1.828  19.610  0.00  0.00    +0.000 C 
BRANCH  26  27
ATOM     27  O   UNL     1       5.242   0.756  20.064  0.00  0.00    +0.000 OA
ATOM     28  H   UNL     1       5.538   0.973  20.963  0.00  0.00    +0.000 HD
ENDBRANCH  26  27
ENDBRANCH  24  26
ENDBRANCH  22  24
ENDBRANCH   1  22
TORSDOF 6
ENDMDL
MODEL 2
REMARK VINA RESULT:      -7.8      0.795      1.618
REMARK  Name = 
REMARK  7 active torsions:
REMARK  status: ('A' for Active; 'I' for Inactive)
REMARK    1  A    between atoms: C_1  and  C_2
REMARK    2  A    between atoms: C_2  and  O_3
REMARK    3  A    between atoms: C_2  and  C_4
REMARK    4  A    between atoms: C_4  and  N_5
REMARK    5  A    between atoms: N_5  and  C_6
REMARK    6  A    between atoms: C_12  and  C_13
REMARK    7  A    between atoms: C_19  and  C_20
REMARK                            x       y       z     vdW  Elec       q    Type
REMARK                         _______ _______ _______ _____ _____    ______ ____
ROOT
ATOM      1  C   UNL     1       5.561   4.604  17.640  0.00  0.00    +0.000 A 
ATOM      2  N   UNL     1       6.721   4.894  16.999  0.00  0.00    +0.000 NA
ATOM      3  C   UNL     1       6.921   6.129  16.510  0.00  0.00    +0.000 A 
ATOM      4  N   UNL     1       6.098   7.172  16.581  0.00  0.00    +0.000 NA
ATOM      5  C   UNL     1       4.985   6.871  17.263  0.00  0.00    +0.000 A 
ATOM      6  O   UNL     1       4.027   7.800  17.498  0.00  0.00    +0.000 OA
ATOM      7  C   UNL     1       3.071   7.232  18.283  0.00  0.00    +0.000 A 
ATOM      8  C   UNL     1       3.376   5.888  18.503  0.00  0.00    +0.000 A 
ATOM      9  C   UNL     1       4.636   5.654  17.835  0.00  0.00    +0.000 A 
ENDROOT
BRANCH   7  10
ATOM     10  C   UNL     1       2.047   8.178  18.735  0.00  0.00    +0.000 A 
ATOM     11  C   UNL     1       1.670   8.237  20.085  0.00  0.00    +0.000 A 
ATOM     12  C   UNL     1       0.681   9.129  20.514  0.00  0.00    +0.000 A 
ATOM     13  C   UNL     1       0.059   9.977  19.598  0.00  0.00    +0.000 A 
ATOM     14  C   UNL     1       0.417   9.927  18.254  0.00  0.00    +0.000 A 
ATOM     15  C   UNL     1       1.398   9.025  17.826  0.00  0.00    +0.000 A 
ENDBRANCH   7  10
BRANCH   8  16
ATOM     16  C   UNL     1       2.570   5.008  19.348  0.00  0.00    +0.000 A 
ATOM     17  C   UNL     1       1.396   4.405  18.870  0.00  0.00    +0.000 A 
ATOM     18  C   UNL     1       0.589   3.638  19.716  0.00  0.00    +0.000 A 
ATOM     19  C   UNL     1       0.984   3.401  21.028  0.00  0.00    +0.000 A 
ATOM     20  C   UNL     1       2.163   3.962  21.508  0.00  0.00    +0.000 A 
ATOM     21  C   UNL     1       2.926   4.794  20.686  0.00  0.00    +0.000 A 
ENDBRANCH   8  16
BRANCH   1  22
ATOM     22  N   UNL     1       5.353   3.286  18.032  0.00  0.00    +0.000 N 
ATOM     23  H   UNL     1       6.186   2.712  18.096  0.00  0.00    +0.000 HD
BRANCH  22  24
ATOM     24  C   UNL     1       4.202   2.611  17.427  0.00  0.00    +0.000 C 
BRANCH  24  26
ATOM     25  C   UNL     1       4.258   1.594  19.756  0.00  0.00    +0.000 C 
ATOM     26  C   UNL     1       3.769   1.431  18.323  0.00  0.00    +0.000 C 
BRANCH  26  27
ATOM     27  O   UNL     1       2.338   1.321  18.344  0.00  0.00    +0.000 OA
ATOM     28  H   UNL     1       2.104   0.636  18.991  0.00  0.00    +0.000 HD
ENDBRANCH  26  27
ENDBRANCH  24  26
ENDBRANCH  22  24
ENDBRANCH   1  22
TORSDOF 6
ENDMDL
MODEL 3
REMARK VINA RESULT:      -7.4      2.458      5.342
REMARK  Name = 
REMARK  7 active torsions:
REMARK  status: ('A' for Active; 'I' for Inactive)
REMARK    1  A    between atoms: C_1  and  C_2
REMARK    2  A    between atoms: C_2  and  O_3
REMARK    3  A    between atoms: C_2  and  C_4
REMARK    4  A    between atoms: C_4  and  N_5
REMARK    5  A    between atoms: N_5  and  C_6
REMARK    6  A    between atoms: C_12  and  C_13
REMARK    7  A    between atoms: C_19  and  C_20
REMARK                            x       y       z     vdW  Elec       q    Type
REMARK                         _______ _______ _______ _____ _____    ______ ____
ROOT
ATOM      1  C   UNL     1       2.311   6.592  19.660  0.00  0.00    +0.000 A 
ATOM      2  N   UNL     1       1.727   7.814  19.746  0.00  0.00    +0.000 NA
ATOM      3  C   UNL     1       2.050   8.771  18.861  0.00  0.00    +0.000 A 
ATOM      4  N   UNL     1       2.905   8.680  17.845  0.00  0.00    +0.000 NA
ATOM      5  C   UNL     1       3.427   7.450  17.754  0.00  0.00    +0.000 A 
ATOM      6  O   UNL     1       4.289   7.119  16.762  0.00  0.00    +0.000 OA
ATOM      7  C   UNL     1       4.574   5.793  16.875  0.00  0.00    +0.000 A 
ATOM      8  C   UNL     1       3.946   5.268  18.004  0.00  0.00    +0.000 A 
ATOM      9  C   UNL     1       3.189   6.357  18.578  0.00  0.00    +0.000 A 
ENDROOT
BRANCH   7  10
ATOM     10  C   UNL     1       5.383   5.272  15.769  0.00  0.00    +0.000 A 
ATOM     11  C   UNL     1       4.801   4.491  14.760  0.00  0.00    +0.000 A 
ATOM     12  C   UNL     1       5.576   3.979  13.712  0.00  0.00    +0.000 A 
ATOM     13  C   UNL     1       6.943   4.251  13.658  0.00  0.00    +0.000 A 
ATOM     14  C   UNL     1       7.537   5.020  14.653  0.00  0.00    +0.000 A 
ATOM     15  C   UNL     1       6.762   5.518  15.707  0.00  0.00    +0.000 A 
ENDBRANCH   7  10
BRANCH   8  16
ATOM     16  C   UNL     1       4.014   3.856  18.380  0.00  0.00    +0.000 A 
ATOM     17  C   UNL     1       3.388   2.862  17.611  0.00  0.00    +0.000 A 
ATOM     18  C   UNL     1       3.386   1.527  18.030  0.00  0.00    +0.000 A 
ATOM     19  C   UNL     1       4.074   1.159  19.182  0.00  0.00    +0.000 A 
ATOM     20  C   UNL     1       4.729   2.127  19.937  0.00  0.00    +0.000 A 
ATOM     21  C   UNL     1       4.662   3.470  19.560  0.00  0.00    +0.000 A 
ENDBRANCH   8  16
BRANCH   1  22
ATOM     22  N   UNL     1       2.027   5.670  20.661  0.00  0.00    +0.000 N 
ATOM     23  H   UNL     1       2.818   5.137  21.003  0.00  0.00    +0.000 HD
BRANCH  22  24
ATOM     24  C   UNL     1       0.805   4.882  20.479  0.00  0.00    +0.000 C 
BRANCH  24  26
ATOM     25  C   UNL     1       1.525   2.753  21.666  0.00  0.00    +0.000 C 
ATOM     26  C   UNL     1       1.173   3.390  20.328  0.00  0.00    +0.000 C 
BRANCH  26  27
ATOM     27  O   UNL     1       0.078   2.662  19.753  0.00  0.00    +0.000 OA
ATOM     28  H   UNL     1       0.104   1.759  20.110  0.00  0.00    +0.000 HD
ENDBRANCH  26  27
ENDBRANCH  24  26
ENDBRANCH  22  24
ENDBRANCH   1  22
TORSDOF 6
ENDMDL
MODEL 4
REMARK VINA RESULT:      -7.2      2.960      6.163
REMARK  Name = 
REMARK  7 active torsions:
REMARK  status: ('A' for Active; 'I' for Inactive)
REMARK    1  A    between atoms: C_1  and  C_2
REMARK    2  A    between atoms: C_2  and  O_3
REMARK    3  A    between atoms: C_2  and  C_4
REMARK    4  A    between atoms: C_4  and  N_5
REMARK    5  A    between atoms: N_5  and  C_6
REMARK    6  A    between atoms: C_12  and  C_13
REMARK    7  A    between atoms: C_19  and  C_20
REMARK                            x       y       z     vdW  Elec       q    Type
REMARK                         _______ _______ _______ _____ _____    ______ ____
ROOT
ATOM      1  C   UNL     1       1.036   8.697  19.964  0.00  0.00    +0.000 A 
ATOM      2  N   UNL     1       0.771   9.989  19.647  0.00  0.00    +0.000 NA
ATOM      3  C   UNL     1       1.431  10.576  18.635  0.00  0.00    +0.000 A 
ATOM      4  N   UNL     1       2.354  10.032  17.845  0.00  0.00    +0.000 NA
ATOM      5  C   UNL     1       2.557   8.743  18.148  0.00  0.00    +0.000 A 
ATOM      6  O   UNL     1       3.423   7.979  17.439  0.00  0.00    +0.000 OA
ATOM      7  C   UNL     1       3.350   6.705  17.915  0.00  0.00    +0.000 A 
ATOM      8  C   UNL     1       2.476   6.655  19.001  0.00  0.00    +0.000 A 
ATOM      9  C   UNL     1       1.952   7.994  19.150  0.00  0.00    +0.000 A 
ENDROOT
BRANCH   7  10
ATOM     10  C   UNL     1       4.131   5.743  17.133  0.00  0.00    +0.000 A 
ATOM     11  C   UNL     1       4.053   4.368  17.402  0.00  0.00    +0.000 A 
ATOM     12  C   UNL     1       4.811   3.450  16.667  0.00  0.00    +0.000 A 
ATOM     13  C   UNL     1       5.654   3.896  15.648  0.00  0.00    +0.000 A 
ATOM     14  C   UNL     1       5.747   5.256  15.372  0.00  0.00    +0.000 A 
ATOM     15  C   UNL     1       4.997   6.173  16.119  0.00  0.00    +0.000 A 
ENDBRANCH   7  10
BRANCH   8  16
ATOM     16  C   UNL     1       2.140   5.419  19.708  0.00  0.00    +0.000 A 
ATOM     17  C   UNL     1       2.674   5.132  20.974  0.00  0.00    +0.000 A 
ATOM     18  C   UNL     1       2.415   3.907  21.599  0.00  0.00    +0.000 A 
ATOM     19  C   UNL     1       1.560   2.988  21.001  0.00  0.00    +0.000 A 
ATOM     20  C   UNL     1       0.995   3.273  19.761  0.00  0.00    +0.000 A 
ATOM     21  C   UNL     1       1.318   4.461  19.103  0.00  0.00    +0.000 A 
ENDBRANCH   8  16
BRANCH   1  22
ATOM     22  N   UNL     1       0.408   8.167  21.086  0.00  0.00    +0.000 N 
ATOM     23  H   UNL     1       0.221   7.171  21.053  0.00  0.00    +0.000 HD
BRANCH  22  24
ATOM     24  C   UNL     1      -0.683   8.967  21.647  0.00  0.00    +0.000 C 
BRANCH  24  26
ATOM     25  C   UNL     1      -1.002  11.200  22.819  0.00  0.00    +0.000 C 
ATOM     26  C   UNL     1      -0.110   9.975  22.666  0.00  0.00    +0.000 C 
BRANCH  26  27
ATOM     27  O   UNL     1       0.033   9.356  23.953  0.00  0.00    +0.000 OA
ATOM     28  H   UNL     1      -0.004  10.057  24.624  0.00  0.00    +0.000 HD
ENDBRANCH  26  27
ENDBRANCH  24  26
ENDBRANCH  22  24
ENDBRANCH   1  22
TORSDOF 6
ENDMDL
MODEL 5
REMARK VINA RESULT:      -7.1      2.981      6.168
REMARK  Name = 
REMARK  7 active torsions:
REMARK  status: ('A' for Active; 'I' for Inactive)
REMARK    1  A    between atoms: C_1  and  C_2
REMARK    2  A    between atoms: C_2  and  O_3
REMARK    3  A    between atoms: C_2  and  C_4
REMARK    4  A    between atoms: C_4  and  N_5
REMARK    5  A    between atoms: N_5  and  C_6
REMARK    6  A    between atoms: C_12  and  C_13
REMARK    7  A    between atoms: C_19  and  C_20
REMARK                            x       y       z     vdW  Elec       q    Type
REMARK                         _______ _______ _______ _____ _____    ______ ____
ROOT
ATOM      1  C   UNL     1       1.057   8.679  19.975  0.00  0.00    +0.000 A 
ATOM      2  N   UNL     1       0.775   9.971  19.673  0.00  0.00    +0.000 NA
ATOM      3  C   UNL     1       1.419  10.574  18.661  0.00  0.00    +0.000 A 
ATOM      4  N   UNL     1       2.341  10.047  17.857  0.00  0.00    +0.000 NA
ATOM      5  C   UNL     1       2.560   8.758  18.145  0.00  0.00    +0.000 A 
ATOM      6  O   UNL     1       3.428   8.010  17.421  0.00  0.00    +0.000 OA
ATOM      7  C   UNL     1       3.373   6.732  17.886  0.00  0.00    +0.000 A 
ATOM      8  C   UNL     1       2.510   6.662  18.979  0.00  0.00    +0.000 A 
ATOM      9  C   UNL     1       1.973   7.994  19.146  0.00  0.00    +0.000 A 
ENDROOT
BRANCH   7  10
ATOM     10  C   UNL     1       4.158   5.785  17.089  0.00  0.00    +0.000 A 
ATOM     11  C   UNL     1       5.020   6.240  16.079  0.00  0.00    +0.000 A 
ATOM     12  C   UNL     1       5.758   5.336  15.306  0.00  0.00    +0.000 A 
ATOM     13  C   UNL     1       5.647   3.965  15.538  0.00  0.00    +0.000 A 
ATOM     14  C   UNL     1       4.793   3.497  16.532  0.00  0.00    +0.000 A 
ATOM     15  C   UNL     1       4.046   4.403  17.294  0.00  0.00    +0.000 A 
ENDBRANCH   7  10
BRANCH   8  16
ATOM     16  C   UNL     1       2.194   5.416  19.678  0.00  0.00    +0.000 A 
ATOM     17  C   UNL     1       1.340   4.456  19.114  0.00  0.00    +0.000 A 
ATOM     18  C   UNL     1       0.976   3.311  19.831  0.00  0.00    +0.000 A 
ATOM     19  C   UNL     1       1.523   3.075  21.088  0.00  0.00    +0.000 A 
ATOM     20  C   UNL     1       2.399   4.000  21.647  0.00  0.00    +0.000 A 
ATOM     21  C   UNL     1       2.698   5.181  20.964  0.00  0.00    +0.000 A 
ENDBRANCH   8  16
BRANCH   1  22
ATOM     22  N   UNL     1       0.445   8.131  21.098  0.00  0.00    +0.000 N 
ATOM     23  H   UNL     1       0.274   7.133  21.060  0.00  0.00    +0.000 HD
BRANCH  22  24
ATOM     24  C   UNL     1      -0.655   8.910  21.671  0.00  0.00    +0.000 C 
BRANCH  24  26
ATOM     25  C   UNL     1      -1.157  11.032  22.978  0.00  0.00    +0.000 C 
ATOM     26  C   UNL     1      -0.080  10.048  22.542  0.00  0.00    +0.000 C 
BRANCH  26  27
ATOM     27  O   UNL     1       0.546   9.510  23.716  0.00  0.00    +0.000 OA
ATOM     28  H   UNL     1       0.036   9.811  24.486  0.00  0.00    +0.000 HD
ENDBRANCH  26  27
ENDBRANCH  24  26
ENDBRANCH  22  24
ENDBRANCH   1  22
TORSDOF 6
ENDMDL
MODEL 6
REMARK VINA RESULT:      -6.8      2.375      5.233
REMARK  Name = 
REMARK  7 active torsions:
REMARK  status: ('A' for Active; 'I' for Inactive)
REMARK    1  A    between atoms: C_1  and  C_2
REMARK    2  A    between atoms: C_2  and  O_3
REMARK    3  A    between atoms: C_2  and  C_4
REMARK    4  A    between atoms: C_4  and  N_5
REMARK    5  A    between atoms: N_5  and  C_6
REMARK    6  A    between atoms: C_12  and  C_13
REMARK    7  A    between atoms: C_19  and  C_20
REMARK                            x       y       z     vdW  Elec       q    Type
REMARK                         _______ _______ _______ _____ _____    ______ ____
ROOT
ATOM      1  C   UNL     1       2.308   6.608  19.696  0.00  0.00    +0.000 A 
ATOM      2  N   UNL     1       1.727   7.831  19.776  0.00  0.00    +0.000 NA
ATOM      3  C   UNL     1       2.050   8.782  18.885  0.00  0.00    +0.000 A 
ATOM      4  N   UNL     1       2.902   8.684  17.867  0.00  0.00    +0.000 NA
ATOM      5  C   UNL     1       3.421   7.452  17.782  0.00  0.00    +0.000 A 
ATOM      6  O   UNL     1       4.279   7.114  16.790  0.00  0.00    +0.000 OA
ATOM      7  C   UNL     1       4.563   5.788  16.909  0.00  0.00    +0.000 A 
ATOM      8  C   UNL     1       3.936   5.271  18.043  0.00  0.00    +0.000 A 
ATOM      9  C   UNL     1       3.183   6.365  18.613  0.00  0.00    +0.000 A 
ENDROOT
BRANCH   7  10
ATOM     10  C   UNL     1       5.368   5.260  15.805  0.00  0.00    +0.000 A 
ATOM     11  C   UNL     1       6.750   5.494  15.748  0.00  0.00    +0.000 A 
ATOM     12  C   UNL     1       7.517   5.004  14.685  0.00  0.00    +0.000 A 
ATOM     13  C   UNL     1       6.911   4.266  13.668  0.00  0.00    +0.000 A 
ATOM     14  C   UNL     1       5.541   4.029  13.706  0.00  0.00    +0.000 A 
ATOM     15  C   UNL     1       4.774   4.533  14.764  0.00  0.00    +0.000 A 
ENDBRANCH   7  10
BRANCH   8  16
ATOM     16  C   UNL     1       4.003   3.861  18.427  0.00  0.00    +0.000 A 
ATOM     17  C   UNL     1       4.686   3.448  19.582  0.00  0.00    +0.000 A 
ATOM     18  C   UNL     1       4.817   2.089  19.888  0.00  0.00    +0.000 A 
ATOM     19  C   UNL     1       4.203   1.132  19.087  0.00  0.00    +0.000 A 
ATOM     20  C   UNL     1       3.492   1.528  17.957  0.00  0.00    +0.000 A 
ATOM     21  C   UNL     1       3.430   2.879  17.609  0.00  0.00    +0.000 A 
ENDBRANCH   8  16
BRANCH   1  22
ATOM     22  N   UNL     1       2.025   5.692  20.704  0.00  0.00    +0.000 N 
ATOM     23  H   UNL     1       2.829   5.320  21.196  0.00  0.00    +0.000 HD
BRANCH  22  24
ATOM     24  C   UNL     1       0.996   4.696  20.393  0.00  0.00    +0.000 C 
BRANCH  24  26
ATOM     25  C   UNL     1       1.224   2.168  20.525  0.00  0.00    +0.000 C 
ATOM     26  C   UNL     1       1.174   3.470  21.313  0.00  0.00    +0.000 C 
BRANCH  26  27
ATOM     27  O   UNL     1       2.386   3.587  22.073  0.00  0.00    +0.000 OA
ATOM     28  H   UNL     1       2.997   4.148  21.568  0.00  0.00    +0.000 HD
ENDBRANCH  26  27
ENDBRANCH  24  26
ENDBRANCH  22  24
ENDBRANCH   1  22
TORSDOF 6
ENDMDL
MODEL 7
REMARK VINA RESULT:      -6.8      2.707      6.720
REMARK  Name = 
REMARK  7 active torsions:
REMARK  status: ('A' for Active; 'I' for Inactive)
REMARK    1  A    between atoms: C_1  and  C_2
REMARK    2  A    between atoms: C_2  and  O_3
REMARK    3  A    between atoms: C_2  and  C_4
REMARK    4  A    between atoms: C_4  and  N_5
REMARK    5  A    between atoms: N_5  and  C_6
REMARK    6  A    between atoms: C_12  and  C_13
REMARK    7  A    between atoms: C_19  and  C_20
REMARK                            x       y       z     vdW  Elec       q    Type
REMARK                         _______ _______ _______ _____ _____    ______ ____
ROOT
ATOM      1  C   UNL     1       3.182   4.337  19.165  0.00  0.00    +0.000 A 
ATOM      2  N   UNL     1       2.151   3.499  19.436  0.00  0.00    +0.000 NA
ATOM      3  C   UNL     1       1.669   2.700  18.470  0.00  0.00    +0.000 A 
ATOM      4  N   UNL     1       2.095   2.602  17.212  0.00  0.00    +0.000 NA
ATOM      5  C   UNL     1       3.145   3.402  16.988  0.00  0.00    +0.000 A 
ATOM      6  O   UNL     1       3.769   3.428  15.786  0.00  0.00    +0.000 OA
ATOM      7  C   UNL     1       4.843   4.259  15.886  0.00  0.00    +0.000 A 
ATOM      8  C   UNL     1       4.876   4.840  17.153  0.00  0.00    +0.000 A 
ATOM      9  C   UNL     1       3.761   4.273  17.878  0.00  0.00    +0.000 A 
ENDROOT
BRANCH   7  10
ATOM     10  C   UNL     1       5.693   4.262  14.692  0.00  0.00    +0.000 A 
ATOM     11  C   UNL     1       6.912   4.956  14.681  0.00  0.00    +0.000 A 
ATOM     12  C   UNL     1       7.718   4.973  13.537  0.00  0.00    +0.000 A 
ATOM     13  C   UNL     1       7.315   4.288  12.389  0.00  0.00    +0.000 A 
ATOM     14  C   UNL     1       6.107   3.599  12.382  0.00  0.00    +0.000 A 
ATOM     15  C   UNL     1       5.298   3.596  13.524  0.00  0.00    +0.000 A 
ENDBRANCH   7  10
BRANCH   8  16
ATOM     16  C   UNL     1       5.935   5.747  17.596  0.00  0.00    +0.000 A 
ATOM     17  C   UNL     1       6.025   7.061  17.112  0.00  0.00    +0.000 A 
ATOM     18  C   UNL     1       7.094   7.887  17.476  0.00  0.00    +0.000 A 
ATOM     19  C   UNL     1       8.043   7.436  18.387  0.00  0.00    +0.000 A 
ATOM     20  C   UNL     1       7.949   6.147  18.903  0.00  0.00    +0.000 A 
ATOM     21  C   UNL     1       6.927   5.296  18.477  0.00  0.00    +0.000 A 
ENDBRANCH   8  16
BRANCH   1  22
ATOM     22  N   UNL     1       3.574   5.221  20.165  0.00  0.00    +0.000 N 
ATOM     23  H   UNL     1       4.363   4.924  20.727  0.00  0.00    +0.000 HD
BRANCH  22  24
ATOM     24  C   UNL     1       2.491   5.845  20.929  0.00  0.00    +0.000 C 
BRANCH  24  26
ATOM     25  C   UNL     1       1.381   8.132  20.959  0.00  0.00    +0.000 C 
ATOM     26  C   UNL     1       1.855   6.974  20.090  0.00  0.00    +0.000 C 
BRANCH  26  27
ATOM     27  O   UNL     1       2.801   7.481  19.137  0.00  0.00    +0.000 OA
ATOM     28  H   UNL     1       3.612   7.710  19.619  0.00  0.00    +0.000 HD
ENDBRANCH  26  27
ENDBRANCH  24  26
ENDBRANCH  22  24
ENDBRANCH   1  22
TORSDOF 6
ENDMDL
MODEL 8
REMARK VINA RESULT:      -6.6      5.548      9.543
REMARK  Name = 
REMARK  7 active torsions:
REMARK  status: ('A' for Active; 'I' for Inactive)
REMARK    1  A    between atoms: C_1  and  C_2
REMARK    2  A    between atoms: C_2  and  O_3
REMARK    3  A    between atoms: C_2  and  C_4
REMARK    4  A    between atoms: C_4  and  N_5
REMARK    5  A    between atoms: N_5  and  C_6
REMARK    6  A    between atoms: C_12  and  C_13
REMARK    7  A    between atoms: C_19  and  C_20
REMARK                            x       y       z     vdW  Elec       q    Type
REMARK                         _______ _______ _______ _____ _____    ______ ____
ROOT
ATOM      1  C   UNL     1      -2.517  12.956  21.053  0.00  0.00    +0.000 A 
ATOM      2  N   UNL     1      -2.343  13.708  22.168  0.00  0.00    +0.000 NA
ATOM      3  C   UNL     1      -1.317  13.448  22.994  0.00  0.00    +0.000 A 
ATOM      4  N   UNL     1      -0.384  12.509  22.857  0.00  0.00    +0.000 NA
ATOM      5  C   UNL     1      -0.551  11.816  21.723  0.00  0.00    +0.000 A 
ATOM      6  O   UNL     1       0.313  10.839  21.358  0.00  0.00    +0.000 OA
ATOM      7  C   UNL     1      -0.058  10.383  20.131  0.00  0.00    +0.000 A 
ATOM      8  C   UNL     1      -1.228  11.023  19.722  0.00  0.00    +0.000 A 
ATOM      9  C   UNL     1      -1.548  11.968  20.768  0.00  0.00    +0.000 A 
ENDROOT
BRANCH   7  10
ATOM     10  C   UNL     1       0.885   9.421  19.553  0.00  0.00    +0.000 A 
ATOM     11  C   UNL     1       1.349   9.573  18.238  0.00  0.00    +0.000 A 
ATOM     12  C   UNL     1       2.237   8.646  17.680  0.00  0.00    +0.000 A 
ATOM     13  C   UNL     1       2.679   7.559  18.435  0.00  0.00    +0.000 A 
ATOM     14  C   UNL     1       2.225   7.391  19.740  0.00  0.00    +0.000 A 
ATOM     15  C   UNL     1       1.325   8.313  20.290  0.00  0.00    +0.000 A 
ENDBRANCH   7  10
BRANCH   8  16
ATOM     16  C   UNL     1      -1.861  10.792  18.424  0.00  0.00    +0.000 A 
ATOM     17  C   UNL     1      -1.835  11.764  17.412  0.00  0.00    +0.000 A 
ATOM     18  C   UNL     1      -2.521  11.565  16.209  0.00  0.00    +0.000 A 
ATOM     19  C   UNL     1      -3.176  10.361  15.973  0.00  0.00    +0.000 A 
ATOM     20  C   UNL     1      -3.182   9.373  16.953  0.00  0.00    +0.000 A 
ATOM     21  C   UNL     1      -2.566   9.605  18.184  0.00  0.00    +0.000 A 
ENDBRANCH   8  16
BRANCH   1  22
ATOM     22  N   UNL     1      -3.654  13.191  20.287  0.00  0.00    +0.000 N 
ATOM     23  H   UNL     1      -3.575  13.934  19.603  0.00  0.00    +0.000 HD
BRANCH  22  24
ATOM     24  C   UNL     1      -4.928  13.173  21.011  0.00  0.00    +0.000 C 
BRANCH  24  26
ATOM     25  C   UNL     1      -5.410  11.906  18.860  0.00  0.00    +0.000 C 
ATOM     26  C   UNL     1      -5.990  12.439  20.163  0.00  0.00    +0.000 C 
BRANCH  26  27
ATOM     27  O   UNL     1      -6.540  11.336  20.898  0.00  0.00    +0.000 OA
ATOM     28  H   UNL     1      -7.346  11.048  20.440  0.00  0.00    +0.000 HD
ENDBRANCH  26  27
ENDBRANCH  24  26
ENDBRANCH  22  24
ENDBRANCH   1  22
TORSDOF 6
ENDMDL
MODEL 9
REMARK VINA RESULT:      -6.6      2.731      6.688
REMARK  Name = 
REMARK  7 active torsions:
REMARK  status: ('A' for Active; 'I' for Inactive)
REMARK    1  A    between atoms: C_1  and  C_2
REMARK    2  A    between atoms: C_2  and  O_3
REMARK    3  A    between atoms: C_2  and  C_4
REMARK    4  A    between atoms: C_4  and  N_5
REMARK    5  A    between atoms: N_5  and  C_6
REMARK    6  A    between atoms: C_12  and  C_13
REMARK    7  A    between atoms: C_19  and  C_20
REMARK                            x       y       z     vdW  Elec       q    Type
REMARK                         _______ _______ _______ _____ _____    ______ ____
ROOT
ATOM      1  C   UNL     1       3.253   4.360  19.095  0.00  0.00    +0.000 A 
ATOM      2  N   UNL     1       2.212   3.536  19.373  0.00  0.00    +0.000 NA
ATOM      3  C   UNL     1       1.707   2.751  18.408  0.00  0.00    +0.000 A 
ATOM      4  N   UNL     1       2.118   2.653  17.145  0.00  0.00    +0.000 NA
ATOM      5  C   UNL     1       3.178   3.438  16.914  0.00  0.00    +0.000 A 
ATOM      6  O   UNL     1       3.790   3.461  15.705  0.00  0.00    +0.000 OA
ATOM      7  C   UNL     1       4.878   4.274  15.798  0.00  0.00    +0.000 A 
ATOM      8  C   UNL     1       4.933   4.848  17.068  0.00  0.00    +0.000 A 
ATOM      9  C   UNL     1       3.818   4.294  17.802  0.00  0.00    +0.000 A 
ENDROOT
BRANCH   7  10
ATOM     10  C   UNL     1       5.715   4.270  14.595  0.00  0.00    +0.000 A 
ATOM     11  C   UNL     1       5.331   3.548  13.456  0.00  0.00    +0.000 A 
ATOM     12  C   UNL     1       6.137   3.530  12.312  0.00  0.00    +0.000 A 
ATOM     13  C   UNL     1       7.337   4.241  12.293  0.00  0.00    +0.000 A 
ATOM     14  C   UNL     1       7.736   4.958  13.416  0.00  0.00    +0.000 A 
ATOM     15  C   UNL     1       6.933   4.963  14.563  0.00  0.00    +0.000 A 
ENDBRANCH   7  10
BRANCH   8  16
ATOM     16  C   UNL     1       6.012   5.734  17.505  0.00  0.00    +0.000 A 
ATOM     17  C   UNL     1       6.999   5.300  18.403  0.00  0.00    +0.000 A 
ATOM     18  C   UNL     1       7.971   6.185  18.881  0.00  0.00    +0.000 A 
ATOM     19  C   UNL     1       8.016   7.492  18.408  0.00  0.00    +0.000 A 
ATOM     20  C   UNL     1       7.065   7.928  17.490  0.00  0.00    +0.000 A 
ATOM     21  C   UNL     1       6.047   7.067  17.076  0.00  0.00    +0.000 A 
ENDBRANCH   8  16
BRANCH   1  22
ATOM     22  N   UNL     1       3.670   5.232  20.095  0.00  0.00    +0.000 N 
ATOM     23  H   UNL     1       4.464   4.922  20.644  0.00  0.00    +0.000 HD
BRANCH  22  24
ATOM     24  C   UNL     1       2.606   5.863  20.880  0.00  0.00    +0.000 C 
BRANCH  24  26
ATOM     25  C   UNL     1       1.425   8.114  20.889  0.00  0.00    +0.000 C 
ATOM     26  C   UNL     1       1.923   6.958  20.032  0.00  0.00    +0.000 C 
BRANCH  26  27
ATOM     27  O   UNL     1       2.838   7.477  19.057  0.00  0.00    +0.000 OA
ATOM     28  H   UNL     1       3.736   7.385  19.416  0.00  0.00    +0.000 HD
ENDBRANCH  26  27
ENDBRANCH  24  26
ENDBRANCH  22  24
ENDBRANCH   1  22
TORSDOF 6
ENDMDL
