MODEL 1
REMARK VINA RESULT:      -7.7      0.000      0.000
REMARK  Name = 
REMARK  6 active torsions:
REMARK  status: ('A' for Active; 'I' for Inactive)
REMARK    1  A    between atoms: C_1  and  N_2
REMARK    2  A    between atoms: N_2  and  C_3
REMARK    3  A    between atoms: N_2  and  C_4
REMARK    4  A    between atoms: C_7  and  C_8
REMARK    5  A    between atoms: C_8  and  C_9
REMARK    6  A    between atoms: C_14  and  O_15
REMARK                            x       y       z     vdW  Elec       q    Type
REMARK                         _______ _______ _______ _____ _____    ______ ____
ROOT
ATOM      1  C   UNL     1       3.837   4.389  19.221  0.00  0.00    +0.000 C 
ATOM      2  C   UNL     1       3.070   4.206  17.891  0.00  0.00    +0.000 C 
ATOM      3  C   UNL     1       3.779   3.198  17.021  0.00  0.00    +0.000 C 
ATOM      4  C   UNL     1       5.032   3.875  16.561  0.00  0.00    +0.000 A 
ATOM      5  C   UNL     1       5.374   3.852  15.201  0.00  0.00    +0.000 A 
ATOM      6  C   UNL     1       6.508   4.519  14.769  0.00  0.00    +0.000 A 
ATOM      7  C   UNL     1       7.344   5.158  15.685  0.00  0.00    +0.000 A 
ATOM      8  C   UNL     1       7.002   5.186  17.051  0.00  0.00    +0.000 A 
ATOM      9  C   UNL     1       5.815   4.589  17.490  0.00  0.00    +0.000 A 
ATOM     10  C   UNL     1       5.316   4.768  18.915  0.00  0.00    +0.000 C 
ATOM     11  O   UNL     1       6.094   5.129  19.783  0.00  0.00    +0.000 OA
ENDROOT
BRANCH   6  12
ATOM     12  O   UNL     1       6.809   4.580  13.440  0.00  0.00    +0.000 OA
ATOM     13  H   UNL     1       6.234   5.227  13.010  0.00  0.00    +0.000 HD
ENDBRANCH   6  12
BRANCH   1  14
ATOM     14  C   UNL     1       2.968   5.388  20.015  0.00  0.00    +0.000 C 
BRANCH  14  18
ATOM     15  C   UNL     1       1.490   9.339  18.844  0.00  0.00    +0.000 A 
ATOM     16  C   UNL     1       1.252   8.771  20.099  0.00  0.00    +0.000 A 
ATOM     17  C   UNL     1       1.722   7.493  20.430  0.00  0.00    +0.000 A 
ATOM     18  C   UNL     1       2.467   6.721  19.523  0.00  0.00    +0.000 A 
ATOM     19  C   UNL     1       2.792   7.299  18.305  0.00  0.00    +0.000 A 
ATOM     20  C   UNL     1       2.310   8.586  17.980  0.00  0.00    +0.000 A 
BRANCH  15  22
ATOM     21  C   UNL     1       1.854  11.765  18.514  0.00  0.00    +0.000 C 
ATOM     22  N   UNL     1       0.977  10.595  18.477  0.00  0.00    +0.000 N 
ATOM     23  C   UNL     1      -0.438  10.843  18.757  0.00  0.00    +0.000 C 
ENDBRANCH  15  22
ENDBRANCH  14  18
ENDBRANCH   1  14
TORSDOF 4
ENDMDL
MODEL 2
REMARK VINA RESULT:      -7.3      0.324      1.064
REMARK  Name = 
REMARK  6 active torsions:
REMARK  status: ('A' for Active; 'I' for Inactive)
REMARK    1  A    between atoms: C_1  and  N_2
REMARK    2  A    between atoms: N_2  and  C_3
REMARK    3  A    between atoms: N_2  and  C_4
REMARK    4  A    between atoms: C_7  and  C_8
REMARK    5  A    between atoms: C_8  and  C_9
REMARK    6  A    between atoms: C_14  and  O_15
REMARK                            x       y       z     vdW  Elec       q    Type
REMARK                         _______ _______ _______ _____ _____    ______ ____
ROOT
ATOM      1  C   UNL     1       3.679   4.398  19.180  0.00  0.00    +0.000 C 
ATOM      2  C   UNL     1       2.987   4.422  17.798  0.00  0.00    +0.000 C 
ATOM      3  C   UNL     1       3.699   3.493  16.847  0.00  0.00    +0.000 C 
ATOM      4  C   UNL     1       5.008   4.153  16.546  0.00  0.00    +0.000 A 
ATOM      5  C   UNL     1       5.431   4.279  15.215  0.00  0.00    +0.000 A 
ATOM      6  C   UNL     1       6.620   4.932  14.933  0.00  0.00    +0.000 A 
ATOM      7  C   UNL     1       7.427   5.407  15.967  0.00  0.00    +0.000 A 
ATOM      8  C   UNL     1       7.004   5.284  17.305  0.00  0.00    +0.000 A 
ATOM      9  C   UNL     1       5.766   4.703  17.599  0.00  0.00    +0.000 A 
ATOM     10  C   UNL     1       5.190   4.731  19.005  0.00  0.00    +0.000 C 
ATOM     11  O   UNL     1       5.930   4.939  19.954  0.00  0.00    +0.000 OA
ENDROOT
BRANCH   6  12
ATOM     12  O   UNL     1       7.003   5.140  13.641  0.00  0.00    +0.000 OA
ATOM     13  H   UNL     1       6.220   5.203  13.079  0.00  0.00    +0.000 HD
ENDBRANCH   6  12
BRANCH   1  14
ATOM     14  C   UNL     1       2.810   5.337  20.045  0.00  0.00    +0.000 C 
BRANCH  14  18
ATOM     15  C   UNL     1       1.599   9.342  18.756  0.00  0.00    +0.000 A 
ATOM     16  C   UNL     1       2.277   8.441  17.929  0.00  0.00    +0.000 A 
ATOM     17  C   UNL     1       2.668   7.175  18.385  0.00  0.00    +0.000 A 
ATOM     18  C   UNL     1       2.391   6.740  19.692  0.00  0.00    +0.000 A 
ATOM     19  C   UNL     1       1.642   7.581  20.502  0.00  0.00    +0.000 A 
ATOM     20  C   UNL     1       1.255   8.856  20.034  0.00  0.00    +0.000 A 
BRANCH  15  22
ATOM     21  C   UNL     1       2.302  11.635  18.145  0.00  0.00    +0.000 C 
ATOM     22  N   UNL     1       1.250  10.636  18.334  0.00  0.00    +0.000 N 
ATOM     23  C   UNL     1      -0.053  11.147  18.761  0.00  0.00    +0.000 C 
ENDBRANCH  15  22
ENDBRANCH  14  18
ENDBRANCH   1  14
TORSDOF 4
ENDMDL
MODEL 3
REMARK VINA RESULT:      -7.3      3.618      7.075
REMARK  Name = 
REMARK  6 active torsions:
REMARK  status: ('A' for Active; 'I' for Inactive)
REMARK    1  A    between atoms: C_1  and  N_2
REMARK    2  A    between atoms: N_2  and  C_3
REMARK    3  A    between atoms: N_2  and  C_4
REMARK    4  A    between atoms: C_7  and  C_8
REMARK    5  A    between atoms: C_8  and  C_9
REMARK    6  A    between atoms: C_14  and  O_15
REMARK                            x       y       z     vdW  Elec       q    Type
REMARK                         _______ _______ _______ _____ _____    ______ ____
ROOT
ATOM      1  C   UNL     1       6.043   6.084  17.519  0.00  0.00    +0.000 C 
ATOM      2  C   UNL     1       4.682   6.369  16.843  0.00  0.00    +0.000 C 
ATOM      3  C   UNL     1       3.647   6.704  17.887  0.00  0.00    +0.000 C 
ATOM      4  C   UNL     1       3.369   5.420  18.604  0.00  0.00    +0.000 A 
ATOM      5  C   UNL     1       2.043   5.012  18.808  0.00  0.00    +0.000 A 
ATOM      6  C   UNL     1       1.787   3.801  19.429  0.00  0.00    +0.000 A 
ATOM      7  C   UNL     1       2.836   3.017  19.907  0.00  0.00    +0.000 A 
ATOM      8  C   UNL     1       4.170   3.422  19.702  0.00  0.00    +0.000 A 
ATOM      9  C   UNL     1       4.445   4.601  19.001  0.00  0.00    +0.000 A 
ATOM     10  C   UNL     1       5.861   4.968  18.589  0.00  0.00    +0.000 C 
ATOM     11  O   UNL     1       6.807   4.439  19.152  0.00  0.00    +0.000 OA
ENDROOT
BRANCH   6  12
ATOM     12  O   UNL     1       0.507   3.348  19.557  0.00  0.00    +0.000 OA
ATOM     13  H   UNL     1       0.507   2.514  20.044  0.00  0.00    +0.000 HD
ENDBRANCH   6  12
BRANCH   1  14
ATOM     14  C   UNL     1       6.997   5.822  16.333  0.00  0.00    +0.000 C 
BRANCH  14  18
ATOM     15  C   UNL     1       5.779   3.613  12.754  0.00  0.00    +0.000 A 
ATOM     16  C   UNL     1       5.013   3.665  13.923  0.00  0.00    +0.000 A 
ATOM     17  C   UNL     1       5.446   4.365  15.056  0.00  0.00    +0.000 A 
ATOM     18  C   UNL     1       6.668   5.059  15.076  0.00  0.00    +0.000 A 
ATOM     19  C   UNL     1       7.403   5.096  13.901  0.00  0.00    +0.000 A 
ATOM     20  C   UNL     1       6.959   4.385  12.765  0.00  0.00    +0.000 A 
BRANCH  15  22
ATOM     21  C   UNL     1       4.027   3.021  11.109  0.00  0.00    +0.000 C 
ATOM     22  N   UNL     1       5.386   2.869  11.629  0.00  0.00    +0.000 N 
ATOM     23  C   UNL     1       5.995   1.550  11.457  0.00  0.00    +0.000 C 
ENDBRANCH  15  22
ENDBRANCH  14  18
ENDBRANCH   1  14
TORSDOF 4
ENDMDL
MODEL 4
REMARK VINA RESULT:      -7.2      3.531      6.944
REMARK  Name = 
REMARK  6 active torsions:
REMARK  status: ('A' for Active; 'I' for Inactive)
REMARK    1  A    between atoms: C_1  and  N_2
REMARK    2  A    between atoms: N_2  and  C_3
REMARK    3  A    between atoms: N_2  and  C_4
REMARK    4  A    between atoms: C_7  and  C_8
REMARK    5  A    between atoms: C_8  and  C_9
REMARK    6  A    between atoms: C_14  and  O_15
REMARK                            x       y       z     vdW  Elec       q    Type
REMARK                         _______ _______ _______ _____ _____    ______ ____
ROOT
ATOM      1  C   UNL     1       5.441   6.170  18.016  0.00  0.00    +0.000 C 
ATOM      2  C   UNL     1       4.070   6.425  17.348  0.00  0.00    +0.000 C 
ATOM      3  C   UNL     1       2.984   6.463  18.395  0.00  0.00    +0.000 C 
ATOM      4  C   UNL     1       2.835   5.052  18.870  0.00  0.00    +0.000 A 
ATOM      5  C   UNL     1       1.558   4.479  18.950  0.00  0.00    +0.000 A 
ATOM      6  C   UNL     1       1.424   3.158  19.344  0.00  0.00    +0.000 A 
ATOM      7  C   UNL     1       2.543   2.416  19.721  0.00  0.00    +0.000 A 
ATOM      8  C   UNL     1       3.828   2.987  19.639  0.00  0.00    +0.000 A 
ATOM      9  C   UNL     1       3.986   4.293  19.161  0.00  0.00    +0.000 A 
ATOM     10  C   UNL     1       5.362   4.872  18.872  0.00  0.00    +0.000 C 
ATOM     11  O   UNL     1       6.348   4.354  19.372  0.00  0.00    +0.000 OA
ENDROOT
BRANCH   6  12
ATOM     12  O   UNL     1       0.198   2.559  19.345  0.00  0.00    +0.000 OA
ATOM     13  H   UNL     1      -0.437   3.124  18.886  0.00  0.00    +0.000 HD
ENDBRANCH   6  12
BRANCH   1  14
ATOM     14  C   UNL     1       6.440   6.219  16.840  0.00  0.00    +0.000 C 
BRANCH  14  18
ATOM     15  C   UNL     1       6.049   3.723  13.264  0.00  0.00    +0.000 A 
ATOM     16  C   UNL     1       5.109   3.736  14.299  0.00  0.00    +0.000 A 
ATOM     17  C   UNL     1       5.280   4.532  15.439  0.00  0.00    +0.000 A 
ATOM     18  C   UNL     1       6.398   5.367  15.599  0.00  0.00    +0.000 A 
ATOM     19  C   UNL     1       7.299   5.439  14.547  0.00  0.00    +0.000 A 
ATOM     20  C   UNL     1       7.120   4.630  13.403  0.00  0.00    +0.000 A 
BRANCH  15  22
ATOM     21  C   UNL     1       7.115   2.535  11.372  0.00  0.00    +0.000 C 
ATOM     22  N   UNL     1       5.922   2.888  12.142  0.00  0.00    +0.000 N 
ATOM     23  C   UNL     1       4.672   2.977  11.385  0.00  0.00    +0.000 C 
ENDBRANCH  15  22
ENDBRANCH  14  18
ENDBRANCH   1  14
TORSDOF 4
ENDMDL
MODEL 5
REMARK VINA RESULT:      -7.2      3.459      7.029
REMARK  Name = 
REMARK  6 active torsions:
REMARK  status: ('A' for Active; 'I' for Inactive)
REMARK    1  A    between atoms: C_1  and  N_2
REMARK    2  A    between atoms: N_2  and  C_3
REMARK    3  A    between atoms: N_2  and  C_4
REMARK    4  A    between atoms: C_7  and  C_8
REMARK    5  A    between atoms: C_8  and  C_9
REMARK    6  A    between atoms: C_14  and  O_15
REMARK                            x       y       z     vdW  Elec       q    Type
REMARK                         _______ _______ _______ _____ _____    ______ ____
ROOT
ATOM      1  C   UNL     1       5.375   6.295  18.144  0.00  0.00    +0.000 C 
ATOM      2  C   UNL     1       3.940   6.626  17.672  0.00  0.00    +0.000 C 
ATOM      3  C   UNL     1       3.006   6.677  18.856  0.00  0.00    +0.000 C 
ATOM      4  C   UNL     1       2.860   5.260  19.314  0.00  0.00    +0.000 A 
ATOM      5  C   UNL     1       1.580   4.738  19.553  0.00  0.00    +0.000 A 
ATOM      6  C   UNL     1       1.442   3.412  19.931  0.00  0.00    +0.000 A 
ATOM      7  C   UNL     1       2.568   2.615  20.136  0.00  0.00    +0.000 A 
ATOM      8  C   UNL     1       3.854   3.136  19.894  0.00  0.00    +0.000 A 
ATOM      9  C   UNL     1       4.004   4.447  19.430  0.00  0.00    +0.000 A 
ATOM     10  C   UNL     1       5.353   4.977  18.972  0.00  0.00    +0.000 C 
ATOM     11  O   UNL     1       6.374   4.406  19.322  0.00  0.00    +0.000 OA
ENDROOT
BRANCH   6  12
ATOM     12  O   UNL     1       0.202   2.864  20.083  0.00  0.00    +0.000 OA
ATOM     13  H   UNL     1       0.221   1.941  19.796  0.00  0.00    +0.000 HD
ENDBRANCH   6  12
BRANCH   1  14
ATOM     14  C   UNL     1       6.209   6.338  16.845  0.00  0.00    +0.000 C 
BRANCH  14  18
ATOM     15  C   UNL     1       6.011   3.730  13.334  0.00  0.00    +0.000 A 
ATOM     16  C   UNL     1       7.031   4.664  13.541  0.00  0.00    +0.000 A 
ATOM     17  C   UNL     1       7.048   5.498  14.667  0.00  0.00    +0.000 A 
ATOM     18  C   UNL     1       6.049   5.432  15.652  0.00  0.00    +0.000 A 
ATOM     19  C   UNL     1       5.077   4.452  15.515  0.00  0.00    +0.000 A 
ATOM     20  C   UNL     1       5.066   3.619  14.375  0.00  0.00    +0.000 A 
BRANCH  15  22
ATOM     21  C   UNL     1       7.171   2.669  11.422  0.00  0.00    +0.000 C 
ATOM     22  N   UNL     1       5.948   2.927  12.183  0.00  0.00    +0.000 N 
ATOM     23  C   UNL     1       4.707   2.968  11.410  0.00  0.00    +0.000 C 
ENDBRANCH  15  22
ENDBRANCH  14  18
ENDBRANCH   1  14
TORSDOF 4
ENDMDL
MODEL 6
REMARK VINA RESULT:      -7.1      4.314      8.964
REMARK  Name = 
REMARK  6 active torsions:
REMARK  status: ('A' for Active; 'I' for Inactive)
REMARK    1  A    between atoms: C_1  and  N_2
REMARK    2  A    between atoms: N_2  and  C_3
REMARK    3  A    between atoms: N_2  and  C_4
REMARK    4  A    between atoms: C_7  and  C_8
REMARK    5  A    between atoms: C_8  and  C_9
REMARK    6  A    between atoms: C_14  and  O_15
REMARK                            x       y       z     vdW  Elec       q    Type
REMARK                         _______ _______ _______ _____ _____    ______ ____
ROOT
ATOM      1  C   UNL     1       0.921   9.391  21.352  0.00  0.00    +0.000 C 
ATOM      2  C   UNL     1       0.170   9.778  20.057  0.00  0.00    +0.000 C 
ATOM      3  C   UNL     1       0.004  11.276  19.985  0.00  0.00    +0.000 C 
ATOM      4  C   UNL     1      -1.003  11.619  21.037  0.00  0.00    +0.000 A 
ATOM      5  C   UNL     1      -2.084  12.452  20.716  0.00  0.00    +0.000 A 
ATOM      6  C   UNL     1      -3.042  12.732  21.677  0.00  0.00    +0.000 A 
ATOM      7  C   UNL     1      -2.903  12.242  22.975  0.00  0.00    +0.000 A 
ATOM      8  C   UNL     1      -1.819  11.403  23.301  0.00  0.00    +0.000 A 
ATOM      9  C   UNL     1      -0.891  11.044  22.318  0.00  0.00    +0.000 A 
ATOM     10  C   UNL     1       0.173   9.989  22.579  0.00  0.00    +0.000 C 
ATOM     11  O   UNL     1       0.460   9.697  23.729  0.00  0.00    +0.000 OA
ENDROOT
BRANCH   6  12
ATOM     12  O   UNL     1      -4.145  13.467  21.358  0.00  0.00    +0.000 OA
ATOM     13  H   UNL     1      -4.672  13.619  22.154  0.00  0.00    +0.000 HD
ENDBRANCH   6  12
BRANCH   1  14
ATOM     14  C   UNL     1       1.064   7.856  21.250  0.00  0.00    +0.000 C 
BRANCH  14  18
ATOM     15  C   UNL     1       3.143   5.436  18.252  0.00  0.00    +0.000 A 
ATOM     16  C   UNL     1       2.507   4.892  19.372  0.00  0.00    +0.000 A 
ATOM     17  C   UNL     1       1.871   5.701  20.323  0.00  0.00    +0.000 A 
ATOM     18  C   UNL     1       1.828   7.100  20.195  0.00  0.00    +0.000 A 
ATOM     19  C   UNL     1       2.374   7.656  19.048  0.00  0.00    +0.000 A 
ATOM     20  C   UNL     1       3.016   6.832  18.097  0.00  0.00    +0.000 A 
BRANCH  15  22
ATOM     21  C   UNL     1       3.943   3.203  17.547  0.00  0.00    +0.000 C 
ATOM     22  N   UNL     1       3.834   4.644  17.320  0.00  0.00    +0.000 N 
ATOM     23  C   UNL     1       4.953   5.270  16.614  0.00  0.00    +0.000 C 
ENDBRANCH  15  22
ENDBRANCH  14  18
ENDBRANCH   1  14
TORSDOF 4
ENDMDL
MODEL 7
REMARK VINA RESULT:      -7.1      4.332      9.051
REMARK  Name = 
REMARK  6 active torsions:
REMARK  status: ('A' for Active; 'I' for Inactive)
REMARK    1  A    between atoms: C_1  and  N_2
REMARK    2  A    between atoms: N_2  and  C_3
REMARK    3  A    between atoms: N_2  and  C_4
REMARK    4  A    between atoms: C_7  and  C_8
REMARK    5  A    between atoms: C_8  and  C_9
REMARK    6  A    between atoms: C_14  and  O_15
REMARK                            x       y       z     vdW  Elec       q    Type
REMARK                         _______ _______ _______ _____ _____    ______ ____
ROOT
ATOM      1  C   UNL     1       0.336   8.903  21.234  0.00  0.00    +0.000 C 
ATOM      2  C   UNL     1       0.514   9.444  22.671  0.00  0.00    +0.000 C 
ATOM      3  C   UNL     1      -0.792  10.006  23.177  0.00  0.00    +0.000 C 
ATOM      4  C   UNL     1      -1.014  11.266  22.400  0.00  0.00    +0.000 A 
ATOM      5  C   UNL     1      -1.355  12.446  23.076  0.00  0.00    +0.000 A 
ATOM      6  C   UNL     1      -1.515  13.622  22.362  0.00  0.00    +0.000 A 
ATOM      7  C   UNL     1      -1.401  13.625  20.972  0.00  0.00    +0.000 A 
ATOM      8  C   UNL     1      -1.056  12.442  20.290  0.00  0.00    +0.000 A 
ATOM      9  C   UNL     1      -0.808  11.266  21.006  0.00  0.00    +0.000 A 
ATOM     10  C   UNL     1      -0.244  10.028  20.329  0.00  0.00    +0.000 C 
ATOM     11  O   UNL     1      -0.327   9.916  19.116  0.00  0.00    +0.000 OA
ENDROOT
BRANCH   6  12
ATOM     12  O   UNL     1      -1.760  14.796  23.011  0.00  0.00    +0.000 OA
ATOM     13  H   UNL     1      -2.395  14.644  23.724  0.00  0.00    +0.000 HD
ENDBRANCH   6  12
BRANCH   1  14
ATOM     14  C   UNL     1       1.722   8.316  20.887  0.00  0.00    +0.000 C 
BRANCH  14  18
ATOM     15  C   UNL     1       2.295   4.538  18.750  0.00  0.00    +0.000 A 
ATOM     16  C   UNL     1       1.727   4.621  20.025  0.00  0.00    +0.000 A 
ATOM     17  C   UNL     1       1.580   5.847  20.687  0.00  0.00    +0.000 A 
ATOM     18  C   UNL     1       1.986   7.058  20.101  0.00  0.00    +0.000 A 
ATOM     19  C   UNL     1       2.470   7.011  18.803  0.00  0.00    +0.000 A 
ATOM     20  C   UNL     1       2.616   5.770  18.145  0.00  0.00    +0.000 A 
BRANCH  15  22
ATOM     21  C   UNL     1       1.703   2.149  18.487  0.00  0.00    +0.000 C 
ATOM     22  N   UNL     1       2.501   3.312  18.097  0.00  0.00    +0.000 N 
ATOM     23  C   UNL     1       3.857   3.030  17.623  0.00  0.00    +0.000 C 
ENDBRANCH  15  22
ENDBRANCH  14  18
ENDBRANCH   1  14
TORSDOF 4
ENDMDL
MODEL 8
REMARK VINA RESULT:      -7.1      2.546      4.394
REMARK  Name = 
REMARK  6 active torsions:
REMARK  status: ('A' for Active; 'I' for Inactive)
REMARK    1  A    between atoms: C_1  and  N_2
REMARK    2  A    between atoms: N_2  and  C_3
REMARK    3  A    between atoms: N_2  and  C_4
REMARK    4  A    between atoms: C_7  and  C_8
REMARK    5  A    between atoms: C_8  and  C_9
REMARK    6  A    between atoms: C_14  and  O_15
REMARK                            x       y       z     vdW  Elec       q    Type
REMARK                         _______ _______ _______ _____ _____    ______ ____
ROOT
ATOM      1  C   UNL     1       2.791   7.733  18.625  0.00  0.00    +0.000 C 
ATOM      2  C   UNL     1       1.600   7.174  19.437  0.00  0.00    +0.000 C 
ATOM      3  C   UNL     1       2.054   6.010  20.283  0.00  0.00    +0.000 C 
ATOM      4  C   UNL     1       2.320   4.894  19.322  0.00  0.00    +0.000 A 
ATOM      5  C   UNL     1       1.787   3.622  19.572  0.00  0.00    +0.000 A 
ATOM      6  C   UNL     1       1.994   2.601  18.658  0.00  0.00    +0.000 A 
ATOM      7  C   UNL     1       2.781   2.816  17.526  0.00  0.00    +0.000 A 
ATOM      8  C   UNL     1       3.316   4.093  17.271  0.00  0.00    +0.000 A 
ATOM      9  C   UNL     1       3.044   5.154  18.141  0.00  0.00    +0.000 A 
ATOM     10  C   UNL     1       3.436   6.583  17.798  0.00  0.00    +0.000 C 
ATOM     11  O   UNL     1       4.288   6.784  16.947  0.00  0.00    +0.000 OA
ENDROOT
BRANCH   6  12
ATOM     12  O   UNL     1       1.410   1.382  18.840  0.00  0.00    +0.000 OA
ATOM     13  H   UNL     1       0.539   1.499  19.242  0.00  0.00    +0.000 HD
ENDBRANCH   6  12
BRANCH   1  14
ATOM     14  C   UNL     1       2.188   8.938  17.869  0.00  0.00    +0.000 C 
BRANCH  14  18
ATOM     15  C   UNL     1      -1.267  11.349  19.061  0.00  0.00    +0.000 A 
ATOM     16  C   UNL     1       0.015  11.529  19.589  0.00  0.00    +0.000 A 
ATOM     17  C   UNL     1       1.092  10.723  19.199  0.00  0.00    +0.000 A 
ATOM     18  C   UNL     1       0.944   9.697  18.250  0.00  0.00    +0.000 A 
ATOM     19  C   UNL     1      -0.296   9.557  17.646  0.00  0.00    +0.000 A 
ATOM     20  C   UNL     1      -1.376  10.373  18.049  0.00  0.00    +0.000 A 
BRANCH  15  22
ATOM     21  C   UNL     1      -2.435  12.565  20.872  0.00  0.00    +0.000 C 
ATOM     22  N   UNL     1      -2.369  12.111  19.483  0.00  0.00    +0.000 N 
ATOM     23  C   UNL     1      -3.652  11.842  18.833  0.00  0.00    +0.000 C 
ENDBRANCH  15  22
ENDBRANCH  14  18
ENDBRANCH   1  14
TORSDOF 4
ENDMDL
MODEL 9
REMARK VINA RESULT:      -7.0      4.251      9.016
REMARK  Name = 
REMARK  6 active torsions:
REMARK  status: ('A' for Active; 'I' for Inactive)
REMARK    1  A    between atoms: C_1  and  N_2
REMARK    2  A    between atoms: N_2  and  C_3
REMARK    3  A    between atoms: N_2  and  C_4
REMARK    4  A    between atoms: C_7  and  C_8
REMARK    5  A    between atoms: C_8  and  C_9
REMARK    6  A    between atoms: C_14  and  O_15
REMARK                            x       y       z     vdW  Elec       q    Type
REMARK                         _______ _______ _______ _____ _____    ______ ____
ROOT
ATOM      1  C   UNL     1       0.358   8.822  21.140  0.00  0.00    +0.000 C 
ATOM      2  C   UNL     1       0.525   9.322  22.594  0.00  0.00    +0.000 C 
ATOM      3  C   UNL     1      -0.779   9.890  23.096  0.00  0.00    +0.000 C 
ATOM      4  C   UNL     1      -0.972  11.173  22.351  0.00  0.00    +0.000 A 
ATOM      5  C   UNL     1      -1.304  12.340  23.054  0.00  0.00    +0.000 A 
ATOM      6  C   UNL     1      -1.436  13.538  22.370  0.00  0.00    +0.000 A 
ATOM      7  C   UNL     1      -1.302  13.576  20.983  0.00  0.00    +0.000 A 
ATOM      8  C   UNL     1      -0.966  12.407  20.273  0.00  0.00    +0.000 A 
ATOM      9  C   UNL     1      -0.746  11.209  20.961  0.00  0.00    +0.000 A 
ATOM     10  C   UNL     1      -0.193   9.980  20.257  0.00  0.00    +0.000 C 
ATOM     11  O   UNL     1      -0.260   9.902  19.041  0.00  0.00    +0.000 OA
ENDROOT
BRANCH   6  12
ATOM     12  O   UNL     1      -1.672  14.697  23.048  0.00  0.00    +0.000 OA
ATOM     13  H   UNL     1      -1.413  14.589  23.973  0.00  0.00    +0.000 HD
ENDBRANCH   6  12
BRANCH   1  14
ATOM     14  C   UNL     1       1.739   8.223  20.796  0.00  0.00    +0.000 C 
BRANCH  14  18
ATOM     15  C   UNL     1       2.682   4.682  18.399  0.00  0.00    +0.000 A 
ATOM     16  C   UNL     1       3.024   5.983  18.016  0.00  0.00    +0.000 A 
ATOM     17  C   UNL     1       2.685   7.094  18.799  0.00  0.00    +0.000 A 
ATOM     18  C   UNL     1       1.994   6.960  20.015  0.00  0.00    +0.000 A 
ATOM     19  C   UNL     1       1.722   5.675  20.460  0.00  0.00    +0.000 A 
ATOM     20  C   UNL     1       2.065   4.561  19.661  0.00  0.00    +0.000 A 
BRANCH  15  22
ATOM     21  C   UNL     1       2.458   2.250  17.999  0.00  0.00    +0.000 C 
ATOM     22  N   UNL     1       2.963   3.563  17.598  0.00  0.00    +0.000 N 
ATOM     23  C   UNL     1       4.233   3.568  16.870  0.00  0.00    +0.000 C 
ENDBRANCH  15  22
ENDBRANCH  14  18
ENDBRANCH   1  14
TORSDOF 4
ENDMDL
