MODEL 1
REMARK VINA RESULT:      -7.5      0.000      0.000
REMARK  Name = 
REMARK  6 active torsions:
REMARK  status: ('A' for Active; 'I' for Inactive)
REMARK    1  A    between atoms: C_1  and  O_2
REMARK    2  A    between atoms: O_2  and  C_3
REMARK    3  A    between atoms: C_3  and  C_5
REMARK    4  A    between atoms: C_5  and  N_6
REMARK    5  A    between atoms: N_13  and  C_14
REMARK    6  A    between atoms: C_14  and  C_15
REMARK                            x       y       z     vdW  Elec       q    Type
REMARK                         _______ _______ _______ _____ _____    ______ ____
ROOT
ATOM      1  N   UNL     1       6.517   4.030  13.815  0.00  0.00    +0.000 N 
ATOM      2  C   UNL     1       5.694   3.350  14.716  0.00  0.00    +0.000 A 
ATOM      3  N   UNL     1       5.494   3.672  15.963  0.00  0.00    +0.000 NA
ATOM      4  C   UNL     1       6.208   4.764  16.331  0.00  0.00    +0.000 A 
ATOM      5  C   UNL     1       7.060   5.519  15.565  0.00  0.00    +0.000 A 
ATOM      6  N   UNL     1       7.635   6.502  16.312  0.00  0.00    +0.000 NA
ATOM      7  N   UNL     1       7.177   6.372  17.557  0.00  0.00    +0.000 NA
ATOM      8  N   UNL     1       6.313   5.325  17.574  0.00  0.00    +0.000 N 
ATOM      9  C   UNL     1       7.269   5.157  14.187  0.00  0.00    +0.000 A 
ATOM     10  O   UNL     1       8.033   5.743  13.426  0.00  0.00    +0.000 OA
ENDROOT
BRANCH   1  11
ATOM     11  C   UNL     1       6.735   3.488  12.481  0.00  0.00    +0.000 C 
BRANCH  11  12
ATOM     12  C   UNL     1       5.412   2.965  11.942  0.00  0.00    +0.000 C 
ATOM     13  O   UNL     1       4.392   3.635  11.849  0.00  0.00    +0.000 OA
BRANCH  12  15
ATOM     14  C   UNL     1       6.857   1.363  11.035  0.00  0.00    +0.000 C 
ATOM     15  O   UNL     1       5.546   1.679  11.511  0.00  0.00    +0.000 OA
ENDBRANCH  12  15
ENDBRANCH  11  12
ENDBRANCH   1  11
BRANCH   8  16
ATOM     16  C   UNL     1       5.827   4.796  18.831  0.00  0.00    +0.000 C 
BRANCH  16  17
ATOM     17  C   UNL     1       4.450   4.189  18.728  0.00  0.00    +0.000 A 
ATOM     18  C   UNL     1       4.243   2.838  19.049  0.00  0.00    +0.000 A 
ATOM     19  C   UNL     1       2.951   2.307  19.075  0.00  0.00    +0.000 A 
ATOM     20  C   UNL     1       1.861   3.118  18.765  0.00  0.00    +0.000 A 
ATOM     21 CL   UNL     1       0.266   2.482  18.865  0.00  0.00    +0.000 Cl
ATOM     22  C   UNL     1       2.055   4.446  18.394  0.00  0.00    +0.000 A 
ATOM     23  C   UNL     1       3.347   4.978  18.368  0.00  0.00    +0.000 A 
ENDBRANCH  16  17
ENDBRANCH   8  16
TORSDOF 5
ENDMDL
MODEL 2
REMARK VINA RESULT:      -7.4      4.363      7.045
REMARK  Name = 
REMARK  6 active torsions:
REMARK  status: ('A' for Active; 'I' for Inactive)
REMARK    1  A    between atoms: C_1  and  O_2
REMARK    2  A    between atoms: O_2  and  C_3
REMARK    3  A    between atoms: C_3  and  C_5
REMARK    4  A    between atoms: C_5  and  N_6
REMARK    5  A    between atoms: N_13  and  C_14
REMARK    6  A    between atoms: C_14  and  C_15
REMARK                            x       y       z     vdW  Elec       q    Type
REMARK                         _______ _______ _______ _____ _____    ______ ____
ROOT
ATOM      1  N   UNL     1       2.971   2.589  18.995  0.00  0.00    +0.000 N 
ATOM      2  C   UNL     1       2.574   3.039  17.734  0.00  0.00    +0.000 A 
ATOM      3  N   UNL     1       3.303   3.725  16.901  0.00  0.00    +0.000 NA
ATOM      4  C   UNL     1       4.533   3.998  17.401  0.00  0.00    +0.000 A 
ATOM      5  C   UNL     1       5.054   3.636  18.618  0.00  0.00    +0.000 A 
ATOM      6  N   UNL     1       6.305   4.150  18.777  0.00  0.00    +0.000 NA
ATOM      7  N   UNL     1       6.586   4.856  17.683  0.00  0.00    +0.000 NA
ATOM      8  N   UNL     1       5.520   4.766  16.847  0.00  0.00    +0.000 N 
ATOM      9  C   UNL     1       4.241   2.873  19.528  0.00  0.00    +0.000 A 
ATOM     10  O   UNL     1       4.595   2.528  20.652  0.00  0.00    +0.000 OA
ENDROOT
BRANCH   1  11
ATOM     11  C   UNL     1       2.009   1.930  19.867  0.00  0.00    +0.000 C 
BRANCH  11  12
ATOM     12  C   UNL     1       1.526   2.928  20.909  0.00  0.00    +0.000 C 
ATOM     13  O   UNL     1       1.677   2.793  22.116  0.00  0.00    +0.000 OA
BRANCH  12  15
ATOM     14  C   UNL     1       1.612   5.253  20.647  0.00  0.00    +0.000 C 
ATOM     15  O   UNL     1       0.975   4.019  20.306  0.00  0.00    +0.000 OA
ENDBRANCH  12  15
ENDBRANCH  11  12
ENDBRANCH   1  11
BRANCH   8  16
ATOM     16  C   UNL     1       5.434   5.613  15.676  0.00  0.00    +0.000 C 
BRANCH  16  17
ATOM     17  C   UNL     1       5.893   4.928  14.412  0.00  0.00    +0.000 A 
ATOM     18  C   UNL     1       7.190   5.139  13.920  0.00  0.00    +0.000 A 
ATOM     19  C   UNL     1       7.658   4.410  12.823  0.00  0.00    +0.000 A 
ATOM     20  C   UNL     1       6.827   3.480  12.203  0.00  0.00    +0.000 A 
ATOM     21 CL   UNL     1       7.428   2.535  10.897  0.00  0.00    +0.000 Cl
ATOM     22  C   UNL     1       5.520   3.297  12.647  0.00  0.00    +0.000 A 
ATOM     23  C   UNL     1       5.051   4.025  13.744  0.00  0.00    +0.000 A 
ENDBRANCH  16  17
ENDBRANCH   8  16
TORSDOF 5
ENDMDL
MODEL 3
REMARK VINA RESULT:      -7.3      0.170      1.021
REMARK  Name = 
REMARK  6 active torsions:
REMARK  status: ('A' for Active; 'I' for Inactive)
REMARK    1  A    between atoms: C_1  and  O_2
REMARK    2  A    between atoms: O_2  and  C_3
REMARK    3  A    between atoms: C_3  and  C_5
REMARK    4  A    between atoms: C_5  and  N_6
REMARK    5  A    between atoms: N_13  and  C_14
REMARK    6  A    between atoms: C_14  and  C_15
REMARK                            x       y       z     vdW  Elec       q    Type
REMARK                         _______ _______ _______ _____ _____    ______ ____
ROOT
ATOM      1  N   UNL     1       6.512   4.002  13.824  0.00  0.00    +0.000 N 
ATOM      2  C   UNL     1       5.811   3.216  14.741  0.00  0.00    +0.000 A 
ATOM      3  N   UNL     1       5.638   3.485  16.004  0.00  0.00    +0.000 NA
ATOM      4  C   UNL     1       6.247   4.639  16.371  0.00  0.00    +0.000 A 
ATOM      5  C   UNL     1       6.974   5.501  15.590  0.00  0.00    +0.000 A 
ATOM      6  N   UNL     1       7.474   6.522  16.338  0.00  0.00    +0.000 NA
ATOM      7  N   UNL     1       7.093   6.315  17.598  0.00  0.00    +0.000 NA
ATOM      8  N   UNL     1       6.349   5.179  17.624  0.00  0.00    +0.000 N 
ATOM      9  C   UNL     1       7.154   5.197  14.194  0.00  0.00    +0.000 A 
ATOM     10  O   UNL     1       7.814   5.880  13.416  0.00  0.00    +0.000 OA
ENDROOT
BRANCH   1  11
ATOM     11  C   UNL     1       6.723   3.519  12.467  0.00  0.00    +0.000 C 
BRANCH  11  12
ATOM     12  C   UNL     1       5.408   2.976  11.929  0.00  0.00    +0.000 C 
ATOM     13  O   UNL     1       4.365   3.616  11.880  0.00  0.00    +0.000 OA
BRANCH  12  15
ATOM     14  C   UNL     1       6.926   1.402  11.093  0.00  0.00    +0.000 C 
ATOM     15  O   UNL     1       5.575   1.713  11.444  0.00  0.00    +0.000 OA
ENDBRANCH  12  15
ENDBRANCH  11  12
ENDBRANCH   1  11
BRANCH   8  16
ATOM     16  C   UNL     1       5.984   4.571  18.886  0.00  0.00    +0.000 C 
BRANCH  16  17
ATOM     17  C   UNL     1       4.555   4.087  18.921  0.00  0.00    +0.000 A 
ATOM     18  C   UNL     1       3.507   4.937  18.536  0.00  0.00    +0.000 A 
ATOM     19  C   UNL     1       2.200   4.453  18.448  0.00  0.00    +0.000 A 
ATOM     20  C   UNL     1       1.930   3.122  18.759  0.00  0.00    +0.000 A 
ATOM     21 CL   UNL     1       0.332   2.509  18.583  0.00  0.00    +0.000 Cl
ATOM     22  C   UNL     1       2.951   2.279  19.192  0.00  0.00    +0.000 A 
ATOM     23  C   UNL     1       4.259   2.763  19.280  0.00  0.00    +0.000 A 
ENDBRANCH  16  17
ENDBRANCH   8  16
TORSDOF 5
ENDMDL
MODEL 4
REMARK VINA RESULT:      -7.3      3.689      5.328
REMARK  Name = 
REMARK  6 active torsions:
REMARK  status: ('A' for Active; 'I' for Inactive)
REMARK    1  A    between atoms: C_1  and  O_2
REMARK    2  A    between atoms: O_2  and  C_3
REMARK    3  A    between atoms: C_3  and  C_5
REMARK    4  A    between atoms: C_5  and  N_6
REMARK    5  A    between atoms: N_13  and  C_14
REMARK    6  A    between atoms: C_14  and  C_15
REMARK                            x       y       z     vdW  Elec       q    Type
REMARK                         _______ _______ _______ _____ _____    ______ ____
ROOT
ATOM      1  N   UNL     1       5.955   4.543  17.818  0.00  0.00    +0.000 N 
ATOM      2  C   UNL     1       5.908   5.259  19.017  0.00  0.00    +0.000 A 
ATOM      3  N   UNL     1       4.847   5.461  19.746  0.00  0.00    +0.000 NA
ATOM      4  C   UNL     1       3.736   4.908  19.200  0.00  0.00    +0.000 A 
ATOM      5  C   UNL     1       3.629   4.195  18.032  0.00  0.00    +0.000 A 
ATOM      6  N   UNL     1       2.332   3.856  17.793  0.00  0.00    +0.000 NA
ATOM      7  N   UNL     1       1.601   4.362  18.785  0.00  0.00    +0.000 NA
ATOM      8  N   UNL     1       2.444   4.998  19.639  0.00  0.00    +0.000 N 
ATOM      9  C   UNL     1       4.809   3.973  17.237  0.00  0.00    +0.000 A 
ATOM     10  O   UNL     1       4.819   3.379  16.163  0.00  0.00    +0.000 OA
ENDROOT
BRANCH   1  11
ATOM     11  C   UNL     1       7.191   4.496  17.050  0.00  0.00    +0.000 C 
BRANCH  11  12
ATOM     12  C   UNL     1       7.199   5.653  16.062  0.00  0.00    +0.000 C 
ATOM     13  O   UNL     1       6.786   6.778  16.313  0.00  0.00    +0.000 OA
BRANCH  12  15
ATOM     14  C   UNL     1       6.882   4.788  13.910  0.00  0.00    +0.000 C 
ATOM     15  O   UNL     1       7.795   5.280  14.895  0.00  0.00    +0.000 OA
ENDBRANCH  12  15
ENDBRANCH  11  12
ENDBRANCH   1  11
BRANCH   8  16
ATOM     16  C   UNL     1       1.921   5.840  20.693  0.00  0.00    +0.000 C 
BRANCH  16  17
ATOM     17  C   UNL     1       1.692   7.267  20.256  0.00  0.00    +0.000 A 
ATOM     18  C   UNL     1       2.085   7.689  18.976  0.00  0.00    +0.000 A 
ATOM     19  C   UNL     1       1.761   8.971  18.525  0.00  0.00    +0.000 A 
ATOM     20  C   UNL     1       1.059   9.842  19.354  0.00  0.00    +0.000 A 
ATOM     21 CL   UNL     1       0.601  11.395  18.772  0.00  0.00    +0.000 Cl
ATOM     22  C   UNL     1       0.708   9.456  20.645  0.00  0.00    +0.000 A 
ATOM     23  C   UNL     1       1.031   8.174  21.098  0.00  0.00    +0.000 A 
ENDBRANCH  16  17
ENDBRANCH   8  16
TORSDOF 5
ENDMDL
MODEL 5
REMARK VINA RESULT:      -7.3      6.283      8.065
REMARK  Name = 
REMARK  6 active torsions:
REMARK  status: ('A' for Active; 'I' for Inactive)
REMARK    1  A    between atoms: C_1  and  O_2
REMARK    2  A    between atoms: O_2  and  C_3
REMARK    3  A    between atoms: C_3  and  C_5
REMARK    4  A    between atoms: C_5  and  N_6
REMARK    5  A    between atoms: N_13  and  C_14
REMARK    6  A    between atoms: C_14  and  C_15
REMARK                            x       y       z     vdW  Elec       q    Type
REMARK                         _______ _______ _______ _____ _____    ______ ____
ROOT
ATOM      1  N   UNL     1       3.011   6.004  18.867  0.00  0.00    +0.000 N 
ATOM      2  C   UNL     1       3.103   7.034  17.928  0.00  0.00    +0.000 A 
ATOM      3  N   UNL     1       2.599   8.229  18.051  0.00  0.00    +0.000 NA
ATOM      4  C   UNL     1       1.924   8.384  19.216  0.00  0.00    +0.000 A 
ATOM      5  C   UNL     1       1.740   7.465  20.219  0.00  0.00    +0.000 A 
ATOM      6  N   UNL     1       0.954   7.980  21.204  0.00  0.00    +0.000 NA
ATOM      7  N   UNL     1       0.614   9.214  20.836  0.00  0.00    +0.000 NA
ATOM      8  N   UNL     1       1.199   9.465  19.636  0.00  0.00    +0.000 N 
ATOM      9  C   UNL     1       2.307   6.149  20.075  0.00  0.00    +0.000 A 
ATOM     10  O   UNL     1       2.173   5.244  20.894  0.00  0.00    +0.000 OA
ENDROOT
BRANCH   1  11
ATOM     11  C   UNL     1       3.525   4.680  18.545  0.00  0.00    +0.000 C 
BRANCH  11  12
ATOM     12  C   UNL     1       4.911   4.531  19.156  0.00  0.00    +0.000 C 
ATOM     13  O   UNL     1       5.708   5.450  19.291  0.00  0.00    +0.000 OA
BRANCH  12  15
ATOM     14  C   UNL     1       3.953   2.417  19.461  0.00  0.00    +0.000 C 
ATOM     15  O   UNL     1       5.104   3.255  19.595  0.00  0.00    +0.000 OA
ENDBRANCH  12  15
ENDBRANCH  11  12
ENDBRANCH   1  11
BRANCH   8  16
ATOM     16  C   UNL     1       0.831  10.638  18.872  0.00  0.00    +0.000 C 
BRANCH  16  17
ATOM     17  C   UNL     1      -0.641  10.696  18.544  0.00  0.00    +0.000 A 
ATOM     18  C   UNL     1      -1.474  11.629  19.181  0.00  0.00    +0.000 A 
ATOM     19  C   UNL     1      -2.808  11.769  18.789  0.00  0.00    +0.000 A 
ATOM     20  C   UNL     1      -3.319  10.968  17.770  0.00  0.00    +0.000 A 
ATOM     21 CL   UNL     1      -4.942  11.190  17.241  0.00  0.00    +0.000 Cl
ATOM     22  C   UNL     1      -2.519  10.003  17.164  0.00  0.00    +0.000 A 
ATOM     23  C   UNL     1      -1.185   9.862  17.556  0.00  0.00    +0.000 A 
ENDBRANCH  16  17
ENDBRANCH   8  16
TORSDOF 5
ENDMDL
MODEL 6
REMARK VINA RESULT:      -7.2      0.526      1.476
REMARK  Name = 
REMARK  6 active torsions:
REMARK  status: ('A' for Active; 'I' for Inactive)
REMARK    1  A    between atoms: C_1  and  O_2
REMARK    2  A    between atoms: O_2  and  C_3
REMARK    3  A    between atoms: C_3  and  C_5
REMARK    4  A    between atoms: C_5  and  N_6
REMARK    5  A    between atoms: N_13  and  C_14
REMARK    6  A    between atoms: C_14  and  C_15
REMARK                            x       y       z     vdW  Elec       q    Type
REMARK                         _______ _______ _______ _____ _____    ______ ____
ROOT
ATOM      1  N   UNL     1       6.568   3.972  13.659  0.00  0.00    +0.000 N 
ATOM      2  C   UNL     1       5.875   3.163  14.562  0.00  0.00    +0.000 A 
ATOM      3  N   UNL     1       5.714   3.400  15.833  0.00  0.00    +0.000 NA
ATOM      4  C   UNL     1       6.329   4.543  16.224  0.00  0.00    +0.000 A 
ATOM      5  C   UNL     1       7.050   5.423  15.458  0.00  0.00    +0.000 A 
ATOM      6  N   UNL     1       7.560   6.424  16.228  0.00  0.00    +0.000 NA
ATOM      7  N   UNL     1       7.190   6.184  17.485  0.00  0.00    +0.000 NA
ATOM      8  N   UNL     1       6.444   5.050  17.489  0.00  0.00    +0.000 N 
ATOM      9  C   UNL     1       7.217   5.155  14.054  0.00  0.00    +0.000 A 
ATOM     10  O   UNL     1       7.870   5.857  13.287  0.00  0.00    +0.000 OA
ENDROOT
BRANCH   1  11
ATOM     11  C   UNL     1       6.766   3.524  12.287  0.00  0.00    +0.000 C 
BRANCH  11  12
ATOM     12  C   UNL     1       5.540   2.738  11.847  0.00  0.00    +0.000 C 
ATOM     13  O   UNL     1       5.551   1.550  11.552  0.00  0.00    +0.000 OA
BRANCH  12  15
ATOM     14  C   UNL     1       3.551   3.360  10.781  0.00  0.00    +0.000 C 
ATOM     15  O   UNL     1       4.426   3.521  11.900  0.00  0.00    +0.000 OA
ENDBRANCH  12  15
ENDBRANCH  11  12
ENDBRANCH   1  11
BRANCH   8  16
ATOM     16  C   UNL     1       6.090   4.410  18.738  0.00  0.00    +0.000 C 
BRANCH  16  17
ATOM     17  C   UNL     1       4.636   4.013  18.811  0.00  0.00    +0.000 A 
ATOM     18  C   UNL     1       3.634   4.904  18.396  0.00  0.00    +0.000 A 
ATOM     19  C   UNL     1       2.299   4.493  18.345  0.00  0.00    +0.000 A 
ATOM     20  C   UNL     1       1.957   3.197  18.722  0.00  0.00    +0.000 A 
ATOM     21 CL   UNL     1       0.324   2.671  18.591  0.00  0.00    +0.000 Cl
ATOM     22  C   UNL     1       2.933   2.317  19.184  0.00  0.00    +0.000 A 
ATOM     23  C   UNL     1       4.268   2.727  19.236  0.00  0.00    +0.000 A 
ENDBRANCH  16  17
ENDBRANCH   8  16
TORSDOF 5
ENDMDL
MODEL 7
REMARK VINA RESULT:      -7.2      3.736      5.412
REMARK  Name = 
REMARK  6 active torsions:
REMARK  status: ('A' for Active; 'I' for Inactive)
REMARK    1  A    between atoms: C_1  and  O_2
REMARK    2  A    between atoms: O_2  and  C_3
REMARK    3  A    between atoms: C_3  and  C_5
REMARK    4  A    between atoms: C_5  and  N_6
REMARK    5  A    between atoms: N_13  and  C_14
REMARK    6  A    between atoms: C_14  and  C_15
REMARK                            x       y       z     vdW  Elec       q    Type
REMARK                         _______ _______ _______ _____ _____    ______ ____
ROOT
ATOM      1  N   UNL     1       5.841   4.529  17.760  0.00  0.00    +0.000 N 
ATOM      2  C   UNL     1       5.845   5.291  18.930  0.00  0.00    +0.000 A 
ATOM      3  N   UNL     1       4.828   5.485  19.720  0.00  0.00    +0.000 NA
ATOM      4  C   UNL     1       3.705   4.872  19.272  0.00  0.00    +0.000 A 
ATOM      5  C   UNL     1       3.549   4.108  18.143  0.00  0.00    +0.000 A 
ATOM      6  N   UNL     1       2.253   3.714  18.004  0.00  0.00    +0.000 NA
ATOM      7  N   UNL     1       1.570   4.234  19.023  0.00  0.00    +0.000 NA
ATOM      8  N   UNL     1       2.442   4.934  19.793  0.00  0.00    +0.000 N 
ATOM      9  C   UNL     1       4.682   3.895  17.280  0.00  0.00    +0.000 A 
ATOM     10  O   UNL     1       4.644   3.259  16.230  0.00  0.00    +0.000 OA
ENDROOT
BRANCH   1  11
ATOM     11  C   UNL     1       7.025   4.494  16.913  0.00  0.00    +0.000 C 
BRANCH  11  12
ATOM     12  C   UNL     1       7.128   5.812  16.159  0.00  0.00    +0.000 C 
ATOM     13  O   UNL     1       7.763   6.783  16.551  0.00  0.00    +0.000 OA
BRANCH  12  15
ATOM     14  C   UNL     1       6.985   4.707  14.101  0.00  0.00    +0.000 C 
ATOM     15  O   UNL     1       6.481   5.730  14.963  0.00  0.00    +0.000 OA
ENDBRANCH  12  15
ENDBRANCH  11  12
ENDBRANCH   1  11
BRANCH   8  16
ATOM     16  C   UNL     1       1.958   5.800  20.847  0.00  0.00    +0.000 C 
BRANCH  16  17
ATOM     17  C   UNL     1       1.592   7.181  20.360  0.00  0.00    +0.000 A 
ATOM     18  C   UNL     1       0.888   8.064  21.192  0.00  0.00    +0.000 A 
ATOM     19  C   UNL     1       0.659   9.383  20.791  0.00  0.00    +0.000 A 
ATOM     20  C   UNL     1       1.118   9.820  19.551  0.00  0.00    +0.000 A 
ATOM     21 CL   UNL     1       0.896  11.463  19.088  0.00  0.00    +0.000 Cl
ATOM     22  C   UNL     1       1.774   8.941  18.692  0.00  0.00    +0.000 A 
ATOM     23  C   UNL     1       2.003   7.622  19.093  0.00  0.00    +0.000 A 
ENDBRANCH  16  17
ENDBRANCH   8  16
TORSDOF 5
ENDMDL
MODEL 8
REMARK VINA RESULT:      -7.1      4.126      6.831
REMARK  Name = 
REMARK  6 active torsions:
REMARK  status: ('A' for Active; 'I' for Inactive)
REMARK    1  A    between atoms: C_1  and  O_2
REMARK    2  A    between atoms: O_2  and  C_3
REMARK    3  A    between atoms: C_3  and  C_5
REMARK    4  A    between atoms: C_5  and  N_6
REMARK    5  A    between atoms: N_13  and  C_14
REMARK    6  A    between atoms: C_14  and  C_15
REMARK                            x       y       z     vdW  Elec       q    Type
REMARK                         _______ _______ _______ _____ _____    ______ ____
ROOT
ATOM      1  N   UNL     1       3.238   2.529  18.723  0.00  0.00    +0.000 N 
ATOM      2  C   UNL     1       2.941   2.928  17.418  0.00  0.00    +0.000 A 
ATOM      3  N   UNL     1       3.680   3.690  16.663  0.00  0.00    +0.000 NA
ATOM      4  C   UNL     1       4.807   4.099  17.295  0.00  0.00    +0.000 A 
ATOM      5  C   UNL     1       5.222   3.801  18.569  0.00  0.00    +0.000 A 
ATOM      6  N   UNL     1       6.382   4.451  18.861  0.00  0.00    +0.000 NA
ATOM      7  N   UNL     1       6.707   5.181  17.795  0.00  0.00    +0.000 NA
ATOM      8  N   UNL     1       5.760   4.971  16.845  0.00  0.00    +0.000 N 
ATOM      9  C   UNL     1       4.399   2.953  19.392  0.00  0.00    +0.000 A 
ATOM     10  O   UNL     1       4.659   2.652  20.554  0.00  0.00    +0.000 OA
ENDROOT
BRANCH   1  11
ATOM     11  C   UNL     1       2.262   1.768  19.489  0.00  0.00    +0.000 C 
BRANCH  11  12
ATOM     12  C   UNL     1       0.969   2.567  19.567  0.00  0.00    +0.000 C 
ATOM     13  O   UNL     1      -0.001   2.382  18.842  0.00  0.00    +0.000 OA
BRANCH  12  15
ATOM     14  C   UNL     1       1.406   2.875  21.845  0.00  0.00    +0.000 C 
ATOM     15  O   UNL     1       1.018   3.456  20.598  0.00  0.00    +0.000 OA
ENDBRANCH  12  15
ENDBRANCH  11  12
ENDBRANCH   1  11
BRANCH   8  16
ATOM     16  C   UNL     1       5.715   5.801  15.659  0.00  0.00    +0.000 C 
BRANCH  16  17
ATOM     17  C   UNL     1       6.091   5.058  14.400  0.00  0.00    +0.000 A 
ATOM     18  C   UNL     1       7.360   5.229  13.827  0.00  0.00    +0.000 A 
ATOM     19  C   UNL     1       7.753   4.450  12.735  0.00  0.00    +0.000 A 
ATOM     20  C   UNL     1       6.876   3.509  12.203  0.00  0.00    +0.000 A 
ATOM     21 CL   UNL     1       7.387   2.502  10.904  0.00  0.00    +0.000 Cl
ATOM     22  C   UNL     1       5.594   3.364  12.728  0.00  0.00    +0.000 A 
ATOM     23  C   UNL     1       5.200   4.143  13.819  0.00  0.00    +0.000 A 
ENDBRANCH  16  17
ENDBRANCH   8  16
TORSDOF 5
ENDMDL
MODEL 9
REMARK VINA RESULT:      -7.1      6.329      7.985
REMARK  Name = 
REMARK  6 active torsions:
REMARK  status: ('A' for Active; 'I' for Inactive)
REMARK    1  A    between atoms: C_1  and  O_2
REMARK    2  A    between atoms: O_2  and  C_3
REMARK    3  A    between atoms: C_3  and  C_5
REMARK    4  A    between atoms: C_5  and  N_6
REMARK    5  A    between atoms: N_13  and  C_14
REMARK    6  A    between atoms: C_14  and  C_15
REMARK                            x       y       z     vdW  Elec       q    Type
REMARK                         _______ _______ _______ _____ _____    ______ ____
ROOT
ATOM      1  N   UNL     1       2.801   6.066  18.802  0.00  0.00    +0.000 N 
ATOM      2  C   UNL     1       2.905   7.083  17.849  0.00  0.00    +0.000 A 
ATOM      3  N   UNL     1       2.470   8.303  17.982  0.00  0.00    +0.000 NA
ATOM      4  C   UNL     1       1.858   8.503  19.175  0.00  0.00    +0.000 A 
ATOM      5  C   UNL     1       1.671   7.603  20.194  0.00  0.00    +0.000 A 
ATOM      6  N   UNL     1       0.958   8.167  21.208  0.00  0.00    +0.000 NA
ATOM      7  N   UNL     1       0.667   9.414  20.842  0.00  0.00    +0.000 NA
ATOM      8  N   UNL     1       1.209   9.624  19.615  0.00  0.00    +0.000 N 
ATOM      9  C   UNL     1       2.160   6.258  20.038  0.00  0.00    +0.000 A 
ATOM     10  O   UNL     1       2.017   5.368  20.871  0.00  0.00    +0.000 OA
ENDROOT
BRANCH   1  11
ATOM     11  C   UNL     1       3.230   4.715  18.471  0.00  0.00    +0.000 C 
BRANCH  11  12
ATOM     12  C   UNL     1       2.007   3.888  18.103  0.00  0.00    +0.000 C 
ATOM     13  O   UNL     1       1.164   4.229  17.283  0.00  0.00    +0.000 OA
BRANCH  12  15
ATOM     14  C   UNL     1       3.340   2.172  18.974  0.00  0.00    +0.000 C 
ATOM     15  O   UNL     1       2.025   2.692  18.755  0.00  0.00    +0.000 OA
ENDBRANCH  12  15
ENDBRANCH  11  12
ENDBRANCH   1  11
BRANCH   8  16
ATOM     16  C   UNL     1       0.870  10.809  18.856  0.00  0.00    +0.000 C 
BRANCH  16  17
ATOM     17  C   UNL     1      -0.598  10.898  18.518  0.00  0.00    +0.000 A 
ATOM     18  C   UNL     1      -1.177   9.987  17.621  0.00  0.00    +0.000 A 
ATOM     19  C   UNL     1      -2.557   9.988  17.403  0.00  0.00    +0.000 A 
ATOM     20  C   UNL     1      -3.363  10.910  18.068  0.00  0.00    +0.000 A 
ATOM     21 CL   UNL     1      -5.070  10.865  17.852  0.00  0.00    +0.000 Cl
ATOM     22  C   UNL     1      -2.797  11.853  18.922  0.00  0.00    +0.000 A 
ATOM     23  C   UNL     1      -1.417  11.853  19.140  0.00  0.00    +0.000 A 
ENDBRANCH  16  17
ENDBRANCH   8  16
TORSDOF 5
ENDMDL
