MODEL 1
REMARK VINA RESULT:      -6.9      0.000      0.000
REMARK  Name = 
REMARK  10 active torsions:
REMARK  status: ('A' for Active; 'I' for Inactive)
REMARK    1  A    between atoms: C_1  and  C_2
REMARK    2  A    between atoms: C_2  and  O_3
REMARK    3  A    between atoms: O_3  and  C_4
REMARK    4  A    between atoms: C_4  and  C_6
REMARK    5  A    between atoms: N_9  and  C_10
REMARK    6  A    between atoms: C_10  and  C_11
REMARK    7  A    between atoms: C_17  and  C_19
REMARK    8  A    between atoms: C_19  and  N_20
REMARK    9  A    between atoms: N_24  and  C_25
REMARK   10  A    between atoms: C_29  and  C_30
REMARK                            x       y       z     vdW  Elec       q    Type
REMARK                         _______ _______ _______ _____ _____    ______ ____
ROOT
ATOM      1  C   UNL     1       6.204   5.626  17.795  0.00  0.00    +0.000 A 
ATOM      2  S   UNL     1       5.052   6.067  18.997  0.00  0.00    +0.000 S 
ATOM      3  C   UNL     1       3.834   6.109  17.801  0.00  0.00    +0.000 A 
ATOM      4  N   UNL     1       2.578   6.554  18.196  0.00  0.00    +0.000 N 
ATOM      5  C   UNL     1       2.420   7.940  18.069  0.00  0.00    +0.000 C 
ATOM      6  O   UNL     1       3.377   8.711  17.925  0.00  0.00    +0.000 OA
ATOM      7  N   UNL     1       4.189   5.752  16.590  0.00  0.00    +0.000 NA
ATOM      8  C   UNL     1       5.563   5.515  16.568  0.00  0.00    +0.000 A 
ATOM      9  C   UNL     1       6.207   5.198  15.261  0.00  0.00    +0.000 C 
ENDROOT
BRANCH   1  10
ATOM     10  C   UNL     1       7.609   5.401  18.084  0.00  0.00    +0.000 C 
ATOM     11  O   UNL     1       8.179   4.323  18.002  0.00  0.00    +0.000 OA
BRANCH  10  12
ATOM     12  O   UNL     1       8.211   6.546  18.530  0.00  0.00    +0.000 OA
BRANCH  12  14
ATOM     13  C   UNL     1       8.592   8.910  18.467  0.00  0.00    +0.000 C 
ATOM     14  C   UNL     1       7.944   7.731  17.764  0.00  0.00    +0.000 C 
ENDBRANCH  12  14
ENDBRANCH  10  12
ENDBRANCH   1  10
BRANCH   4  15
ATOM     15  C   UNL     1       1.439   5.654  18.362  0.00  0.00    +0.000 C 
BRANCH  15  16
ATOM     16  C   UNL     1       1.592   4.490  19.302  0.00  0.00    +0.000 A 
ATOM     17  C   UNL     1       1.817   4.690  20.672  0.00  0.00    +0.000 A 
ATOM     18  C   UNL     1       1.999   3.598  21.519  0.00  0.00    +0.000 A 
ATOM     19  C   UNL     1       1.952   2.302  21.004  0.00  0.00    +0.000 A 
ATOM     20  C   UNL     1       1.688   2.095  19.653  0.00  0.00    +0.000 A 
ATOM     21  C   UNL     1       1.505   3.183  18.805  0.00  0.00    +0.000 A 
ENDBRANCH  15  16
ENDBRANCH   4  15
BRANCH   5  22
ATOM     22  C   UNL     1       1.011   8.547  18.194  0.00  0.00    +0.000 C 
BRANCH  22  23
ATOM     23  N   UNL     1       0.948   9.461  19.315  0.00  0.00    +0.000 N 
ATOM     24  C   UNL     1       0.836   9.078  20.620  0.00  0.00    +0.000 C 
ATOM     25  O   UNL     1       0.841   7.932  21.052  0.00  0.00    +0.000 OA
ATOM     26  C   UNL     1       0.715  10.320  21.486  0.00  0.00    +0.000 C 
ATOM     27  N   UNL     1       0.926  11.343  20.494  0.00  0.00    +0.000 N 
ATOM     28  C   UNL     1       0.863  12.753  20.784  0.00  0.00    +0.000 C 
ATOM     29  C   UNL     1       1.110  10.813  19.235  0.00  0.00    +0.000 C 
ATOM     30  O   UNL     1       1.385  11.455  18.232  0.00  0.00    +0.000 OA
ENDBRANCH  22  23
ENDBRANCH   5  22
TORSDOF 7
ENDMDL
MODEL 2
REMARK VINA RESULT:      -6.8      2.216      7.058
REMARK  Name = 
REMARK  10 active torsions:
REMARK  status: ('A' for Active; 'I' for Inactive)
REMARK    1  A    between atoms: C_1  and  C_2
REMARK    2  A    between atoms: C_2  and  O_3
REMARK    3  A    between atoms: O_3  and  C_4
REMARK    4  A    between atoms: C_4  and  C_6
REMARK    5  A    between atoms: N_9  and  C_10
REMARK    6  A    between atoms: C_10  and  C_11
REMARK    7  A    between atoms: C_17  and  C_19
REMARK    8  A    between atoms: C_19  and  N_20
REMARK    9  A    between atoms: N_24  and  C_25
REMARK   10  A    between atoms: C_29  and  C_30
REMARK                            x       y       z     vdW  Elec       q    Type
REMARK                         _______ _______ _______ _____ _____    ______ ____
ROOT
ATOM      1  C   UNL     1       1.577   9.043  18.741  0.00  0.00    +0.000 A 
ATOM      2  S   UNL     1       2.201   8.075  17.461  0.00  0.00    +0.000 S 
ATOM      3  C   UNL     1       2.711   6.911  18.601  0.00  0.00    +0.000 A 
ATOM      4  N   UNL     1       3.451   5.838  18.118  0.00  0.00    +0.000 N 
ATOM      5  C   UNL     1       4.829   6.083  18.105  0.00  0.00    +0.000 C 
ATOM      6  O   UNL     1       5.307   7.219  18.210  0.00  0.00    +0.000 OA
ATOM      7  N   UNL     1       2.394   7.139  19.853  0.00  0.00    +0.000 NA
ATOM      8  C   UNL     1       1.780   8.387  19.949  0.00  0.00    +0.000 A 
ATOM      9  C   UNL     1       1.430   8.903  21.303  0.00  0.00    +0.000 C 
ENDROOT
BRANCH   1  10
ATOM     10  C   UNL     1       0.933  10.327  18.529  0.00  0.00    +0.000 C 
ATOM     11  O   UNL     1       1.441  11.414  18.758  0.00  0.00    +0.000 OA
BRANCH  10  12
ATOM     12  O   UNL     1      -0.356  10.167  18.097  0.00  0.00    +0.000 OA
BRANCH  12  14
ATOM     13  C   UNL     1      -2.070  11.724  18.706  0.00  0.00    +0.000 C 
ATOM     14  C   UNL     1      -1.377  10.425  19.073  0.00  0.00    +0.000 C 
ENDBRANCH  12  14
ENDBRANCH  10  12
ENDBRANCH   1  10
BRANCH   4  15
ATOM     15  C   UNL     1       2.900   4.491  17.997  0.00  0.00    +0.000 C 
BRANCH  15  16
ATOM     16  C   UNL     1       2.450   3.798  19.254  0.00  0.00    +0.000 A 
ATOM     17  C   UNL     1       3.380   3.263  20.158  0.00  0.00    +0.000 A 
ATOM     18  C   UNL     1       2.941   2.586  21.296  0.00  0.00    +0.000 A 
ATOM     19  C   UNL     1       1.575   2.448  21.540  0.00  0.00    +0.000 A 
ATOM     20  C   UNL     1       0.647   3.013  20.669  0.00  0.00    +0.000 A 
ATOM     21  C   UNL     1       1.082   3.689  19.533  0.00  0.00    +0.000 A 
ENDBRANCH  15  16
ENDBRANCH   4  15
BRANCH   5  22
ATOM     22  C   UNL     1       5.796   4.908  17.870  0.00  0.00    +0.000 C 
BRANCH  22  23
ATOM     23  N   UNL     1       6.184   4.838  16.476  0.00  0.00    +0.000 N 
ATOM     24  C   UNL     1       7.106   5.653  15.887  0.00  0.00    +0.000 C 
ATOM     25  O   UNL     1       7.790   6.506  16.438  0.00  0.00    +0.000 OA
ATOM     26  C   UNL     1       7.173   5.327  14.405  0.00  0.00    +0.000 C 
ATOM     27  N   UNL     1       6.303   4.179  14.359  0.00  0.00    +0.000 N 
ATOM     28  C   UNL     1       5.969   3.487  13.139  0.00  0.00    +0.000 C 
ATOM     29  C   UNL     1       5.773   3.881  15.595  0.00  0.00    +0.000 C 
ATOM     30  O   UNL     1       5.071   2.913  15.847  0.00  0.00    +0.000 OA
ENDBRANCH  22  23
ENDBRANCH   5  22
TORSDOF 7
ENDMDL
MODEL 3
REMARK VINA RESULT:      -6.7      2.133      6.831
REMARK  Name = 
REMARK  10 active torsions:
REMARK  status: ('A' for Active; 'I' for Inactive)
REMARK    1  A    between atoms: C_1  and  C_2
REMARK    2  A    between atoms: C_2  and  O_3
REMARK    3  A    between atoms: O_3  and  C_4
REMARK    4  A    between atoms: C_4  and  C_6
REMARK    5  A    between atoms: N_9  and  C_10
REMARK    6  A    between atoms: C_10  and  C_11
REMARK    7  A    between atoms: C_17  and  C_19
REMARK    8  A    between atoms: C_19  and  N_20
REMARK    9  A    between atoms: N_24  and  C_25
REMARK   10  A    between atoms: C_29  and  C_30
REMARK                            x       y       z     vdW  Elec       q    Type
REMARK                         _______ _______ _______ _____ _____    ______ ____
ROOT
ATOM      1  C   UNL     1       1.490   9.030  18.774  0.00  0.00    +0.000 A 
ATOM      2  S   UNL     1       2.129   8.070  17.495  0.00  0.00    +0.000 S 
ATOM      3  C   UNL     1       2.652   6.914  18.637  0.00  0.00    +0.000 A 
ATOM      4  N   UNL     1       3.408   5.851  18.157  0.00  0.00    +0.000 N 
ATOM      5  C   UNL     1       4.783   6.114  18.146  0.00  0.00    +0.000 C 
ATOM      6  O   UNL     1       5.245   7.257  18.251  0.00  0.00    +0.000 OA
ATOM      7  N   UNL     1       2.330   7.138  19.889  0.00  0.00    +0.000 NA
ATOM      8  C   UNL     1       1.698   8.378  19.983  0.00  0.00    +0.000 A 
ATOM      9  C   UNL     1       1.339   8.889  21.336  0.00  0.00    +0.000 C 
ENDROOT
BRANCH   1  10
ATOM     10  C   UNL     1       0.829  10.305  18.560  0.00  0.00    +0.000 C 
ATOM     11  O   UNL     1      -0.347  10.445  18.258  0.00  0.00    +0.000 OA
BRANCH  10  12
ATOM     12  O   UNL     1       1.713  11.344  18.672  0.00  0.00    +0.000 OA
BRANCH  12  14
ATOM     13  C   UNL     1       1.878  12.893  20.490  0.00  0.00    +0.000 C 
ATOM     14  C   UNL     1       1.173  12.571  19.186  0.00  0.00    +0.000 C 
ENDBRANCH  12  14
ENDBRANCH  10  12
ENDBRANCH   1  10
BRANCH   4  15
ATOM     15  C   UNL     1       2.876   4.496  18.035  0.00  0.00    +0.000 C 
BRANCH  15  16
ATOM     16  C   UNL     1       2.459   3.787  19.295  0.00  0.00    +0.000 A 
ATOM     17  C   UNL     1       3.411   3.216  20.153  0.00  0.00    +0.000 A 
ATOM     18  C   UNL     1       3.002   2.526  21.293  0.00  0.00    +0.000 A 
ATOM     19  C   UNL     1       1.643   2.409  21.586  0.00  0.00    +0.000 A 
ATOM     20  C   UNL     1       0.695   3.008  20.761  0.00  0.00    +0.000 A 
ATOM     21  C   UNL     1       1.100   3.699  19.623  0.00  0.00    +0.000 A 
ENDBRANCH  15  16
ENDBRANCH   4  15
BRANCH   5  22
ATOM     22  C   UNL     1       5.766   4.952  17.913  0.00  0.00    +0.000 C 
BRANCH  22  23
ATOM     23  N   UNL     1       6.154   4.885  16.520  0.00  0.00    +0.000 N 
ATOM     24  C   UNL     1       7.071   5.706  15.931  0.00  0.00    +0.000 C 
ATOM     25  O   UNL     1       7.749   6.564  16.482  0.00  0.00    +0.000 OA
ATOM     26  C   UNL     1       7.140   5.379  14.449  0.00  0.00    +0.000 C 
ATOM     27  N   UNL     1       6.279   4.225  14.404  0.00  0.00    +0.000 N 
ATOM     28  C   UNL     1       5.950   3.531  13.184  0.00  0.00    +0.000 C 
ATOM     29  C   UNL     1       5.751   3.924  15.640  0.00  0.00    +0.000 C 
ATOM     30  O   UNL     1       5.055   2.952  15.892  0.00  0.00    +0.000 OA
ENDBRANCH  22  23
ENDBRANCH   5  22
TORSDOF 7
ENDMDL
MODEL 4
REMARK VINA RESULT:      -6.6      2.265      6.966
REMARK  Name = 
REMARK  10 active torsions:
REMARK  status: ('A' for Active; 'I' for Inactive)
REMARK    1  A    between atoms: C_1  and  C_2
REMARK    2  A    between atoms: C_2  and  O_3
REMARK    3  A    between atoms: O_3  and  C_4
REMARK    4  A    between atoms: C_4  and  C_6
REMARK    5  A    between atoms: N_9  and  C_10
REMARK    6  A    between atoms: C_10  and  C_11
REMARK    7  A    between atoms: C_17  and  C_19
REMARK    8  A    between atoms: C_19  and  N_20
REMARK    9  A    between atoms: N_24  and  C_25
REMARK   10  A    between atoms: C_29  and  C_30
REMARK                            x       y       z     vdW  Elec       q    Type
REMARK                         _______ _______ _______ _____ _____    ______ ____
ROOT
ATOM      1  C   UNL     1       1.531   8.976  18.808  0.00  0.00    +0.000 A 
ATOM      2  S   UNL     1       2.126   8.018  17.507  0.00  0.00    +0.000 S 
ATOM      3  C   UNL     1       2.664   6.847  18.627  0.00  0.00    +0.000 A 
ATOM      4  N   UNL     1       3.394   5.779  18.120  0.00  0.00    +0.000 N 
ATOM      5  C   UNL     1       4.772   6.026  18.077  0.00  0.00    +0.000 C 
ATOM      6  O   UNL     1       5.251   7.162  18.179  0.00  0.00    +0.000 OA
ATOM      7  N   UNL     1       2.376   7.066  19.888  0.00  0.00    +0.000 NA
ATOM      8  C   UNL     1       1.762   8.313  20.006  0.00  0.00    +0.000 A 
ATOM      9  C   UNL     1       1.443   8.818  21.372  0.00  0.00    +0.000 C 
ENDROOT
BRANCH   1  10
ATOM     10  C   UNL     1       0.881  10.261  18.619  0.00  0.00    +0.000 C 
ATOM     11  O   UNL     1       1.390  11.347  18.850  0.00  0.00    +0.000 OA
BRANCH  10  12
ATOM     12  O   UNL     1      -0.416  10.101  18.209  0.00  0.00    +0.000 OA
BRANCH  12  14
ATOM     13  C   UNL     1      -2.650  10.928  17.961  0.00  0.00    +0.000 C 
ATOM     14  C   UNL     1      -1.363  11.030  18.758  0.00  0.00    +0.000 C 
ENDBRANCH  12  14
ENDBRANCH  10  12
ENDBRANCH   1  10
BRANCH   4  15
ATOM     15  C   UNL     1       2.843   4.431  18.002  0.00  0.00    +0.000 C 
BRANCH  15  16
ATOM     16  C   UNL     1       2.429   3.727  19.265  0.00  0.00    +0.000 A 
ATOM     17  C   UNL     1       1.077   3.596  19.612  0.00  0.00    +0.000 A 
ATOM     18  C   UNL     1       0.716   2.977  20.808  0.00  0.00    +0.000 A 
ATOM     19  C   UNL     1       1.703   2.481  21.660  0.00  0.00    +0.000 A 
ATOM     20  C   UNL     1       3.046   2.570  21.303  0.00  0.00    +0.000 A 
ATOM     21  C   UNL     1       3.408   3.186  20.108  0.00  0.00    +0.000 A 
ENDBRANCH  15  16
ENDBRANCH   4  15
BRANCH   5  22
ATOM     22  C   UNL     1       5.735   4.854  17.812  0.00  0.00    +0.000 C 
BRANCH  22  23
ATOM     23  N   UNL     1       6.002   4.725  16.394  0.00  0.00    +0.000 N 
ATOM     24  C   UNL     1       5.267   3.961  15.535  0.00  0.00    +0.000 C 
ATOM     25  O   UNL     1       4.249   3.333  15.797  0.00  0.00    +0.000 OA
ATOM     26  C   UNL     1       5.908   4.018  14.159  0.00  0.00    +0.000 C 
ATOM     27  N   UNL     1       6.937   4.998  14.399  0.00  0.00    +0.000 N 
ATOM     28  C   UNL     1       7.897   5.398  13.401  0.00  0.00    +0.000 C 
ATOM     29  C   UNL     1       6.941   5.434  15.705  0.00  0.00    +0.000 C 
ATOM     30  O   UNL     1       7.658   6.317  16.152  0.00  0.00    +0.000 OA
ENDBRANCH  22  23
ENDBRANCH   5  22
TORSDOF 7
ENDMDL
MODEL 5
REMARK VINA RESULT:      -6.6      0.638      1.776
REMARK  Name = 
REMARK  10 active torsions:
REMARK  status: ('A' for Active; 'I' for Inactive)
REMARK    1  A    between atoms: C_1  and  C_2
REMARK    2  A    between atoms: C_2  and  O_3
REMARK    3  A    between atoms: O_3  and  C_4
REMARK    4  A    between atoms: C_4  and  C_6
REMARK    5  A    between atoms: N_9  and  C_10
REMARK    6  A    between atoms: C_10  and  C_11
REMARK    7  A    between atoms: C_17  and  C_19
REMARK    8  A    between atoms: C_19  and  N_20
REMARK    9  A    between atoms: N_24  and  C_25
REMARK   10  A    between atoms: C_29  and  C_30
REMARK                            x       y       z     vdW  Elec       q    Type
REMARK                         _______ _______ _______ _____ _____    ______ ____
ROOT
ATOM      1  C   UNL     1       6.294   5.528  17.673  0.00  0.00    +0.000 A 
ATOM      2  S   UNL     1       5.103   5.895  18.862  0.00  0.00    +0.000 S 
ATOM      3  C   UNL     1       3.931   6.039  17.630  0.00  0.00    +0.000 A 
ATOM      4  N   UNL     1       2.665   6.469  18.011  0.00  0.00    +0.000 N 
ATOM      5  C   UNL     1       2.526   7.862  17.979  0.00  0.00    +0.000 C 
ATOM      6  O   UNL     1       3.494   8.630  17.925  0.00  0.00    +0.000 OA
ATOM      7  N   UNL     1       4.326   5.765  16.409  0.00  0.00    +0.000 NA
ATOM      8  C   UNL     1       5.698   5.513  16.419  0.00  0.00    +0.000 A 
ATOM      9  C   UNL     1       6.385   5.283  15.117  0.00  0.00    +0.000 C 
ENDROOT
BRANCH   1  10
ATOM     10  C   UNL     1       7.686   5.265  17.994  0.00  0.00    +0.000 C 
ATOM     11  O   UNL     1       8.246   4.187  17.864  0.00  0.00    +0.000 OA
BRANCH  10  12
ATOM     12  O   UNL     1       8.285   6.372  18.533  0.00  0.00    +0.000 OA
BRANCH  12  14
ATOM     13  C   UNL     1       8.670   8.732  18.666  0.00  0.00    +0.000 C 
ATOM     14  C   UNL     1       7.957   7.624  17.912  0.00  0.00    +0.000 C 
ENDBRANCH  12  14
ENDBRANCH  10  12
ENDBRANCH   1  10
BRANCH   4  15
ATOM     15  C   UNL     1       1.512   5.574  18.071  0.00  0.00    +0.000 C 
BRANCH  15  16
ATOM     16  C   UNL     1       1.630   4.329  18.907  0.00  0.00    +0.000 A 
ATOM     17  C   UNL     1       2.028   3.110  18.339  0.00  0.00    +0.000 A 
ATOM     18  C   UNL     1       2.089   1.959  19.123  0.00  0.00    +0.000 A 
ATOM     19  C   UNL     1       1.760   2.020  20.477  0.00  0.00    +0.000 A 
ATOM     20  C   UNL     1       1.404   3.235  21.057  0.00  0.00    +0.000 A 
ATOM     21  C   UNL     1       1.343   4.386  20.277  0.00  0.00    +0.000 A 
ENDBRANCH  15  16
ENDBRANCH   4  15
BRANCH   5  22
ATOM     22  C   UNL     1       1.119   8.477  18.097  0.00  0.00    +0.000 C 
BRANCH  22  23
ATOM     23  N   UNL     1       0.999   9.244  19.319  0.00  0.00    +0.000 N 
ATOM     24  C   UNL     1       0.758  10.587  19.369  0.00  0.00    +0.000 C 
ATOM     25  O   UNL     1       0.539  11.329  18.421  0.00  0.00    +0.000 OA
ATOM     26  C   UNL     1       0.786  11.035  20.820  0.00  0.00    +0.000 C 
ATOM     27  N   UNL     1       0.918   9.759  21.477  0.00  0.00    +0.000 N 
ATOM     28  C   UNL     1       1.045   9.614  22.906  0.00  0.00    +0.000 C 
ATOM     29  C   UNL     1       0.991   8.719  20.577  0.00  0.00    +0.000 C 
ATOM     30  O   UNL     1       1.027   7.533  20.871  0.00  0.00    +0.000 OA
ENDBRANCH  22  23
ENDBRANCH   5  22
TORSDOF 7
ENDMDL
MODEL 6
REMARK VINA RESULT:      -6.5      2.212      6.684
REMARK  Name = 
REMARK  10 active torsions:
REMARK  status: ('A' for Active; 'I' for Inactive)
REMARK    1  A    between atoms: C_1  and  C_2
REMARK    2  A    between atoms: C_2  and  O_3
REMARK    3  A    between atoms: O_3  and  C_4
REMARK    4  A    between atoms: C_4  and  C_6
REMARK    5  A    between atoms: N_9  and  C_10
REMARK    6  A    between atoms: C_10  and  C_11
REMARK    7  A    between atoms: C_17  and  C_19
REMARK    8  A    between atoms: C_19  and  N_20
REMARK    9  A    between atoms: N_24  and  C_25
REMARK   10  A    between atoms: C_29  and  C_30
REMARK                            x       y       z     vdW  Elec       q    Type
REMARK                         _______ _______ _______ _____ _____    ______ ____
ROOT
ATOM      1  C   UNL     1       1.586   8.918  18.781  0.00  0.00    +0.000 A 
ATOM      2  S   UNL     1       2.211   7.965  17.490  0.00  0.00    +0.000 S 
ATOM      3  C   UNL     1       2.742   6.800  18.618  0.00  0.00    +0.000 A 
ATOM      4  N   UNL     1       3.490   5.738  18.123  0.00  0.00    +0.000 N 
ATOM      5  C   UNL     1       4.865   5.998  18.101  0.00  0.00    +0.000 C 
ATOM      6  O   UNL     1       5.332   7.138  18.210  0.00  0.00    +0.000 OA
ATOM      7  N   UNL     1       2.433   7.016  19.875  0.00  0.00    +0.000 NA
ATOM      8  C   UNL     1       1.805   8.257  19.983  0.00  0.00    +0.000 A 
ATOM      9  C   UNL     1       1.460   8.760  21.343  0.00  0.00    +0.000 C 
ENDROOT
BRANCH   1  10
ATOM     10  C   UNL     1       0.927  10.196  18.582  0.00  0.00    +0.000 C 
ATOM     11  O   UNL     1      -0.280  10.379  18.629  0.00  0.00    +0.000 OA
BRANCH  10  12
ATOM     12  O   UNL     1       1.831  11.173  18.262  0.00  0.00    +0.000 OA
BRANCH  12  14
ATOM     13  C   UNL     1       2.378  13.504  18.309  0.00  0.00    +0.000 C 
ATOM     14  C   UNL     1       1.815  12.338  19.100  0.00  0.00    +0.000 C 
ENDBRANCH  12  14
ENDBRANCH  10  12
ENDBRANCH   1  10
BRANCH   4  15
ATOM     15  C   UNL     1       2.952   4.385  17.998  0.00  0.00    +0.000 C 
BRANCH  15  16
ATOM     16  C   UNL     1       2.483   3.695  19.249  0.00  0.00    +0.000 A 
ATOM     17  C   UNL     1       1.117   3.601  19.555  0.00  0.00    +0.000 A 
ATOM     18  C   UNL     1       0.705   2.995  20.741  0.00  0.00    +0.000 A 
ATOM     19  C   UNL     1       1.652   2.474  21.623  0.00  0.00    +0.000 A 
ATOM     20  C   UNL     1       3.008   2.527  21.306  0.00  0.00    +0.000 A 
ATOM     21  C   UNL     1       3.422   3.130  20.122  0.00  0.00    +0.000 A 
ENDBRANCH  15  16
ENDBRANCH   4  15
BRANCH   5  22
ATOM     22  C   UNL     1       5.843   4.834  17.851  0.00  0.00    +0.000 C 
BRANCH  22  23
ATOM     23  N   UNL     1       6.105   4.684  16.435  0.00  0.00    +0.000 N 
ATOM     24  C   UNL     1       5.407   3.858  15.603  0.00  0.00    +0.000 C 
ATOM     25  O   UNL     1       4.429   3.180  15.891  0.00  0.00    +0.000 OA
ATOM     26  C   UNL     1       6.032   3.916  14.219  0.00  0.00    +0.000 C 
ATOM     27  N   UNL     1       7.005   4.959  14.424  0.00  0.00    +0.000 N 
ATOM     28  C   UNL     1       7.932   5.387  13.406  0.00  0.00    +0.000 C 
ATOM     29  C   UNL     1       6.996   5.428  15.719  0.00  0.00    +0.000 C 
ATOM     30  O   UNL     1       7.665   6.362  16.136  0.00  0.00    +0.000 OA
ENDBRANCH  22  23
ENDBRANCH   5  22
TORSDOF 7
ENDMDL
MODEL 7
REMARK VINA RESULT:      -6.4      2.210      6.893
REMARK  Name = 
REMARK  10 active torsions:
REMARK  status: ('A' for Active; 'I' for Inactive)
REMARK    1  A    between atoms: C_1  and  C_2
REMARK    2  A    between atoms: C_2  and  O_3
REMARK    3  A    between atoms: O_3  and  C_4
REMARK    4  A    between atoms: C_4  and  C_6
REMARK    5  A    between atoms: N_9  and  C_10
REMARK    6  A    between atoms: C_10  and  C_11
REMARK    7  A    between atoms: C_17  and  C_19
REMARK    8  A    between atoms: C_19  and  N_20
REMARK    9  A    between atoms: N_24  and  C_25
REMARK   10  A    between atoms: C_29  and  C_30
REMARK                            x       y       z     vdW  Elec       q    Type
REMARK                         _______ _______ _______ _____ _____    ______ ____
ROOT
ATOM      1  C   UNL     1       1.577   8.978  18.775  0.00  0.00    +0.000 A 
ATOM      2  S   UNL     1       2.164   8.002  17.483  0.00  0.00    +0.000 S 
ATOM      3  C   UNL     1       2.715   6.850  18.615  0.00  0.00    +0.000 A 
ATOM      4  N   UNL     1       3.445   5.776  18.117  0.00  0.00    +0.000 N 
ATOM      5  C   UNL     1       4.821   6.027  18.058  0.00  0.00    +0.000 C 
ATOM      6  O   UNL     1       5.297   7.166  18.139  0.00  0.00    +0.000 OA
ATOM      7  N   UNL     1       2.438   7.086  19.875  0.00  0.00    +0.000 NA
ATOM      8  C   UNL     1       1.821   8.332  19.981  0.00  0.00    +0.000 A 
ATOM      9  C   UNL     1       1.512   8.856  21.342  0.00  0.00    +0.000 C 
ENDROOT
BRANCH   1  10
ATOM     10  C   UNL     1       0.921  10.257  18.574  0.00  0.00    +0.000 C 
ATOM     11  O   UNL     1       1.495  11.324  18.419  0.00  0.00    +0.000 OA
BRANCH  10  12
ATOM     12  O   UNL     1      -0.440  10.130  18.647  0.00  0.00    +0.000 OA
BRANCH  12  14
ATOM     13  C   UNL     1      -1.066  11.353  20.609  0.00  0.00    +0.000 C 
ATOM     14  C   UNL     1      -1.152  11.294  19.095  0.00  0.00    +0.000 C 
ENDBRANCH  12  14
ENDBRANCH  10  12
ENDBRANCH   1  10
BRANCH   4  15
ATOM     15  C   UNL     1       2.896   4.425  18.024  0.00  0.00    +0.000 C 
BRANCH  15  16
ATOM     16  C   UNL     1       2.465   3.751  19.297  0.00  0.00    +0.000 A 
ATOM     17  C   UNL     1       3.406   3.200  20.180  0.00  0.00    +0.000 A 
ATOM     18  C   UNL     1       2.983   2.541  21.333  0.00  0.00    +0.000 A 
ATOM     19  C   UNL     1       1.621   2.435  21.615  0.00  0.00    +0.000 A 
ATOM     20  C   UNL     1       0.683   3.016  20.765  0.00  0.00    +0.000 A 
ATOM     21  C   UNL     1       1.102   3.675  19.613  0.00  0.00    +0.000 A 
ENDBRANCH  15  16
ENDBRANCH   4  15
BRANCH   5  22
ATOM     22  C   UNL     1       5.786   4.854  17.801  0.00  0.00    +0.000 C 
BRANCH  22  23
ATOM     23  N   UNL     1       6.056   4.719  16.385  0.00  0.00    +0.000 N 
ATOM     24  C   UNL     1       5.341   3.929  15.532  0.00  0.00    +0.000 C 
ATOM     25  O   UNL     1       4.339   3.279  15.800  0.00  0.00    +0.000 OA
ATOM     26  C   UNL     1       5.982   3.989  14.156  0.00  0.00    +0.000 C 
ATOM     27  N   UNL     1       6.986   4.996  14.388  0.00  0.00    +0.000 N 
ATOM     28  C   UNL     1       7.937   5.410  13.387  0.00  0.00    +0.000 C 
ATOM     29  C   UNL     1       6.978   5.445  15.690  0.00  0.00    +0.000 C 
ATOM     30  O   UNL     1       7.673   6.349  16.129  0.00  0.00    +0.000 OA
ENDBRANCH  22  23
ENDBRANCH   5  22
TORSDOF 7
ENDMDL
MODEL 8
REMARK VINA RESULT:      -6.1      5.433      9.331
REMARK  Name = 
REMARK  10 active torsions:
REMARK  status: ('A' for Active; 'I' for Inactive)
REMARK    1  A    between atoms: C_1  and  C_2
REMARK    2  A    between atoms: C_2  and  O_3
REMARK    3  A    between atoms: O_3  and  C_4
REMARK    4  A    between atoms: C_4  and  C_6
REMARK    5  A    between atoms: N_9  and  C_10
REMARK    6  A    between atoms: C_10  and  C_11
REMARK    7  A    between atoms: C_17  and  C_19
REMARK    8  A    between atoms: C_19  and  N_20
REMARK    9  A    between atoms: N_24  and  C_25
REMARK   10  A    between atoms: C_29  and  C_30
REMARK                            x       y       z     vdW  Elec       q    Type
REMARK                         _______ _______ _______ _____ _____    ______ ____
ROOT
ATOM      1  C   UNL     1      -4.022  11.796  18.723  0.00  0.00    +0.000 A 
ATOM      2  S   UNL     1      -2.483  11.295  18.134  0.00  0.00    +0.000 S 
ATOM      3  C   UNL     1      -1.747  11.947  19.530  0.00  0.00    +0.000 A 
ATOM      4  N   UNL     1      -0.358  11.934  19.574  0.00  0.00    +0.000 N 
ATOM      5  C   UNL     1       0.221  13.083  19.021  0.00  0.00    +0.000 C 
ATOM      6  O   UNL     1      -0.408  13.867  18.300  0.00  0.00    +0.000 OA
ATOM      7  N   UNL     1      -2.551  12.444  20.439  0.00  0.00    +0.000 NA
ATOM      8  C   UNL     1      -3.861  12.401  19.963  0.00  0.00    +0.000 A 
ATOM      9  C   UNL     1      -4.936  13.016  20.792  0.00  0.00    +0.000 C 
ENDROOT
BRANCH   1  10
ATOM     10  C   UNL     1      -5.262  11.576  18.000  0.00  0.00    +0.000 C 
ATOM     11  O   UNL     1      -5.987  10.601  18.129  0.00  0.00    +0.000 OA
BRANCH  10  12
ATOM     12  O   UNL     1      -5.488  12.576  17.093  0.00  0.00    +0.000 OA
BRANCH  12  14
ATOM     13  C   UNL     1      -6.840  14.513  16.698  0.00  0.00    +0.000 C 
ATOM     14  C   UNL     1      -6.848  13.022  16.982  0.00  0.00    +0.000 C 
ENDBRANCH  12  14
ENDBRANCH  10  12
ENDBRANCH   1  10
BRANCH   4  15
ATOM     15  C   UNL     1       0.396  11.019  20.428  0.00  0.00    +0.000 C 
BRANCH  15  16
ATOM     16  C   UNL     1       1.048   9.828  19.781  0.00  0.00    +0.000 A 
ATOM     17  C   UNL     1       1.340   9.818  18.409  0.00  0.00    +0.000 A 
ATOM     18  C   UNL     1       1.905   8.688  17.821  0.00  0.00    +0.000 A 
ATOM     19  C   UNL     1       2.187   7.565  18.599  0.00  0.00    +0.000 A 
ATOM     20  C   UNL     1       1.938   7.582  19.969  0.00  0.00    +0.000 A 
ATOM     21  C   UNL     1       1.375   8.710  20.559  0.00  0.00    +0.000 A 
ENDBRANCH  15  16
ENDBRANCH   4  15
BRANCH   5  22
ATOM     22  C   UNL     1       1.721  13.349  19.247  0.00  0.00    +0.000 C 
BRANCH  22  23
ATOM     23  N   UNL     1       1.917  14.613  19.925  0.00  0.00    +0.000 N 
ATOM     24  C   UNL     1       2.237  15.785  19.301  0.00  0.00    +0.000 C 
ATOM     25  O   UNL     1       2.338  15.970  18.095  0.00  0.00    +0.000 OA
ATOM     26  C   UNL     1       2.439  16.861  20.354  0.00  0.00    +0.000 C 
ATOM     27  N   UNL     1       2.044  16.137  21.536  0.00  0.00    +0.000 N 
ATOM     28  C   UNL     1       2.098  16.698  22.863  0.00  0.00    +0.000 C 
ATOM     29  C   UNL     1       1.694  14.834  21.252  0.00  0.00    +0.000 C 
ATOM     30  O   UNL     1       1.249  14.032  22.059  0.00  0.00    +0.000 OA
ENDBRANCH  22  23
ENDBRANCH   5  22
TORSDOF 7
ENDMDL
MODEL 9
REMARK VINA RESULT:      -6.1      2.007      6.949
REMARK  Name = 
REMARK  10 active torsions:
REMARK  status: ('A' for Active; 'I' for Inactive)
REMARK    1  A    between atoms: C_1  and  C_2
REMARK    2  A    between atoms: C_2  and  O_3
REMARK    3  A    between atoms: O_3  and  C_4
REMARK    4  A    between atoms: C_4  and  C_6
REMARK    5  A    between atoms: N_9  and  C_10
REMARK    6  A    between atoms: C_10  and  C_11
REMARK    7  A    between atoms: C_17  and  C_19
REMARK    8  A    between atoms: C_19  and  N_20
REMARK    9  A    between atoms: N_24  and  C_25
REMARK   10  A    between atoms: C_29  and  C_30
REMARK                            x       y       z     vdW  Elec       q    Type
REMARK                         _______ _______ _______ _____ _____    ______ ____
ROOT
ATOM      1  C   UNL     1       1.456   9.528  18.944  0.00  0.00    +0.000 A 
ATOM      2  S   UNL     1       2.057   8.547  17.663  0.00  0.00    +0.000 S 
ATOM      3  C   UNL     1       2.357   7.290  18.778  0.00  0.00    +0.000 A 
ATOM      4  N   UNL     1       3.008   6.161  18.295  0.00  0.00    +0.000 N 
ATOM      5  C   UNL     1       4.402   6.250  18.382  0.00  0.00    +0.000 C 
ATOM      6  O   UNL     1       4.993   7.321  18.570  0.00  0.00    +0.000 OA
ATOM      7  N   UNL     1       1.982   7.503  20.017  0.00  0.00    +0.000 NA
ATOM      8  C   UNL     1       1.501   8.808  20.131  0.00  0.00    +0.000 A 
ATOM      9  C   UNL     1       1.117   9.306  21.482  0.00  0.00    +0.000 C 
ENDROOT
BRANCH   1  10
ATOM     10  C   UNL     1       0.972  10.883  18.750  0.00  0.00    +0.000 C 
ATOM     11  O   UNL     1       1.632  11.808  18.300  0.00  0.00    +0.000 OA
BRANCH  10  12
ATOM     12  O   UNL     1      -0.313  11.017  19.202  0.00  0.00    +0.000 OA
BRANCH  12  14
ATOM     13  C   UNL     1      -1.610  10.064  17.429  0.00  0.00    +0.000 C 
ATOM     14  C   UNL     1      -1.297  11.330  18.204  0.00  0.00    +0.000 C 
ENDBRANCH  12  14
ENDBRANCH  10  12
ENDBRANCH   1  10
BRANCH   4  15
ATOM     15  C   UNL     1       2.323   4.889  18.077  0.00  0.00    +0.000 C 
BRANCH  15  16
ATOM     16  C   UNL     1       2.013   4.040  19.280  0.00  0.00    +0.000 A 
ATOM     17  C   UNL     1       1.198   2.904  19.173  0.00  0.00    +0.000 A 
ATOM     18  C   UNL     1       0.888   2.155  20.308  0.00  0.00    +0.000 A 
ATOM     19  C   UNL     1       1.394   2.533  21.551  0.00  0.00    +0.000 A 
ATOM     20  C   UNL     1       2.238   3.636  21.658  0.00  0.00    +0.000 A 
ATOM     21  C   UNL     1       2.550   4.385  20.527  0.00  0.00    +0.000 A 
ENDBRANCH  15  16
ENDBRANCH   4  15
BRANCH   5  22
ATOM     22  C   UNL     1       5.250   4.984  18.156  0.00  0.00    +0.000 C 
BRANCH  22  23
ATOM     23  N   UNL     1       5.739   4.936  16.794  0.00  0.00    +0.000 N 
ATOM     24  C   UNL     1       6.838   5.607  16.342  0.00  0.00    +0.000 C 
ATOM     25  O   UNL     1       7.610   6.284  17.008  0.00  0.00    +0.000 OA
ATOM     26  C   UNL     1       6.976   5.370  14.847  0.00  0.00    +0.000 C 
ATOM     27  N   UNL     1       5.926   4.404  14.646  0.00  0.00    +0.000 N 
ATOM     28  C   UNL     1       5.583   3.865  13.354  0.00  0.00    +0.000 C 
ATOM     29  C   UNL     1       5.246   4.128  15.812  0.00  0.00    +0.000 C 
ATOM     30  O   UNL     1       4.365   3.290  15.933  0.00  0.00    +0.000 OA
ENDBRANCH  22  23
ENDBRANCH   5  22
TORSDOF 7
ENDMDL
