MODEL 1
REMARK VINA RESULT:      -6.6      0.000      0.000
REMARK  Name = 
REMARK  6 active torsions:
REMARK  status: ('A' for Active; 'I' for Inactive)
REMARK    1  A    between atoms: C_1  and  C_2
REMARK    2  A    between atoms: C_6  and  C_7
REMARK    3  A    between atoms: C_8  and  S_9
REMARK    4  A    between atoms: S_9  and  N_12
REMARK    5  A    between atoms: N_15  and  C_16
REMARK    6  A    between atoms: C_16  and  C_17
REMARK                            x       y       z     vdW  Elec       q    Type
REMARK                         _______ _______ _______ _____ _____    ______ ____
ROOT
ATOM      1  N   UNL     1       1.698   8.777  19.581  0.00  0.00    +0.000 NA
ATOM      2  C   UNL     1       1.785   7.919  20.792  0.00  0.00    +0.000 C 
ATOM      3  C   UNL     1       1.586   6.416  20.491  0.00  0.00    +0.000 C 
ATOM      4  N   UNL     1       2.266   5.865  19.296  0.00  0.00    +0.000 NA
ATOM      5  C   UNL     1       2.062   6.773  18.151  0.00  0.00    +0.000 C 
ATOM      6  C   UNL     1       2.420   8.243  18.409  0.00  0.00    +0.000 C 
ENDROOT
BRANCH   1   7
ATOM      7  S   UNL     1       0.322   9.730  19.331  0.00  0.00    +0.000 S 
ATOM      8  O   UNL     1      -0.681   9.195  20.228  0.00  0.00    +0.000 OA
ATOM      9  O   UNL     1       0.062   9.860  17.913  0.00  0.00    +0.000 OA
BRANCH   7  17
ATOM     10  C   UNL     1      -0.453  13.791  22.552  0.00  0.00    +0.000 C 
ATOM     11  C   UNL     1       0.352  13.189  21.429  0.00  0.00    +0.000 A 
ATOM     12  C   UNL     1       1.082  14.039  20.593  0.00  0.00    +0.000 A 
ATOM     13  C   UNL     1       1.767  13.541  19.480  0.00  0.00    +0.000 A 
ATOM     14 CL   UNL     1       2.682  14.693  18.568  0.00  0.00    +0.000 Cl
ATOM     15  C   UNL     1       1.673  12.185  19.114  0.00  0.00    +0.000 A 
ATOM     16  C   UNL     1       2.400  11.676  17.895  0.00  0.00    +0.000 C 
ATOM     17  C   UNL     1       0.860  11.343  19.917  0.00  0.00    +0.000 A 
ATOM     18  C   UNL     1       0.301  11.818  21.125  0.00  0.00    +0.000 A 
ATOM     19 CL   UNL     1      -0.390  10.754  22.317  0.00  0.00    +0.000 Cl
ENDBRANCH   7  17
ENDBRANCH   1   7
BRANCH   4  20
ATOM     20  C   UNL     1       3.697   5.573  19.535  0.00  0.00    +0.000 C 
BRANCH  20  21
ATOM     21  C   UNL     1       4.267   4.697  18.401  0.00  0.00    +0.000 C 
ATOM     22  O   UNL     1       3.644   3.696  18.034  0.00  0.00    +0.000 OA
ATOM     23  N   UNL     1       5.466   5.077  17.809  0.00  0.00    +0.000 N 
ATOM     24  C   UNL     1       6.343   6.154  18.278  0.00  0.00    +0.000 C 
ATOM     25  C   UNL     1       6.910   6.950  17.098  0.00  0.00    +0.000 C 
ATOM     26  O   UNL     1       7.572   6.087  16.164  0.00  0.00    +0.000 OA
ATOM     27  C   UNL     1       6.648   5.120  15.637  0.00  0.00    +0.000 C 
ATOM     28  C   UNL     1       6.052   4.252  16.752  0.00  0.00    +0.000 C 
ENDBRANCH  20  21
ENDBRANCH   4  20
TORSDOF 4
ENDMDL
MODEL 2
REMARK VINA RESULT:      -6.6      2.969      4.521
REMARK  Name = 
REMARK  6 active torsions:
REMARK  status: ('A' for Active; 'I' for Inactive)
REMARK    1  A    between atoms: C_1  and  C_2
REMARK    2  A    between atoms: C_6  and  C_7
REMARK    3  A    between atoms: C_8  and  S_9
REMARK    4  A    between atoms: S_9  and  N_12
REMARK    5  A    between atoms: N_15  and  C_16
REMARK    6  A    between atoms: C_16  and  C_17
REMARK                            x       y       z     vdW  Elec       q    Type
REMARK                         _______ _______ _______ _____ _____    ______ ____
ROOT
ATOM      1  N   UNL     1      -0.093  10.287  19.252  0.00  0.00    +0.000 NA
ATOM      2  C   UNL     1       0.388   9.904  17.899  0.00  0.00    +0.000 C 
ATOM      3  C   UNL     1       1.842   9.379  17.893  0.00  0.00    +0.000 C 
ATOM      4  N   UNL     1       2.233   8.444  18.973  0.00  0.00    +0.000 NA
ATOM      5  C   UNL     1       1.750   8.959  20.268  0.00  0.00    +0.000 C 
ATOM      6  C   UNL     1       0.260   9.324  20.314  0.00  0.00    +0.000 C 
ENDROOT
BRANCH   1   7
ATOM      7  S   UNL     1      -0.246  11.925  19.649  0.00  0.00    +0.000 S 
ATOM      8  O   UNL     1      -0.276  12.624  18.381  0.00  0.00    +0.000 OA
ATOM      9  O   UNL     1       0.716  12.276  20.673  0.00  0.00    +0.000 OA
BRANCH   7  17
ATOM     10  C   UNL     1      -5.364  12.936  19.165  0.00  0.00    +0.000 C 
ATOM     11  C   UNL     1      -4.222  12.543  20.065  0.00  0.00    +0.000 A 
ATOM     12  C   UNL     1      -4.351  12.742  21.443  0.00  0.00    +0.000 A 
ATOM     13  C   UNL     1      -3.285  12.484  22.310  0.00  0.00    +0.000 A 
ATOM     14 CL   UNL     1      -3.602  12.712  23.997  0.00  0.00    +0.000 Cl
ATOM     15  C   UNL     1      -2.023  12.102  21.820  0.00  0.00    +0.000 A 
ATOM     16  C   UNL     1      -0.881  11.854  22.773  0.00  0.00    +0.000 C 
ATOM     17  C   UNL     1      -1.873  11.985  20.413  0.00  0.00    +0.000 A 
ATOM     18  C   UNL     1      -2.991  12.092  19.557  0.00  0.00    +0.000 A 
ATOM     19 CL   UNL     1      -2.940  11.608  17.886  0.00  0.00    +0.000 Cl
ENDBRANCH   7  17
ENDBRANCH   1   7
BRANCH   4  20
ATOM     20  C   UNL     1       1.788   7.056  18.717  0.00  0.00    +0.000 C 
BRANCH  20  21
ATOM     21  C   UNL     1       2.946   6.215  18.140  0.00  0.00    +0.000 C 
ATOM     22  O   UNL     1       4.055   6.735  17.982  0.00  0.00    +0.000 OA
ATOM     23  N   UNL     1       2.705   4.881  17.830  0.00  0.00    +0.000 N 
ATOM     24  C   UNL     1       1.393   4.228  17.841  0.00  0.00    +0.000 C 
ATOM     25  C   UNL     1       1.491   2.815  18.425  0.00  0.00    +0.000 C 
ATOM     26  O   UNL     1       2.473   2.036  17.729  0.00  0.00    +0.000 OA
ATOM     27  C   UNL     1       3.769   2.648  17.844  0.00  0.00    +0.000 C 
ATOM     28  C   UNL     1       3.772   4.063  17.251  0.00  0.00    +0.000 C 
ENDBRANCH  20  21
ENDBRANCH   4  20
TORSDOF 4
ENDMDL
MODEL 3
REMARK VINA RESULT:      -6.3      2.912      3.938
REMARK  Name = 
REMARK  6 active torsions:
REMARK  status: ('A' for Active; 'I' for Inactive)
REMARK    1  A    between atoms: C_1  and  C_2
REMARK    2  A    between atoms: C_6  and  C_7
REMARK    3  A    between atoms: C_8  and  S_9
REMARK    4  A    between atoms: S_9  and  N_12
REMARK    5  A    between atoms: N_15  and  C_16
REMARK    6  A    between atoms: C_16  and  C_17
REMARK                            x       y       z     vdW  Elec       q    Type
REMARK                         _______ _______ _______ _____ _____    ______ ____
ROOT
ATOM      1  N   UNL     1       0.263   9.943  19.761  0.00  0.00    +0.000 NA
ATOM      2  C   UNL     1       0.889   9.282  18.587  0.00  0.00    +0.000 C 
ATOM      3  C   UNL     1       2.132   8.437  18.951  0.00  0.00    +0.000 C 
ATOM      4  N   UNL     1       2.048   7.590  20.162  0.00  0.00    +0.000 NA
ATOM      5  C   UNL     1       1.465   8.371  21.270  0.00  0.00    +0.000 C 
ATOM      6  C   UNL     1       0.139   9.075  20.949  0.00  0.00    +0.000 C 
ENDROOT
BRANCH   1   7
ATOM      7  S   UNL     1       0.459  11.610  19.982  0.00  0.00    +0.000 S 
ATOM      8  O   UNL     1       1.024  12.095  18.740  0.00  0.00    +0.000 OA
ATOM      9  O   UNL     1       1.108  11.867  21.250  0.00  0.00    +0.000 OA
BRANCH   7  17
ATOM     10  C   UNL     1      -3.535  12.930  23.107  0.00  0.00    +0.000 C 
ATOM     11  C   UNL     1      -3.032  12.711  21.704  0.00  0.00    +0.000 A 
ATOM     12  C   UNL     1      -3.960  12.458  20.688  0.00  0.00    +0.000 A 
ATOM     13  C   UNL     1      -3.540  12.154  19.389  0.00  0.00    +0.000 A 
ATOM     14 CL   UNL     1      -4.792  11.926  18.216  0.00  0.00    +0.000 Cl
ATOM     15  C   UNL     1      -2.175  12.005  19.081  0.00  0.00    +0.000 A 
ATOM     16  C   UNL     1      -1.747  11.651  17.679  0.00  0.00    +0.000 C 
ATOM     17  C   UNL     1      -1.240  12.179  20.136  0.00  0.00    +0.000 A 
ATOM     18  C   UNL     1      -1.661  12.640  21.404  0.00  0.00    +0.000 A 
ATOM     19 CL   UNL     1      -0.543  13.211  22.609  0.00  0.00    +0.000 Cl
ENDBRANCH   7  17
ENDBRANCH   1   7
BRANCH   4  20
ATOM     20  C   UNL     1       1.323   6.322  19.925  0.00  0.00    +0.000 C 
BRANCH  20  21
ATOM     21  C   UNL     1       2.176   5.119  20.379  0.00  0.00    +0.000 C 
ATOM     22  O   UNL     1       2.261   4.853  21.582  0.00  0.00    +0.000 OA
ATOM     23  N   UNL     1       2.812   4.354  19.407  0.00  0.00    +0.000 N 
ATOM     24  C   UNL     1       2.890   4.682  17.981  0.00  0.00    +0.000 C 
ATOM     25  C   UNL     1       2.708   3.428  17.120  0.00  0.00    +0.000 C 
ATOM     26  O   UNL     1       3.648   2.409  17.489  0.00  0.00    +0.000 OA
ATOM     27  C   UNL     1       3.458   2.029  18.863  0.00  0.00    +0.000 C 
ATOM     28  C   UNL     1       3.653   3.225  19.804  0.00  0.00    +0.000 C 
ENDBRANCH  20  21
ENDBRANCH   4  20
TORSDOF 4
ENDMDL
MODEL 4
REMARK VINA RESULT:      -6.3      3.018      4.237
REMARK  Name = 
REMARK  6 active torsions:
REMARK  status: ('A' for Active; 'I' for Inactive)
REMARK    1  A    between atoms: C_1  and  C_2
REMARK    2  A    between atoms: C_6  and  C_7
REMARK    3  A    between atoms: C_8  and  S_9
REMARK    4  A    between atoms: S_9  and  N_12
REMARK    5  A    between atoms: N_15  and  C_16
REMARK    6  A    between atoms: C_16  and  C_17
REMARK                            x       y       z     vdW  Elec       q    Type
REMARK                         _______ _______ _______ _____ _____    ______ ____
ROOT
ATOM      1  N   UNL     1      -0.355  10.472  19.378  0.00  0.00    +0.000 NA
ATOM      2  C   UNL     1       0.207  10.119  18.048  0.00  0.00    +0.000 C 
ATOM      3  C   UNL     1       1.661   9.598  18.118  0.00  0.00    +0.000 C 
ATOM      4  N   UNL     1       1.991   8.642  19.199  0.00  0.00    +0.000 NA
ATOM      5  C   UNL     1       1.430   9.128  20.474  0.00  0.00    +0.000 C 
ATOM      6  C   UNL     1      -0.062   9.488  20.439  0.00  0.00    +0.000 C 
ENDROOT
BRANCH   1   7
ATOM      7  S   UNL     1      -0.538  12.101  19.800  0.00  0.00    +0.000 S 
ATOM      8  O   UNL     1      -0.580  12.818  18.543  0.00  0.00    +0.000 OA
ATOM      9  O   UNL     1       0.417  12.454  20.830  0.00  0.00    +0.000 OA
BRANCH   7  17
ATOM     10  C   UNL     1      -5.681  12.976  19.313  0.00  0.00    +0.000 C 
ATOM     11  C   UNL     1      -4.529  12.615  20.213  0.00  0.00    +0.000 A 
ATOM     12  C   UNL     1      -4.664  12.813  21.591  0.00  0.00    +0.000 A 
ATOM     13  C   UNL     1      -3.591  12.585  22.459  0.00  0.00    +0.000 A 
ATOM     14 CL   UNL     1      -3.914  12.807  24.146  0.00  0.00    +0.000 Cl
ATOM     15  C   UNL     1      -2.320  12.235  21.970  0.00  0.00    +0.000 A 
ATOM     16  C   UNL     1      -1.171  12.019  22.924  0.00  0.00    +0.000 C 
ATOM     17  C   UNL     1      -2.166  12.119  20.563  0.00  0.00    +0.000 A 
ATOM     18  C   UNL     1      -3.287  12.196  19.707  0.00  0.00    +0.000 A 
ATOM     19 CL   UNL     1      -3.222  11.709  18.037  0.00  0.00    +0.000 Cl
ENDBRANCH   7  17
ENDBRANCH   1   7
BRANCH   4  20
ATOM     20  C   UNL     1       1.568   7.259  18.888  0.00  0.00    +0.000 C 
BRANCH  20  21
ATOM     21  C   UNL     1       2.573   6.242  19.470  0.00  0.00    +0.000 C 
ATOM     22  O   UNL     1       2.306   5.660  20.526  0.00  0.00    +0.000 OA
ATOM     23  N   UNL     1       3.749   5.999  18.770  0.00  0.00    +0.000 N 
ATOM     24  C   UNL     1       4.214   6.748  17.599  0.00  0.00    +0.000 C 
ATOM     25  C   UNL     1       4.827   5.808  16.557  0.00  0.00    +0.000 C 
ATOM     26  O   UNL     1       5.870   5.009  17.132  0.00  0.00    +0.000 OA
ATOM     27  C   UNL     1       5.347   4.199  18.199  0.00  0.00    +0.000 C 
ATOM     28  C   UNL     1       4.738   5.065  19.309  0.00  0.00    +0.000 C 
ENDBRANCH  20  21
ENDBRANCH   4  20
TORSDOF 4
ENDMDL
MODEL 5
REMARK VINA RESULT:      -6.2      3.204      4.732
REMARK  Name = 
REMARK  6 active torsions:
REMARK  status: ('A' for Active; 'I' for Inactive)
REMARK    1  A    between atoms: C_1  and  C_2
REMARK    2  A    between atoms: C_6  and  C_7
REMARK    3  A    between atoms: C_8  and  S_9
REMARK    4  A    between atoms: S_9  and  N_12
REMARK    5  A    between atoms: N_15  and  C_16
REMARK    6  A    between atoms: C_16  and  C_17
REMARK                            x       y       z     vdW  Elec       q    Type
REMARK                         _______ _______ _______ _____ _____    ______ ____
ROOT
ATOM      1  N   UNL     1      -0.082  11.395  19.674  0.00  0.00    +0.000 NA
ATOM      2  C   UNL     1      -0.680  10.080  19.327  0.00  0.00    +0.000 C 
ATOM      3  C   UNL     1      -0.044   9.431  18.076  0.00  0.00    +0.000 C 
ATOM      4  N   UNL     1       1.431   9.489  17.955  0.00  0.00    +0.000 NA
ATOM      5  C   UNL     1       1.898  10.853  18.268  0.00  0.00    +0.000 C 
ATOM      6  C   UNL     1       1.392  11.429  19.598  0.00  0.00    +0.000 C 
ENDROOT
BRANCH   1   7
ATOM      7  S   UNL     1      -0.951  12.814  19.364  0.00  0.00    +0.000 S 
ATOM      8  O   UNL     1      -1.244  12.780  17.946  0.00  0.00    +0.000 OA
ATOM      9  O   UNL     1      -0.275  13.947  19.960  0.00  0.00    +0.000 OA
BRANCH   7  17
ATOM     10  C   UNL     1      -6.186  12.576  19.408  0.00  0.00    +0.000 C 
ATOM     11  C   UNL     1      -4.900  12.525  20.192  0.00  0.00    +0.000 A 
ATOM     12  C   UNL     1      -4.938  12.787  21.565  0.00  0.00    +0.000 A 
ATOM     13  C   UNL     1      -3.762  12.846  22.319  0.00  0.00    +0.000 A 
ATOM     14 CL   UNL     1      -3.957  13.116  24.018  0.00  0.00    +0.000 Cl
ATOM     15  C   UNL     1      -2.499  12.731  21.709  0.00  0.00    +0.000 A 
ATOM     16  C   UNL     1      -1.243  12.824  22.539  0.00  0.00    +0.000 C 
ATOM     17  C   UNL     1      -2.463  12.551  20.301  0.00  0.00    +0.000 A 
ATOM     18  C   UNL     1      -3.654  12.335  19.571  0.00  0.00    +0.000 A 
ATOM     19 CL   UNL     1      -3.652  11.756  17.930  0.00  0.00    +0.000 Cl
ENDBRANCH   7  17
ENDBRANCH   1   7
BRANCH   4  20
ATOM     20  C   UNL     1       2.113   8.459  18.769  0.00  0.00    +0.000 C 
BRANCH  20  21
ATOM     21  C   UNL     1       2.951   7.526  17.870  0.00  0.00    +0.000 C 
ATOM     22  O   UNL     1       3.504   7.985  16.865  0.00  0.00    +0.000 OA
ATOM     23  N   UNL     1       3.073   6.189  18.233  0.00  0.00    +0.000 N 
ATOM     24  C   UNL     1       2.335   5.530  19.315  0.00  0.00    +0.000 C 
ATOM     25  C   UNL     1       3.241   4.566  20.087  0.00  0.00    +0.000 C 
ATOM     26  O   UNL     1       3.859   3.620  19.203  0.00  0.00    +0.000 OA
ATOM     27  C   UNL     1       4.671   4.301  18.232  0.00  0.00    +0.000 C 
ATOM     28  C   UNL     1       3.834   5.270  17.387  0.00  0.00    +0.000 C 
ENDBRANCH  20  21
ENDBRANCH   4  20
TORSDOF 4
ENDMDL
MODEL 6
REMARK VINA RESULT:      -6.2      3.430      5.265
REMARK  Name = 
REMARK  6 active torsions:
REMARK  status: ('A' for Active; 'I' for Inactive)
REMARK    1  A    between atoms: C_1  and  C_2
REMARK    2  A    between atoms: C_6  and  C_7
REMARK    3  A    between atoms: C_8  and  S_9
REMARK    4  A    between atoms: S_9  and  N_12
REMARK    5  A    between atoms: N_15  and  C_16
REMARK    6  A    between atoms: C_16  and  C_17
REMARK                            x       y       z     vdW  Elec       q    Type
REMARK                         _______ _______ _______ _____ _____    ______ ____
ROOT
ATOM      1  N   UNL     1      -0.727  10.473  20.495  0.00  0.00    +0.000 NA
ATOM      2  C   UNL     1      -0.252   9.823  19.246  0.00  0.00    +0.000 C 
ATOM      3  C   UNL     1       1.222   9.365  19.318  0.00  0.00    +0.000 C 
ATOM      4  N   UNL     1       1.669   8.702  20.565  0.00  0.00    +0.000 NA
ATOM      5  C   UNL     1       1.185   9.468  21.730  0.00  0.00    +0.000 C 
ATOM      6  C   UNL     1      -0.318   9.778  21.732  0.00  0.00    +0.000 C 
ENDROOT
BRANCH   1   7
ATOM      7  S   UNL     1      -0.943  12.152  20.531  0.00  0.00    +0.000 S 
ATOM      8  O   UNL     1      -0.703  12.597  19.175  0.00  0.00    +0.000 OA
ATOM      9  O   UNL     1      -0.211  12.719  21.645  0.00  0.00    +0.000 OA
BRANCH   7  17
ATOM     10  C   UNL     1      -5.814  13.109  18.854  0.00  0.00    +0.000 C 
ATOM     11  C   UNL     1      -4.899  12.824  20.016  0.00  0.00    +0.000 A 
ATOM     12  C   UNL     1      -5.310  13.186  21.303  0.00  0.00    +0.000 A 
ATOM     13  C   UNL     1      -4.459  13.031  22.401  0.00  0.00    +0.000 A 
ATOM     14 CL   UNL     1      -5.118  13.459  23.944  0.00  0.00    +0.000 Cl
ATOM     15  C   UNL     1      -3.133  12.590  22.239  0.00  0.00    +0.000 A 
ATOM     16  C   UNL     1      -2.225  12.455  23.436  0.00  0.00    +0.000 C 
ATOM     17  C   UNL     1      -2.692  12.306  20.919  0.00  0.00    +0.000 A 
ATOM     18  C   UNL     1      -3.602  12.313  19.838  0.00  0.00    +0.000 A 
ATOM     19 CL   UNL     1      -3.212  11.633  18.284  0.00  0.00    +0.000 Cl
ENDBRANCH   7  17
ENDBRANCH   1   7
BRANCH   4  20
ATOM     20  C   UNL     1       1.279   7.277  20.627  0.00  0.00    +0.000 C 
BRANCH  20  21
ATOM     21  C   UNL     1       2.289   6.406  19.850  0.00  0.00    +0.000 C 
ATOM     22  O   UNL     1       3.220   6.947  19.245  0.00  0.00    +0.000 OA
ATOM     23  N   UNL     1       2.127   5.025  19.871  0.00  0.00    +0.000 N 
ATOM     24  C   UNL     1       0.975   4.312  20.430  0.00  0.00    +0.000 C 
ATOM     25  C   UNL     1       1.423   3.054  21.181  0.00  0.00    +0.000 C 
ATOM     26  O   UNL     1       2.222   2.209  20.342  0.00  0.00    +0.000 OA
ATOM     27  C   UNL     1       3.403   2.907  19.912  0.00  0.00    +0.000 C 
ATOM     28  C   UNL     1       3.047   4.171  19.120  0.00  0.00    +0.000 C 
ENDBRANCH  20  21
ENDBRANCH   4  20
TORSDOF 4
ENDMDL
MODEL 7
REMARK VINA RESULT:      -6.2      7.191     10.831
REMARK  Name = 
REMARK  6 active torsions:
REMARK  status: ('A' for Active; 'I' for Inactive)
REMARK    1  A    between atoms: C_1  and  C_2
REMARK    2  A    between atoms: C_6  and  C_7
REMARK    3  A    between atoms: C_8  and  S_9
REMARK    4  A    between atoms: S_9  and  N_12
REMARK    5  A    between atoms: N_15  and  C_16
REMARK    6  A    between atoms: C_16  and  C_17
REMARK                            x       y       z     vdW  Elec       q    Type
REMARK                         _______ _______ _______ _____ _____    ______ ____
ROOT
ATOM      1  N   UNL     1       9.089  15.265  18.026  0.00  0.00    +0.000 NA
ATOM      2  C   UNL     1       7.938  14.342  18.200  0.00  0.00    +0.000 C 
ATOM      3  C   UNL     1       7.038  14.707  19.403  0.00  0.00    +0.000 C 
ATOM      4  N   UNL     1       6.716  16.138  19.603  0.00  0.00    +0.000 NA
ATOM      5  C   UNL     1       7.944  16.944  19.462  0.00  0.00    +0.000 C 
ATOM      6  C   UNL     1       8.749  16.693  18.179  0.00  0.00    +0.000 C 
ENDROOT
BRANCH   1   7
ATOM      7  S   UNL     1      10.645  14.745  18.445  0.00  0.00    +0.000 S 
ATOM      8  O   UNL     1      11.227  15.842  19.189  0.00  0.00    +0.000 OA
ATOM      9  O   UNL     1      11.310  14.195  17.282  0.00  0.00    +0.000 OA
BRANCH   7  17
ATOM     10  C   UNL     1       9.155   9.757  19.043  0.00  0.00    +0.000 C 
ATOM     11  C   UNL     1       9.545  11.058  19.694  0.00  0.00    +0.000 A 
ATOM     12  C   UNL     1       9.149  11.295  21.014  0.00  0.00    +0.000 A 
ATOM     13  C   UNL     1       9.403  12.524  21.632  0.00  0.00    +0.000 A 
ATOM     14 CL   UNL     1       8.916  12.661  23.288  0.00  0.00    +0.000 Cl
ATOM     15  C   UNL     1       9.983  13.590  20.921  0.00  0.00    +0.000 A 
ATOM     16  C   UNL     1      10.224  14.915  21.601  0.00  0.00    +0.000 C 
ATOM     17  C   UNL     1      10.305  13.372  19.555  0.00  0.00    +0.000 A 
ATOM     18  C   UNL     1      10.192  12.084  18.985  0.00  0.00    +0.000 A 
ATOM     19 CL   UNL     1      10.901  11.677  17.449  0.00  0.00    +0.000 Cl
ENDBRANCH   7  17
ENDBRANCH   1   7
BRANCH   4  20
ATOM     20  C   UNL     1       5.629  16.609  18.717  0.00  0.00    +0.000 C 
BRANCH  20  21
ATOM     21  C   UNL     1       4.373  16.959  19.542  0.00  0.00    +0.000 C 
ATOM     22  O   UNL     1       4.289  18.067  20.083  0.00  0.00    +0.000 OA
ATOM     23  N   UNL     1       3.357  16.014  19.637  0.00  0.00    +0.000 N 
ATOM     24  C   UNL     1       3.435  14.630  19.160  0.00  0.00    +0.000 C 
ATOM     25  C   UNL     1       2.118  14.203  18.505  0.00  0.00    +0.000 C 
ATOM     26  O   UNL     1       1.011  14.403  19.394  0.00  0.00    +0.000 OA
ATOM     27  C   UNL     1       0.896  15.793  19.742  0.00  0.00    +0.000 C 
ATOM     28  C   UNL     1       2.166  16.301  20.437  0.00  0.00    +0.000 C 
ENDBRANCH  20  21
ENDBRANCH   4  20
TORSDOF 4
ENDMDL
MODEL 8
REMARK VINA RESULT:      -6.2      2.915      4.221
REMARK  Name = 
REMARK  6 active torsions:
REMARK  status: ('A' for Active; 'I' for Inactive)
REMARK    1  A    between atoms: C_1  and  C_2
REMARK    2  A    between atoms: C_6  and  C_7
REMARK    3  A    between atoms: C_8  and  S_9
REMARK    4  A    between atoms: S_9  and  N_12
REMARK    5  A    between atoms: N_15  and  C_16
REMARK    6  A    between atoms: C_16  and  C_17
REMARK                            x       y       z     vdW  Elec       q    Type
REMARK                         _______ _______ _______ _____ _____    ______ ____
ROOT
ATOM      1  N   UNL     1       0.333  10.053  19.528  0.00  0.00    +0.000 NA
ATOM      2  C   UNL     1       0.832   9.712  18.170  0.00  0.00    +0.000 C 
ATOM      3  C   UNL     1       2.140   8.888  18.189  0.00  0.00    +0.000 C 
ATOM      4  N   UNL     1       2.237   7.787  19.175  0.00  0.00    +0.000 NA
ATOM      5  C   UNL     1       1.768   8.262  20.491  0.00  0.00    +0.000 C 
ATOM      6  C   UNL     1       0.388   8.935  20.491  0.00  0.00    +0.000 C 
ENDROOT
BRANCH   1   7
ATOM      7  S   UNL     1       0.494  11.637  20.102  0.00  0.00    +0.000 S 
ATOM      8  O   UNL     1       1.161  12.362  19.041  0.00  0.00    +0.000 OA
ATOM      9  O   UNL     1       1.028  11.622  21.447  0.00  0.00    +0.000 OA
BRANCH   7  17
ATOM     10  C   UNL     1      -3.609  12.816  23.141  0.00  0.00    +0.000 C 
ATOM     11  C   UNL     1      -3.062  12.643  21.748  0.00  0.00    +0.000 A 
ATOM     12  C   UNL     1      -3.955  12.405  20.699  0.00  0.00    +0.000 A 
ATOM     13  C   UNL     1      -3.493  12.142  19.405  0.00  0.00    +0.000 A 
ATOM     14 CL   UNL     1      -4.707  11.928  18.190  0.00  0.00    +0.000 Cl
ATOM     15  C   UNL     1      -2.118  12.021  19.134  0.00  0.00    +0.000 A 
ATOM     16  C   UNL     1      -1.643  11.711  17.736  0.00  0.00    +0.000 C 
ATOM     17  C   UNL     1      -1.217  12.178  20.221  0.00  0.00    +0.000 A 
ATOM     18  C   UNL     1      -1.682  12.598  21.487  0.00  0.00    +0.000 A 
ATOM     19 CL   UNL     1      -0.608  13.151  22.740  0.00  0.00    +0.000 Cl
ENDBRANCH   7  17
ENDBRANCH   1   7
BRANCH   4  20
ATOM     20  C   UNL     1       1.535   6.562  18.735  0.00  0.00    +0.000 C 
BRANCH  20  21
ATOM     21  C   UNL     1       2.542   5.418  18.495  0.00  0.00    +0.000 C 
ATOM     22  O   UNL     1       3.366   5.514  17.581  0.00  0.00    +0.000 OA
ATOM     23  N   UNL     1       2.501   4.312  19.337  0.00  0.00    +0.000 N 
ATOM     24  C   UNL     1       1.469   4.046  20.343  0.00  0.00    +0.000 C 
ATOM     25  C   UNL     1       2.087   3.479  21.625  0.00  0.00    +0.000 C 
ATOM     26  O   UNL     1       2.879   2.316  21.346  0.00  0.00    +0.000 OA
ATOM     27  C   UNL     1       3.953   2.647  20.450  0.00  0.00    +0.000 C 
ATOM     28  C   UNL     1       3.421   3.195  19.120  0.00  0.00    +0.000 C 
ENDBRANCH  20  21
ENDBRANCH   4  20
TORSDOF 4
ENDMDL
MODEL 9
REMARK VINA RESULT:      -6.2      3.645      5.150
REMARK  Name = 
REMARK  6 active torsions:
REMARK  status: ('A' for Active; 'I' for Inactive)
REMARK    1  A    between atoms: C_1  and  C_2
REMARK    2  A    between atoms: C_6  and  C_7
REMARK    3  A    between atoms: C_8  and  S_9
REMARK    4  A    between atoms: S_9  and  N_12
REMARK    5  A    between atoms: N_15  and  C_16
REMARK    6  A    between atoms: C_16  and  C_17
REMARK                            x       y       z     vdW  Elec       q    Type
REMARK                         _______ _______ _______ _____ _____    ______ ____
ROOT
ATOM      1  N   UNL     1      -0.917  10.598  19.281  0.00  0.00    +0.000 NA
ATOM      2  C   UNL     1      -0.394   9.909  18.072  0.00  0.00    +0.000 C 
ATOM      3  C   UNL     1       1.133   9.668  18.118  0.00  0.00    +0.000 C 
ATOM      4  N   UNL     1       1.709   9.191  19.396  0.00  0.00    +0.000 NA
ATOM      5  C   UNL     1       1.158   9.986  20.511  0.00  0.00    +0.000 C 
ATOM      6  C   UNL     1      -0.373  10.083  20.553  0.00  0.00    +0.000 C 
ENDROOT
BRANCH   1   7
ATOM      7  S   UNL     1      -1.368  12.226  19.182  0.00  0.00    +0.000 S 
ATOM      8  O   UNL     1      -1.274  12.563  17.777  0.00  0.00    +0.000 OA
ATOM      9  O   UNL     1      -0.660  12.995  20.184  0.00  0.00    +0.000 OA
BRANCH   7  17
ATOM     10  C   UNL     1      -6.416  12.260  17.777  0.00  0.00    +0.000 C 
ATOM     11  C   UNL     1      -5.403  12.257  18.891  0.00  0.00    +0.000 A 
ATOM     12  C   UNL     1      -5.790  12.716  20.155  0.00  0.00    +0.000 A 
ATOM     13  C   UNL     1      -4.863  12.824  21.197  0.00  0.00    +0.000 A 
ATOM     14 CL   UNL     1      -5.490  13.344  22.724  0.00  0.00    +0.000 Cl
ATOM     15  C   UNL     1      -3.497  12.559  20.987  0.00  0.00    +0.000 A 
ATOM     16  C   UNL     1      -2.512  12.707  22.119  0.00  0.00    +0.000 C 
ATOM     17  C   UNL     1      -3.095  12.177  19.680  0.00  0.00    +0.000 A 
ATOM     18  C   UNL     1      -4.056  11.918  18.677  0.00  0.00    +0.000 A 
ATOM     19 CL   UNL     1      -3.658  11.109  17.188  0.00  0.00    +0.000 Cl
ENDBRANCH   7  17
ENDBRANCH   1   7
BRANCH   4  20
ATOM     20  C   UNL     1       1.528   7.737  19.598  0.00  0.00    +0.000 C 
BRANCH  20  21
ATOM     21  C   UNL     1       2.615   6.947  18.840  0.00  0.00    +0.000 C 
ATOM     22  O   UNL     1       3.353   7.537  18.045  0.00  0.00    +0.000 OA
ATOM     23  N   UNL     1       2.743   5.586  19.093  0.00  0.00    +0.000 N 
ATOM     24  C   UNL     1       1.821   4.780  19.899  0.00  0.00    +0.000 C 
ATOM     25  C   UNL     1       2.587   3.779  20.769  0.00  0.00    +0.000 C 
ATOM     26  O   UNL     1       3.458   2.964  19.973  0.00  0.00    +0.000 OA
ATOM     27  C   UNL     1       4.424   3.783  19.293  0.00  0.00    +0.000 C 
ATOM     28  C   UNL     1       3.742   4.800  18.369  0.00  0.00    +0.000 C 
ENDBRANCH  20  21
ENDBRANCH   4  20
TORSDOF 4
ENDMDL
