MODEL 1
REMARK VINA RESULT:      -7.4      0.000      0.000
REMARK  Name = 
REMARK  4 active torsions:
REMARK  status: ('A' for Active; 'I' for Inactive)
REMARK    1  A    between atoms: C_1  and  N_2
REMARK    2  A    between atoms: C_6  and  C_7
REMARK    3  A    between atoms: C_17  and  C_18
REMARK    4  A    between atoms: C_17  and  C_19
REMARK                            x       y       z     vdW  Elec       q    Type
REMARK                         _______ _______ _______ _____ _____    ______ ____
ROOT
ATOM      1  C   UNL     1       2.798   8.837  17.594  0.00  0.00    +0.000 C 
ATOM      2  N   UNL     1       2.973   7.638  18.412  0.00  0.00    +0.000 N 
ATOM      3  C   UNL     1       2.174   7.549  19.548  0.00  0.00    +0.000 C 
ATOM      4  O   UNL     1       1.298   8.356  19.854  0.00  0.00    +0.000 OA
ATOM      5  N   UNL     1       2.406   6.494  20.372  0.00  0.00    +0.000 N 
ATOM      6  C   UNL     1       3.159   5.313  20.017  0.00  0.00    +0.000 C 
ATOM      7  C   UNL     1       4.129   5.639  18.917  0.00  0.00    +0.000 C 
ATOM      8  C   UNL     1       3.995   6.716  18.129  0.00  0.00    +0.000 C 
ATOM      9  C   UNL     1       4.876   6.976  16.936  0.00  0.00    +0.000 C 
ATOM     10  C   UNL     1       5.987   5.954  16.578  0.00  0.00    +0.000 C 
ATOM     11  C   UNL     1       5.667   5.329  15.199  0.00  0.00    +0.000 C 
ATOM     12  C   UNL     1       7.318   6.729  16.436  0.00  0.00    +0.000 C 
ATOM     13  C   UNL     1       6.199   4.812  17.586  0.00  0.00    +0.000 C 
ATOM     14  C   UNL     1       5.252   4.694  18.747  0.00  0.00    +0.000 C 
ATOM     15  O   UNL     1       5.430   3.801  19.577  0.00  0.00    +0.000 OA
ATOM     16  H   UNL     1       1.773   6.438  21.158  0.00  0.00    +0.000 HD
ENDROOT
BRANCH   6  17
ATOM     17  C   UNL     1       2.209   4.186  19.624  0.00  0.00    +0.000 A 
ATOM     18  C   UNL     1       1.730   4.112  18.295  0.00  0.00    +0.000 A 
ATOM     19  C   UNL     1       0.909   3.070  17.869  0.00  0.00    +0.000 A 
ATOM     20  C   UNL     1       0.552   2.065  18.759  0.00  0.00    +0.000 A 
ATOM     21  C   UNL     1       0.996   2.121  20.079  0.00  0.00    +0.000 A 
ATOM     22  C   UNL     1       1.805   3.179  20.516  0.00  0.00    +0.000 A 
ATOM     23 CL   UNL     1       2.238   3.183  22.189  0.00  0.00    +0.000 Cl
ENDBRANCH   6  17
TORSDOF 1
ENDMDL
MODEL 2
REMARK VINA RESULT:      -7.3      2.339      5.275
REMARK  Name = 
REMARK  4 active torsions:
REMARK  status: ('A' for Active; 'I' for Inactive)
REMARK    1  A    between atoms: C_1  and  N_2
REMARK    2  A    between atoms: C_6  and  C_7
REMARK    3  A    between atoms: C_17  and  C_18
REMARK    4  A    between atoms: C_17  and  C_19
REMARK                            x       y       z     vdW  Elec       q    Type
REMARK                         _______ _______ _______ _____ _____    ______ ____
ROOT
ATOM      1  C   UNL     1       1.699   7.697  20.014  0.00  0.00    +0.000 C 
ATOM      2  N   UNL     1       2.471   6.891  19.070  0.00  0.00    +0.000 N 
ATOM      3  C   UNL     1       3.090   7.585  18.034  0.00  0.00    +0.000 C 
ATOM      4  O   UNL     1       3.092   8.808  17.913  0.00  0.00    +0.000 OA
ATOM      5  N   UNL     1       3.717   6.834  17.091  0.00  0.00    +0.000 N 
ATOM      6  C   UNL     1       4.073   5.442  17.240  0.00  0.00    +0.000 C 
ATOM      7  C   UNL     1       3.165   4.788  18.242  0.00  0.00    +0.000 C 
ATOM      8  C   UNL     1       2.454   5.488  19.141  0.00  0.00    +0.000 C 
ATOM      9  C   UNL     1       1.654   4.841  20.240  0.00  0.00    +0.000 C 
ATOM     10  C   UNL     1       1.650   3.294  20.364  0.00  0.00    +0.000 C 
ATOM     11  C   UNL     1       2.312   2.898  21.705  0.00  0.00    +0.000 C 
ATOM     12  C   UNL     1       0.178   2.826  20.419  0.00  0.00    +0.000 C 
ATOM     13  C   UNL     1       2.358   2.528  19.234  0.00  0.00    +0.000 C 
ATOM     14  C   UNL     1       3.099   3.314  18.187  0.00  0.00    +0.000 C 
ATOM     15  O   UNL     1       3.643   2.712  17.261  0.00  0.00    +0.000 OA
ATOM     16  H   UNL     1       4.196   7.376  16.385  0.00  0.00    +0.000 HD
ENDROOT
BRANCH   6  17
ATOM     17  C   UNL     1       5.541   5.317  17.634  0.00  0.00    +0.000 A 
ATOM     18  C   UNL     1       5.972   5.823  18.883  0.00  0.00    +0.000 A 
ATOM     19  C   UNL     1       7.288   5.681  19.317  0.00  0.00    +0.000 A 
ATOM     20  C   UNL     1       8.211   5.018  18.517  0.00  0.00    +0.000 A 
ATOM     21  C   UNL     1       7.818   4.523  17.275  0.00  0.00    +0.000 A 
ATOM     22  C   UNL     1       6.500   4.682  16.826  0.00  0.00    +0.000 A 
ATOM     23 CL   UNL     1       6.144   4.092  15.242  0.00  0.00    +0.000 Cl
ENDBRANCH   6  17
TORSDOF 1
ENDMDL
MODEL 3
REMARK VINA RESULT:      -6.4      2.703      4.495
REMARK  Name = 
REMARK  4 active torsions:
REMARK  status: ('A' for Active; 'I' for Inactive)
REMARK    1  A    between atoms: C_1  and  N_2
REMARK    2  A    between atoms: C_6  and  C_7
REMARK    3  A    between atoms: C_17  and  C_18
REMARK    4  A    between atoms: C_17  and  C_19
REMARK                            x       y       z     vdW  Elec       q    Type
REMARK                         _______ _______ _______ _____ _____    ______ ____
ROOT
ATOM      1  C   UNL     1       3.685   2.080  19.145  0.00  0.00    +0.000 C 
ATOM      2  N   UNL     1       3.257   3.402  18.690  0.00  0.00    +0.000 N 
ATOM      3  C   UNL     1       1.895   3.557  18.453  0.00  0.00    +0.000 C 
ATOM      4  O   UNL     1       1.043   2.699  18.672  0.00  0.00    +0.000 OA
ATOM      5  N   UNL     1       1.503   4.746  17.926  0.00  0.00    +0.000 N 
ATOM      6  C   UNL     1       2.305   5.948  17.900  0.00  0.00    +0.000 C 
ATOM      7  C   UNL     1       3.763   5.589  17.948  0.00  0.00    +0.000 C 
ATOM      8  C   UNL     1       4.201   4.395  18.378  0.00  0.00    +0.000 C 
ATOM      9  C   UNL     1       5.660   4.075  18.566  0.00  0.00    +0.000 C 
ATOM     10  C   UNL     1       6.720   5.167  18.267  0.00  0.00    +0.000 C 
ATOM     11  C   UNL     1       7.453   5.527  19.581  0.00  0.00    +0.000 C 
ATOM     12  C   UNL     1       7.768   4.561  17.305  0.00  0.00    +0.000 C 
ATOM     13  C   UNL     1       6.187   6.467  17.642  0.00  0.00    +0.000 C 
ATOM     14  C   UNL     1       4.700   6.636  17.493  0.00  0.00    +0.000 C 
ATOM     15  O   UNL     1       4.263   7.660  16.967  0.00  0.00    +0.000 OA
ATOM     16  H   UNL     1       0.503   4.838  17.815  0.00  0.00    +0.000 HD
ENDROOT
BRANCH   6  17
ATOM     17  C   UNL     1       1.906   6.867  19.050  0.00  0.00    +0.000 A 
ATOM     18  C   UNL     1       1.841   6.349  20.364  0.00  0.00    +0.000 A 
ATOM     19  C   UNL     1       1.541   7.159  21.458  0.00  0.00    +0.000 A 
ATOM     20  C   UNL     1       1.307   8.515  21.268  0.00  0.00    +0.000 A 
ATOM     21  C   UNL     1       1.347   9.050  19.982  0.00  0.00    +0.000 A 
ATOM     22  C   UNL     1       1.629   8.234  18.877  0.00  0.00    +0.000 A 
ATOM     23 CL   UNL     1       1.584   8.990  17.325  0.00  0.00    +0.000 Cl
ENDBRANCH   6  17
TORSDOF 1
ENDMDL
MODEL 4
REMARK VINA RESULT:      -6.1      7.265      9.356
REMARK  Name = 
REMARK  4 active torsions:
REMARK  status: ('A' for Active; 'I' for Inactive)
REMARK    1  A    between atoms: C_1  and  N_2
REMARK    2  A    between atoms: C_6  and  C_7
REMARK    3  A    between atoms: C_17  and  C_18
REMARK    4  A    between atoms: C_17  and  C_19
REMARK                            x       y       z     vdW  Elec       q    Type
REMARK                         _______ _______ _______ _____ _____    ______ ____
ROOT
ATOM      1  C   UNL     1      -1.375  13.876  23.451  0.00  0.00    +0.000 C 
ATOM      2  N   UNL     1      -0.823  13.179  22.291  0.00  0.00    +0.000 N 
ATOM      3  C   UNL     1      -0.683  11.800  22.414  0.00  0.00    +0.000 C 
ATOM      4  O   UNL     1      -1.058  11.141  23.381  0.00  0.00    +0.000 OA
ATOM      5  N   UNL     1      -0.070  11.158  21.385  0.00  0.00    +0.000 N 
ATOM      6  C   UNL     1       0.145  11.715  20.069  0.00  0.00    +0.000 C 
ATOM      7  C   UNL     1       0.180  13.215  20.150  0.00  0.00    +0.000 C 
ATOM      8  C   UNL     1      -0.334  13.897  21.186  0.00  0.00    +0.000 C 
ATOM      9  C   UNL     1      -0.434  15.399  21.213  0.00  0.00    +0.000 C 
ATOM     10  C   UNL     1       0.062  16.213  19.989  0.00  0.00    +0.000 C 
ATOM     11  C   UNL     1      -1.143  16.943  19.351  0.00  0.00    +0.000 C 
ATOM     12  C   UNL     1       1.039  17.295  20.503  0.00  0.00    +0.000 C 
ATOM     13  C   UNL     1       0.772  15.406  18.889  0.00  0.00    +0.000 C 
ATOM     14  C   UNL     1       0.816  13.907  19.011  0.00  0.00    +0.000 C 
ATOM     15  O   UNL     1       1.407  13.254  18.151  0.00  0.00    +0.000 OA
ATOM     16  H   UNL     1      -0.033  10.154  21.489  0.00  0.00    +0.000 HD
ENDROOT
BRANCH   6  17
ATOM     17  C   UNL     1      -0.933  11.221  19.110  0.00  0.00    +0.000 A 
ATOM     18  C   UNL     1      -2.236  11.766  19.186  0.00  0.00    +0.000 A 
ATOM     19  C   UNL     1      -3.239  11.394  18.295  0.00  0.00    +0.000 A 
ATOM     20  C   UNL     1      -2.966  10.471  17.293  0.00  0.00    +0.000 A 
ATOM     21  C   UNL     1      -1.695   9.904  17.205  0.00  0.00    +0.000 A 
ATOM     22  C   UNL     1      -0.689  10.262  18.112  0.00  0.00    +0.000 A 
ATOM     23 CL   UNL     1       0.825   9.445  17.951  0.00  0.00    +0.000 Cl
ENDBRANCH   6  17
TORSDOF 1
ENDMDL
MODEL 5
REMARK VINA RESULT:      -6.0      2.198      4.214
REMARK  Name = 
REMARK  4 active torsions:
REMARK  status: ('A' for Active; 'I' for Inactive)
REMARK    1  A    between atoms: C_1  and  N_2
REMARK    2  A    between atoms: C_6  and  C_7
REMARK    3  A    between atoms: C_17  and  C_18
REMARK    4  A    between atoms: C_17  and  C_19
REMARK                            x       y       z     vdW  Elec       q    Type
REMARK                         _______ _______ _______ _____ _____    ______ ____
ROOT
ATOM      1  C   UNL     1       3.752   2.474  19.858  0.00  0.00    +0.000 C 
ATOM      2  N   UNL     1       3.357   3.654  19.090  0.00  0.00    +0.000 N 
ATOM      3  C   UNL     1       2.002   3.767  18.792  0.00  0.00    +0.000 C 
ATOM      4  O   UNL     1       1.131   2.998  19.192  0.00  0.00    +0.000 OA
ATOM      5  N   UNL     1       1.643   4.800  17.987  0.00  0.00    +0.000 N 
ATOM      6  C   UNL     1       2.467   5.948  17.691  0.00  0.00    +0.000 C 
ATOM      7  C   UNL     1       3.917   5.591  17.856  0.00  0.00    +0.000 C 
ATOM      8  C   UNL     1       4.325   4.530  18.570  0.00  0.00    +0.000 C 
ATOM      9  C   UNL     1       5.774   4.244  18.862  0.00  0.00    +0.000 C 
ATOM     10  C   UNL     1       6.860   5.217  18.332  0.00  0.00    +0.000 C 
ATOM     11  C   UNL     1       7.575   5.873  19.538  0.00  0.00    +0.000 C 
ATOM     12  C   UNL     1       7.913   4.383  17.567  0.00  0.00    +0.000 C 
ATOM     13  C   UNL     1       6.362   6.336  17.402  0.00  0.00    +0.000 C 
ATOM     14  C   UNL     1       4.882   6.485  17.184  0.00  0.00    +0.000 C 
ATOM     15  O   UNL     1       4.475   7.359  16.417  0.00  0.00    +0.000 OA
ATOM     16  H   UNL     1       0.646   4.876  17.835  0.00  0.00    +0.000 HD
ENDROOT
BRANCH   6  17
ATOM     17  C   UNL     1       2.065   7.123  18.577  0.00  0.00    +0.000 A 
ATOM     18  C   UNL     1       1.770   8.372  17.984  0.00  0.00    +0.000 A 
ATOM     19  C   UNL     1       1.339   9.460  18.741  0.00  0.00    +0.000 A 
ATOM     20  C   UNL     1       1.181   9.325  20.115  0.00  0.00    +0.000 A 
ATOM     21  C   UNL     1       1.480   8.110  20.728  0.00  0.00    +0.000 A 
ATOM     22  C   UNL     1       1.932   7.020  19.973  0.00  0.00    +0.000 A 
ATOM     23 CL   UNL     1       2.340   5.587  20.847  0.00  0.00    +0.000 Cl
ENDBRANCH   6  17
TORSDOF 1
ENDMDL
MODEL 6
REMARK VINA RESULT:      -5.9      7.419     10.147
REMARK  Name = 
REMARK  4 active torsions:
REMARK  status: ('A' for Active; 'I' for Inactive)
REMARK    1  A    between atoms: C_1  and  N_2
REMARK    2  A    between atoms: C_6  and  C_7
REMARK    3  A    between atoms: C_17  and  C_18
REMARK    4  A    between atoms: C_17  and  C_19
REMARK                            x       y       z     vdW  Elec       q    Type
REMARK                         _______ _______ _______ _____ _____    ______ ____
ROOT
ATOM      1  C   UNL     1      -4.841  12.686  19.179  0.00  0.00    +0.000 C 
ATOM      2  N   UNL     1      -3.479  12.187  19.366  0.00  0.00    +0.000 N 
ATOM      3  C   UNL     1      -2.921  11.506  18.289  0.00  0.00    +0.000 C 
ATOM      4  O   UNL     1      -3.459  11.370  17.191  0.00  0.00    +0.000 OA
ATOM      5  N   UNL     1      -1.701  10.944  18.492  0.00  0.00    +0.000 N 
ATOM      6  C   UNL     1      -0.812  11.264  19.585  0.00  0.00    +0.000 C 
ATOM      7  C   UNL     1      -1.604  11.789  20.749  0.00  0.00    +0.000 C 
ATOM      8  C   UNL     1      -2.848  12.275  20.619  0.00  0.00    +0.000 C 
ATOM      9  C   UNL     1      -3.595  12.934  21.748  0.00  0.00    +0.000 C 
ATOM     10  C   UNL     1      -2.906  13.079  23.130  0.00  0.00    +0.000 C 
ATOM     11  C   UNL     1      -2.717  14.583  23.440  0.00  0.00    +0.000 C 
ATOM     12  C   UNL     1      -3.861  12.502  24.200  0.00  0.00    +0.000 C 
ATOM     13  C   UNL     1      -1.542  12.384  23.276  0.00  0.00    +0.000 C 
ATOM     14  C   UNL     1      -0.928  11.743  22.062  0.00  0.00    +0.000 C 
ATOM     15  O   UNL     1       0.150  11.158  22.174  0.00  0.00    +0.000 OA
ATOM     16  H   UNL     1      -1.309  10.502  17.672  0.00  0.00    +0.000 HD
ENDROOT
BRANCH   6  17
ATOM     17  C   UNL     1       0.249  12.257  19.123  0.00  0.00    +0.000 A 
ATOM     18  C   UNL     1       0.028  13.643  19.299  0.00  0.00    +0.000 A 
ATOM     19  C   UNL     1       0.990  14.588  18.950  0.00  0.00    +0.000 A 
ATOM     20  C   UNL     1       2.207  14.173  18.423  0.00  0.00    +0.000 A 
ATOM     21  C   UNL     1       2.446  12.814  18.224  0.00  0.00    +0.000 A 
ATOM     22  C   UNL     1       1.472  11.861  18.555  0.00  0.00    +0.000 A 
ATOM     23 CL   UNL     1       1.849  10.213  18.200  0.00  0.00    +0.000 Cl
ENDBRANCH   6  17
TORSDOF 1
ENDMDL
MODEL 7
REMARK VINA RESULT:      -5.9      9.711     11.044
REMARK  Name = 
REMARK  4 active torsions:
REMARK  status: ('A' for Active; 'I' for Inactive)
REMARK    1  A    between atoms: C_1  and  N_2
REMARK    2  A    between atoms: C_6  and  C_7
REMARK    3  A    between atoms: C_17  and  C_18
REMARK    4  A    between atoms: C_17  and  C_19
REMARK                            x       y       z     vdW  Elec       q    Type
REMARK                         _______ _______ _______ _____ _____    ______ ____
ROOT
ATOM      1  C   UNL     1      10.884  16.052  16.811  0.00  0.00    +0.000 C 
ATOM      2  N   UNL     1       9.967  15.901  17.940  0.00  0.00    +0.000 N 
ATOM      3  C   UNL     1       9.302  17.053  18.348  0.00  0.00    +0.000 C 
ATOM      4  O   UNL     1       9.376  18.143  17.784  0.00  0.00    +0.000 OA
ATOM      5  N   UNL     1       8.533  16.946  19.463  0.00  0.00    +0.000 N 
ATOM      6  C   UNL     1       8.093  15.703  20.052  0.00  0.00    +0.000 C 
ATOM      7  C   UNL     1       9.045  14.600  19.685  0.00  0.00    +0.000 C 
ATOM      8  C   UNL     1       9.889  14.688  18.645  0.00  0.00    +0.000 C 
ATOM      9  C   UNL     1      10.744  13.539  18.181  0.00  0.00    +0.000 C 
ATOM     10  C   UNL     1      10.648  12.177  18.918  0.00  0.00    +0.000 C 
ATOM     11  C   UNL     1      10.093  11.116  17.939  0.00  0.00    +0.000 C 
ATOM     12  C   UNL     1      12.081  11.745  19.306  0.00  0.00    +0.000 C 
ATOM     13  C   UNL     1       9.779  12.161  20.188  0.00  0.00    +0.000 C 
ATOM     14  C   UNL     1       8.999  13.397  20.541  0.00  0.00    +0.000 C 
ATOM     15  O   UNL     1       8.324  13.405  21.571  0.00  0.00    +0.000 OA
ATOM     16  H   UNL     1       8.028  17.790  19.697  0.00  0.00    +0.000 HD
ENDROOT
BRANCH   6  17
ATOM     17  C   UNL     1       6.665  15.393  19.615  0.00  0.00    +0.000 A 
ATOM     18  C   UNL     1       6.406  15.076  18.261  0.00  0.00    +0.000 A 
ATOM     19  C   UNL     1       5.131  14.726  17.821  0.00  0.00    +0.000 A 
ATOM     20  C   UNL     1       4.079  14.673  18.727  0.00  0.00    +0.000 A 
ATOM     21  C   UNL     1       4.302  14.996  20.064  0.00  0.00    +0.000 A 
ATOM     22  C   UNL     1       5.579  15.367  20.506  0.00  0.00    +0.000 A 
ATOM     23 CL   UNL     1       5.724  15.814  22.169  0.00  0.00    +0.000 Cl
ENDBRANCH   6  17
TORSDOF 1
ENDMDL
MODEL 8
REMARK VINA RESULT:      -5.9      8.078     11.083
REMARK  Name = 
REMARK  4 active torsions:
REMARK  status: ('A' for Active; 'I' for Inactive)
REMARK    1  A    between atoms: C_1  and  N_2
REMARK    2  A    between atoms: C_6  and  C_7
REMARK    3  A    between atoms: C_17  and  C_18
REMARK    4  A    between atoms: C_17  and  C_19
REMARK                            x       y       z     vdW  Elec       q    Type
REMARK                         _______ _______ _______ _____ _____    ______ ____
ROOT
ATOM      1  C   UNL     1      -1.403  15.536  24.683  0.00  0.00    +0.000 C 
ATOM      2  N   UNL     1      -1.435  14.721  23.470  0.00  0.00    +0.000 N 
ATOM      3  C   UNL     1      -0.264  14.695  22.717  0.00  0.00    +0.000 C 
ATOM      4  O   UNL     1       0.790  15.238  23.042  0.00  0.00    +0.000 OA
ATOM      5  N   UNL     1      -0.319  14.030  21.534  0.00  0.00    +0.000 N 
ATOM      6  C   UNL     1      -1.353  13.095  21.154  0.00  0.00    +0.000 C 
ATOM      7  C   UNL     1      -2.617  13.399  21.907  0.00  0.00    +0.000 C 
ATOM      8  C   UNL     1      -2.631  14.125  23.035  0.00  0.00    +0.000 C 
ATOM      9  C   UNL     1      -3.867  14.316  23.874  0.00  0.00    +0.000 C 
ATOM     10  C   UNL     1      -5.191  13.637  23.437  0.00  0.00    +0.000 C 
ATOM     11  C   UNL     1      -5.597  12.596  24.507  0.00  0.00    +0.000 C 
ATOM     12  C   UNL     1      -6.293  14.722  23.406  0.00  0.00    +0.000 C 
ATOM     13  C   UNL     1      -5.167  12.936  22.069  0.00  0.00    +0.000 C 
ATOM     14  C   UNL     1      -3.859  12.844  21.331  0.00  0.00    +0.000 C 
ATOM     15  O   UNL     1      -3.834  12.311  20.222  0.00  0.00    +0.000 OA
ATOM     16  H   UNL     1       0.562  13.992  21.041  0.00  0.00    +0.000 HD
ENDROOT
BRANCH   6  17
ATOM     17  C   UNL     1      -0.877  11.665  21.392  0.00  0.00    +0.000 A 
ATOM     18  C   UNL     1      -0.863  11.147  22.708  0.00  0.00    +0.000 A 
ATOM     19  C   UNL     1      -0.496   9.829  22.972  0.00  0.00    +0.000 A 
ATOM     20  C   UNL     1      -0.141   8.988  21.925  0.00  0.00    +0.000 A 
ATOM     21  C   UNL     1      -0.131   9.476  20.620  0.00  0.00    +0.000 A 
ATOM     22  C   UNL     1      -0.481  10.807  20.352  0.00  0.00    +0.000 A 
ATOM     23 CL   UNL     1      -0.364  11.323  18.707  0.00  0.00    +0.000 Cl
ENDBRANCH   6  17
TORSDOF 1
ENDMDL
MODEL 9
REMARK VINA RESULT:      -5.9      6.024      8.750
REMARK  Name = 
REMARK  4 active torsions:
REMARK  status: ('A' for Active; 'I' for Inactive)
REMARK    1  A    between atoms: C_1  and  N_2
REMARK    2  A    between atoms: C_6  and  C_7
REMARK    3  A    between atoms: C_17  and  C_18
REMARK    4  A    between atoms: C_17  and  C_19
REMARK                            x       y       z     vdW  Elec       q    Type
REMARK                         _______ _______ _______ _____ _____    ______ ____
ROOT
ATOM      1  C   UNL     1      -2.866  14.189  20.879  0.00  0.00    +0.000 C 
ATOM      2  N   UNL     1      -1.997  13.250  20.172  0.00  0.00    +0.000 N 
ATOM      3  C   UNL     1      -0.627  13.462  20.307  0.00  0.00    +0.000 C 
ATOM      4  O   UNL     1      -0.119  14.318  21.027  0.00  0.00    +0.000 OA
ATOM      5  N   UNL     1       0.185  12.664  19.567  0.00  0.00    +0.000 N 
ATOM      6  C   UNL     1      -0.218  11.434  18.926  0.00  0.00    +0.000 C 
ATOM      7  C   UNL     1      -1.696  11.459  18.658  0.00  0.00    +0.000 C 
ATOM      8  C   UNL     1      -2.534  12.289  19.299  0.00  0.00    +0.000 C 
ATOM      9  C   UNL     1      -4.031  12.227  19.144  0.00  0.00    +0.000 C 
ATOM     10  C   UNL     1      -4.652  11.150  18.216  0.00  0.00    +0.000 C 
ATOM     11  C   UNL     1      -5.502  10.182  19.072  0.00  0.00    +0.000 C 
ATOM     12  C   UNL     1      -5.611  11.864  17.236  0.00  0.00    +0.000 C 
ATOM     13  C   UNL     1      -3.655  10.317  17.393  0.00  0.00    +0.000 C 
ATOM     14  C   UNL     1      -2.184  10.507  17.640  0.00  0.00    +0.000 C 
ATOM     15  O   UNL     1      -1.376   9.866  16.966  0.00  0.00    +0.000 OA
ATOM     16  H   UNL     1       1.171  12.815  19.730  0.00  0.00    +0.000 HD
ENDROOT
BRANCH   6  17
ATOM     17  C   UNL     1       0.184  10.240  19.786  0.00  0.00    +0.000 A 
ATOM     18  C   UNL     1      -0.456  10.031  21.030  0.00  0.00    +0.000 A 
ATOM     19  C   UNL     1      -0.170   8.924  21.825  0.00  0.00    +0.000 A 
ATOM     20  C   UNL     1       0.761   7.987  21.394  0.00  0.00    +0.000 A 
ATOM     21  C   UNL     1       1.420   8.176  20.180  0.00  0.00    +0.000 A 
ATOM     22  C   UNL     1       1.148   9.299  19.387  0.00  0.00    +0.000 A 
ATOM     23 CL   UNL     1       2.074   9.466  17.938  0.00  0.00    +0.000 Cl
ENDBRANCH   6  17
TORSDOF 1
ENDMDL
