MODEL 1
REMARK VINA RESULT:      -9.7      0.000      0.000
REMARK  Name = 
REMARK  6 active torsions:
REMARK  status: ('A' for Active; 'I' for Inactive)
REMARK    1  A    between atoms: N_1  and  C_2
REMARK    2  A    between atoms: C_3  and  C_4
REMARK    3  A    between atoms: C_4  and  C_6
REMARK    4  A    between atoms: N_17  and  C_18
REMARK    5  A    between atoms: C_23  and  C_24
REMARK    6  A    between atoms: C_24  and  C_25
REMARK                            x       y       z     vdW  Elec       q    Type
REMARK                         _______ _______ _______ _____ _____    ______ ____
ROOT
ATOM      1  C   UNL     1       1.783   8.550  18.865  0.00  0.00    +0.000 A 
ATOM      2  C   UNL     1       1.033   9.351  19.700  0.00  0.00    +0.000 A 
ATOM      3  C   UNL     1       0.929   8.622  20.897  0.00  0.00    +0.000 A 
ATOM      4  N   UNL     1       1.641   7.498  20.885  0.00  0.00    +0.000 NA
ATOM      5  N   UNL     1       2.087   7.399  19.605  0.00  0.00    +0.000 N 
ENDROOT
BRANCH   5   6
ATOM      6  C   UNL     1       2.698   6.196  19.170  0.00  0.00    +0.000 A 
ATOM      7  C   UNL     1       3.399   5.415  20.100  0.00  0.00    +0.000 A 
ATOM      8  C   UNL     1       3.926   4.175  19.757  0.00  0.00    +0.000 A 
ATOM      9  C   UNL     1       4.468   4.322  18.484  0.00  0.00    +0.000 A 
ATOM     10  N   UNL     1       5.700   3.988  18.009  0.00  0.00    +0.000 N 
ATOM     11  C   UNL     1       5.819   4.491  16.743  0.00  0.00    +0.000 A 
ATOM     12  N   UNL     1       4.690   5.060  16.351  0.00  0.00    +0.000 NA
ATOM     13  C   UNL     1       3.911   5.111  17.483  0.00  0.00    +0.000 A 
ATOM     14  C   UNL     1       2.806   5.911  17.795  0.00  0.00    +0.000 A 
ATOM     15  H   UNL     1       6.443   3.585  18.558  0.00  0.00    +0.000 HD
BRANCH  11  16
ATOM     16  C   UNL     1       7.106   4.364  16.004  0.00  0.00    +0.000 C 
BRANCH  16  17
ATOM     17  C   UNL     1       6.986   4.431  14.494  0.00  0.00    +0.000 A 
ATOM     18  C   UNL     1       7.753   5.335  13.740  0.00  0.00    +0.000 A 
ATOM     19  C   UNL     1       7.754   5.266  12.334  0.00  0.00    +0.000 A 
ATOM     20  C   UNL     1       6.979   4.325  11.683  0.00  0.00    +0.000 A 
ATOM     21  C   UNL     1       6.173   3.458  12.418  0.00  0.00    +0.000 A 
ATOM     22  C   UNL     1       6.166   3.518  13.813  0.00  0.00    +0.000 A 
ENDBRANCH  16  17
ENDBRANCH  11  16
ENDBRANCH   5   6
BRANCH   1  23
ATOM     23  N   UNL     1       2.185   8.822  17.596  0.00  0.00    +0.000 N 
ATOM     24  H   UNL     1       1.524   8.795  16.820  0.00  0.00    +0.000 HD
ATOM     25  H   UNL     1       3.147   8.975  17.310  0.00  0.00    +0.000 HD
ENDBRANCH   1  23
BRANCH   2  26
ATOM     26  C   UNL     1       0.506  10.674  19.368  0.00  0.00    +0.000 C 
ATOM     27  O   UNL     1       1.118  11.716  19.612  0.00  0.00    +0.000 OA
BRANCH  26  28
ATOM     28  C   UNL     1      -0.797  10.669  18.769  0.00  0.00    +0.000 A 
ATOM     29  C   UNL     1      -1.987  11.310  19.103  0.00  0.00    +0.000 A 
ATOM     30  C   UNL     1      -2.947  11.052  18.099  0.00  0.00    +0.000 A 
ATOM     31  C   UNL     1      -4.257  11.487  17.895  0.00  0.00    +0.000 A 
ATOM     32  C   UNL     1      -4.607  11.750  16.579  0.00  0.00    +0.000 A 
ATOM     33  C   UNL     1      -3.973  11.048  15.561  0.00  0.00    +0.000 A 
ATOM     34  C   UNL     1      -2.896  10.195  15.828  0.00  0.00    +0.000 A 
ATOM     35  C   UNL     1      -2.307  10.362  17.082  0.00  0.00    +0.000 A 
ATOM     36  N   UNL     1      -1.064  10.003  17.592  0.00  0.00    +0.000 N 
ATOM     37  H   UNL     1      -0.382   9.475  17.046  0.00  0.00    +0.000 HD
ENDBRANCH  26  28
ENDBRANCH   2  26
TORSDOF 6
ENDMDL
MODEL 2
REMARK VINA RESULT:      -9.5      0.834      1.274
REMARK  Name = 
REMARK  6 active torsions:
REMARK  status: ('A' for Active; 'I' for Inactive)
REMARK    1  A    between atoms: N_1  and  C_2
REMARK    2  A    between atoms: C_3  and  C_4
REMARK    3  A    between atoms: C_4  and  C_6
REMARK    4  A    between atoms: N_17  and  C_18
REMARK    5  A    between atoms: C_23  and  C_24
REMARK    6  A    between atoms: C_24  and  C_25
REMARK                            x       y       z     vdW  Elec       q    Type
REMARK                         _______ _______ _______ _____ _____    ______ ____
ROOT
ATOM      1  C   UNL     1       1.768   8.666  19.292  0.00  0.00    +0.000 A 
ATOM      2  C   UNL     1       0.997   9.400  20.168  0.00  0.00    +0.000 A 
ATOM      3  C   UNL     1       0.707   8.513  21.219  0.00  0.00    +0.000 A 
ATOM      4  N   UNL     1       1.325   7.342  21.097  0.00  0.00    +0.000 NA
ATOM      5  N   UNL     1       1.898   7.394  19.866  0.00  0.00    +0.000 N 
ENDROOT
BRANCH   5   6
ATOM      6  C   UNL     1       2.456   6.217  19.306  0.00  0.00    +0.000 A 
ATOM      7  C   UNL     1       3.042   5.271  20.159  0.00  0.00    +0.000 A 
ATOM      8  C   UNL     1       3.508   4.051  19.680  0.00  0.00    +0.000 A 
ATOM      9  C   UNL     1       4.141   4.325  18.472  0.00  0.00    +0.000 A 
ATOM     10  N   UNL     1       5.377   3.966  18.027  0.00  0.00    +0.000 N 
ATOM     11  C   UNL     1       5.612   4.621  16.850  0.00  0.00    +0.000 A 
ATOM     12  N   UNL     1       4.551   5.319  16.476  0.00  0.00    +0.000 NA
ATOM     13  C   UNL     1       3.704   5.278  17.558  0.00  0.00    +0.000 A 
ATOM     14  C   UNL     1       2.636   6.109  17.913  0.00  0.00    +0.000 A 
ATOM     15  H   UNL     1       6.055   3.440  18.557  0.00  0.00    +0.000 HD
BRANCH  11  16
ATOM     16  C   UNL     1       6.934   4.499  16.174  0.00  0.00    +0.000 C 
BRANCH  16  17
ATOM     17  C   UNL     1       6.879   4.481  14.659  0.00  0.00    +0.000 A 
ATOM     18  C   UNL     1       7.702   5.321  13.890  0.00  0.00    +0.000 A 
ATOM     19  C   UNL     1       7.760   5.172  12.491  0.00  0.00    +0.000 A 
ATOM     20  C   UNL     1       6.988   4.215  11.861  0.00  0.00    +0.000 A 
ATOM     21  C   UNL     1       6.128   3.411  12.608  0.00  0.00    +0.000 A 
ATOM     22  C   UNL     1       6.064   3.551  13.996  0.00  0.00    +0.000 A 
ENDBRANCH  16  17
ENDBRANCH  11  16
ENDBRANCH   5   6
BRANCH   1  23
ATOM     23  N   UNL     1       2.326   9.085  18.126  0.00  0.00    +0.000 N 
ATOM     24  H   UNL     1       1.977   9.914  17.647  0.00  0.00    +0.000 HD
ATOM     25  H   UNL     1       3.040   8.581  17.608  0.00  0.00    +0.000 HD
ENDBRANCH   1  23
BRANCH   2  26
ATOM     26  C   UNL     1       0.615  10.802  20.001  0.00  0.00    +0.000 C 
ATOM     27  O   UNL     1       1.281  11.733  20.459  0.00  0.00    +0.000 OA
BRANCH  26  28
ATOM     28  C   UNL     1      -0.616  11.009  19.294  0.00  0.00    +0.000 A 
ATOM     29  C   UNL     1      -1.194  10.364  18.204  0.00  0.00    +0.000 A 
ATOM     30  C   UNL     1      -2.484  10.897  17.985  0.00  0.00    +0.000 A 
ATOM     31  C   UNL     1      -3.507  10.584  17.089  0.00  0.00    +0.000 A 
ATOM     32  C   UNL     1      -4.795  10.657  17.597  0.00  0.00    +0.000 A 
ATOM     33  C   UNL     1      -5.064  11.548  18.628  0.00  0.00    +0.000 A 
ATOM     34  C   UNL     1      -4.038  12.262  19.256  0.00  0.00    +0.000 A 
ATOM     35  C   UNL     1      -2.750  11.777  19.022  0.00  0.00    +0.000 A 
ATOM     36  N   UNL     1      -1.545  11.946  19.694  0.00  0.00    +0.000 N 
ATOM     37  H   UNL     1      -1.455  12.556  20.509  0.00  0.00    +0.000 HD
ENDBRANCH  26  28
ENDBRANCH   2  26
TORSDOF 6
ENDMDL
MODEL 3
REMARK VINA RESULT:      -9.2      3.676     10.259
REMARK  Name = 
REMARK  6 active torsions:
REMARK  status: ('A' for Active; 'I' for Inactive)
REMARK    1  A    between atoms: N_1  and  C_2
REMARK    2  A    between atoms: C_3  and  C_4
REMARK    3  A    between atoms: C_4  and  C_6
REMARK    4  A    between atoms: N_17  and  C_18
REMARK    5  A    between atoms: C_23  and  C_24
REMARK    6  A    between atoms: C_24  and  C_25
REMARK                            x       y       z     vdW  Elec       q    Type
REMARK                         _______ _______ _______ _____ _____    ______ ____
ROOT
ATOM      1  C   UNL     1       1.786   7.965  19.964  0.00  0.00    +0.000 A 
ATOM      2  C   UNL     1       2.482   7.123  19.122  0.00  0.00    +0.000 A 
ATOM      3  C   UNL     1       2.570   7.825  17.907  0.00  0.00    +0.000 A 
ATOM      4  N   UNL     1       2.076   9.058  17.981  0.00  0.00    +0.000 NA
ATOM      5  N   UNL     1       1.504   9.114  19.212  0.00  0.00    +0.000 N 
ENDROOT
BRANCH   5   6
ATOM      6  C   UNL     1       0.678  10.217  19.548  0.00  0.00    +0.000 A 
ATOM      7  C   UNL     1      -0.235  10.697  18.597  0.00  0.00    +0.000 A 
ATOM      8  C   UNL     1      -1.144  11.703  18.905  0.00  0.00    +0.000 A 
ATOM      9  C   UNL     1      -0.449  12.632  19.673  0.00  0.00    +0.000 A 
ATOM     10  N   UNL     1      -0.348  13.984  19.538  0.00  0.00    +0.000 N 
ATOM     11  C   UNL     1       0.589  14.431  20.429  0.00  0.00    +0.000 A 
ATOM     12  N   UNL     1       1.033  13.440  21.187  0.00  0.00    +0.000 NA
ATOM     13  C   UNL     1       0.524  12.301  20.610  0.00  0.00    +0.000 A 
ATOM     14  C   UNL     1       0.932  10.966  20.713  0.00  0.00    +0.000 A 
ATOM     15  H   UNL     1      -0.771  14.526  18.801  0.00  0.00    +0.000 HD
BRANCH  11  16
ATOM     16  C   UNL     1       0.985  15.867  20.442  0.00  0.00    +0.000 C 
BRANCH  16  17
ATOM     17  C   UNL     1       0.869  16.574  19.106  0.00  0.00    +0.000 A 
ATOM     18  C   UNL     1      -0.345  17.144  18.686  0.00  0.00    +0.000 A 
ATOM     19  C   UNL     1      -0.392  17.941  17.526  0.00  0.00    +0.000 A 
ATOM     20  C   UNL     1       0.751  18.147  16.777  0.00  0.00    +0.000 A 
ATOM     21  C   UNL     1       1.950  17.544  17.154  0.00  0.00    +0.000 A 
ATOM     22  C   UNL     1       2.006  16.753  18.304  0.00  0.00    +0.000 A 
ENDBRANCH  16  17
ENDBRANCH  11  16
ENDBRANCH   5   6
BRANCH   1  23
ATOM     23  N   UNL     1       1.463   7.755  21.266  0.00  0.00    +0.000 N 
ATOM     24  H   UNL     1       1.525   8.509  21.949  0.00  0.00    +0.000 HD
ATOM     25  H   UNL     1       1.235   6.852  21.672  0.00  0.00    +0.000 HD
ENDBRANCH   1  23
BRANCH   2  26
ATOM     26  C   UNL     1       3.011   5.808  19.477  0.00  0.00    +0.000 C 
ATOM     27  O   UNL     1       2.716   5.231  20.526  0.00  0.00    +0.000 OA
BRANCH  26  28
ATOM     28  C   UNL     1       3.932   5.254  18.527  0.00  0.00    +0.000 A 
ATOM     29  C   UNL     1       3.760   4.405  17.436  0.00  0.00    +0.000 A 
ATOM     30  C   UNL     1       4.994   4.268  16.761  0.00  0.00    +0.000 A 
ATOM     31  C   UNL     1       5.375   3.605  15.594  0.00  0.00    +0.000 A 
ATOM     32  C   UNL     1       6.304   4.264  14.802  0.00  0.00    +0.000 A 
ATOM     33  C   UNL     1       7.212   5.125  15.405  0.00  0.00    +0.000 A 
ATOM     34  C   UNL     1       7.115   5.449  16.763  0.00  0.00    +0.000 A 
ATOM     35  C   UNL     1       5.892   5.137  17.359  0.00  0.00    +0.000 A 
ATOM     36  N   UNL     1       5.270   5.586  18.518  0.00  0.00    +0.000 N 
ATOM     37  H   UNL     1       5.718   6.243  19.159  0.00  0.00    +0.000 HD
ENDBRANCH  26  28
ENDBRANCH   2  26
TORSDOF 6
ENDMDL
MODEL 4
REMARK VINA RESULT:      -9.2      3.500      9.927
REMARK  Name = 
REMARK  6 active torsions:
REMARK  status: ('A' for Active; 'I' for Inactive)
REMARK    1  A    between atoms: N_1  and  C_2
REMARK    2  A    between atoms: C_3  and  C_4
REMARK    3  A    between atoms: C_4  and  C_6
REMARK    4  A    between atoms: N_17  and  C_18
REMARK    5  A    between atoms: C_23  and  C_24
REMARK    6  A    between atoms: C_24  and  C_25
REMARK                            x       y       z     vdW  Elec       q    Type
REMARK                         _______ _______ _______ _____ _____    ______ ____
ROOT
ATOM      1  C   UNL     1       1.845   7.756  19.928  0.00  0.00    +0.000 A 
ATOM      2  C   UNL     1       2.578   6.984  19.050  0.00  0.00    +0.000 A 
ATOM      3  C   UNL     1       2.644   7.748  17.871  0.00  0.00    +0.000 A 
ATOM      4  N   UNL     1       2.101   8.955  18.003  0.00  0.00    +0.000 NA
ATOM      5  N   UNL     1       1.521   8.928  19.231  0.00  0.00    +0.000 N 
ENDROOT
BRANCH   5   6
ATOM      6  C   UNL     1       0.650   9.979  19.615  0.00  0.00    +0.000 A 
ATOM      7  C   UNL     1      -0.332  10.411  18.712  0.00  0.00    +0.000 A 
ATOM      8  C   UNL     1      -1.282  11.362  19.071  0.00  0.00    +0.000 A 
ATOM      9  C   UNL     1      -0.606  12.324  19.814  0.00  0.00    +0.000 A 
ATOM     10  N   UNL     1      -0.589  13.681  19.687  0.00  0.00    +0.000 N 
ATOM     11  C   UNL     1       0.362  14.175  20.537  0.00  0.00    +0.000 A 
ATOM     12  N   UNL     1       0.897  13.208  21.264  0.00  0.00    +0.000 NA
ATOM     13  C   UNL     1       0.428  12.044  20.701  0.00  0.00    +0.000 A 
ATOM     14  C   UNL     1       0.915  10.735  20.774  0.00  0.00    +0.000 A 
ATOM     15  H   UNL     1      -1.076  14.202  18.975  0.00  0.00    +0.000 HD
BRANCH  11  16
ATOM     16  C   UNL     1       0.675  15.632  20.544  0.00  0.00    +0.000 C 
BRANCH  16  17
ATOM     17  C   UNL     1       1.515  16.111  19.376  0.00  0.00    +0.000 A 
ATOM     18  C   UNL     1       2.635  15.385  18.938  0.00  0.00    +0.000 A 
ATOM     19  C   UNL     1       3.299  15.751  17.752  0.00  0.00    +0.000 A 
ATOM     20  C   UNL     1       2.871  16.845  17.024  0.00  0.00    +0.000 A 
ATOM     21  C   UNL     1       1.794  17.605  17.477  0.00  0.00    +0.000 A 
ATOM     22  C   UNL     1       1.128  17.248  18.652  0.00  0.00    +0.000 A 
ENDBRANCH  16  17
ENDBRANCH  11  16
ENDBRANCH   5   6
BRANCH   1  23
ATOM     23  N   UNL     1       1.526   7.469  21.217  0.00  0.00    +0.000 N 
ATOM     24  H   UNL     1       1.577   6.514  21.569  0.00  0.00    +0.000 HD
ATOM     25  H   UNL     1       1.139   8.132  21.882  0.00  0.00    +0.000 HD
ENDBRANCH   1  23
BRANCH   2  26
ATOM     26  C   UNL     1       3.158   5.675  19.344  0.00  0.00    +0.000 C 
ATOM     27  O   UNL     1       2.926   5.062  20.388  0.00  0.00    +0.000 OA
BRANCH  26  28
ATOM     28  C   UNL     1       4.051   5.174  18.340  0.00  0.00    +0.000 A 
ATOM     29  C   UNL     1       3.872   4.289  17.279  0.00  0.00    +0.000 A 
ATOM     30  C   UNL     1       5.061   4.235  16.519  0.00  0.00    +0.000 A 
ATOM     31  C   UNL     1       5.412   3.576  15.340  0.00  0.00    +0.000 A 
ATOM     32  C   UNL     1       6.225   4.288  14.471  0.00  0.00    +0.000 A 
ATOM     33  C   UNL     1       7.101   5.233  14.990  0.00  0.00    +0.000 A 
ATOM     34  C   UNL     1       7.075   5.580  16.346  0.00  0.00    +0.000 A 
ATOM     35  C   UNL     1       5.926   5.186  17.034  0.00  0.00    +0.000 A 
ATOM     36  N   UNL     1       5.354   5.612  18.228  0.00  0.00    +0.000 N 
ATOM     37  H   UNL     1       5.792   6.317  18.823  0.00  0.00    +0.000 HD
ENDBRANCH  26  28
ENDBRANCH   2  26
TORSDOF 6
ENDMDL
MODEL 5
REMARK VINA RESULT:      -9.2      3.592     10.022
REMARK  Name = 
REMARK  6 active torsions:
REMARK  status: ('A' for Active; 'I' for Inactive)
REMARK    1  A    between atoms: N_1  and  C_2
REMARK    2  A    between atoms: C_3  and  C_4
REMARK    3  A    between atoms: C_4  and  C_6
REMARK    4  A    between atoms: N_17  and  C_18
REMARK    5  A    between atoms: C_23  and  C_24
REMARK    6  A    between atoms: C_24  and  C_25
REMARK                            x       y       z     vdW  Elec       q    Type
REMARK                         _______ _______ _______ _____ _____    ______ ____
ROOT
ATOM      1  C   UNL     1       1.756   7.999  19.724  0.00  0.00    +0.000 A 
ATOM      2  C   UNL     1       2.498   7.144  18.936  0.00  0.00    +0.000 A 
ATOM      3  C   UNL     1       2.596   7.796  17.694  0.00  0.00    +0.000 A 
ATOM      4  N   UNL     1       2.063   9.015  17.704  0.00  0.00    +0.000 NA
ATOM      5  N   UNL     1       1.458   9.106  18.917  0.00  0.00    +0.000 N 
ENDROOT
BRANCH   5   6
ATOM      6  C   UNL     1       0.592  10.195  19.185  0.00  0.00    +0.000 A 
ATOM      7  C   UNL     1      -0.528  10.391  18.363  0.00  0.00    +0.000 A 
ATOM      8  C   UNL     1      -1.470  11.375  18.642  0.00  0.00    +0.000 A 
ATOM      9  C   UNL     1      -0.753  12.495  19.049  0.00  0.00    +0.000 A 
ATOM     10  N   UNL     1      -0.829  13.789  18.628  0.00  0.00    +0.000 N 
ATOM     11  C   UNL     1       0.201  14.484  19.202  0.00  0.00    +0.000 A 
ATOM     12  N   UNL     1       0.884  13.716  20.037  0.00  0.00    +0.000 NA
ATOM     13  C   UNL     1       0.406  12.445  19.816  0.00  0.00    +0.000 A 
ATOM     14  C   UNL     1       0.971  11.197  20.100  0.00  0.00    +0.000 A 
ATOM     15  H   UNL     1      -1.438  14.126  17.899  0.00  0.00    +0.000 HD
BRANCH  11  16
ATOM     16  C   UNL     1       0.431  15.912  18.845  0.00  0.00    +0.000 C 
BRANCH  16  17
ATOM     17  C   UNL     1       1.866  16.381  18.980  0.00  0.00    +0.000 A 
ATOM     18  C   UNL     1       2.290  17.119  20.099  0.00  0.00    +0.000 A 
ATOM     19  C   UNL     1       3.656  17.398  20.289  0.00  0.00    +0.000 A 
ATOM     20  C   UNL     1       4.589  16.971  19.364  0.00  0.00    +0.000 A 
ATOM     21  C   UNL     1       4.176  16.285  18.224  0.00  0.00    +0.000 A 
ATOM     22  C   UNL     1       2.822  16.002  18.027  0.00  0.00    +0.000 A 
ENDBRANCH  16  17
ENDBRANCH  11  16
ENDBRANCH   5   6
BRANCH   1  23
ATOM     23  N   UNL     1       1.408   7.834  21.027  0.00  0.00    +0.000 N 
ATOM     24  H   UNL     1       2.066   8.045  21.776  0.00  0.00    +0.000 HD
ATOM     25  H   UNL     1       0.539   7.418  21.349  0.00  0.00    +0.000 HD
ENDBRANCH   1  23
BRANCH   2  26
ATOM     26  C   UNL     1       3.057   5.862  19.360  0.00  0.00    +0.000 C 
ATOM     27  O   UNL     1       2.785   5.341  20.444  0.00  0.00    +0.000 OA
BRANCH  26  28
ATOM     28  C   UNL     1       3.979   5.272  18.432  0.00  0.00    +0.000 A 
ATOM     29  C   UNL     1       3.807   4.392  17.368  0.00  0.00    +0.000 A 
ATOM     30  C   UNL     1       5.043   4.225  16.703  0.00  0.00    +0.000 A 
ATOM     31  C   UNL     1       5.426   3.523  15.560  0.00  0.00    +0.000 A 
ATOM     32  C   UNL     1       6.363   4.150  14.753  0.00  0.00    +0.000 A 
ATOM     33  C   UNL     1       7.274   5.024  15.333  0.00  0.00    +0.000 A 
ATOM     34  C   UNL     1       7.173   5.390  16.680  0.00  0.00    +0.000 A 
ATOM     35  C   UNL     1       5.944   5.106  17.279  0.00  0.00    +0.000 A 
ATOM     36  N   UNL     1       5.320   5.595  18.421  0.00  0.00    +0.000 N 
ATOM     37  H   UNL     1       5.769   6.269  19.043  0.00  0.00    +0.000 HD
ENDBRANCH  26  28
ENDBRANCH   2  26
TORSDOF 6
ENDMDL
MODEL 6
REMARK VINA RESULT:      -9.1      3.523     10.784
REMARK  Name = 
REMARK  6 active torsions:
REMARK  status: ('A' for Active; 'I' for Inactive)
REMARK    1  A    between atoms: N_1  and  C_2
REMARK    2  A    between atoms: C_3  and  C_4
REMARK    3  A    between atoms: C_4  and  C_6
REMARK    4  A    between atoms: N_17  and  C_18
REMARK    5  A    between atoms: C_23  and  C_24
REMARK    6  A    between atoms: C_24  and  C_25
REMARK                            x       y       z     vdW  Elec       q    Type
REMARK                         _______ _______ _______ _____ _____    ______ ____
ROOT
ATOM      1  C   UNL     1       1.807   8.051  19.683  0.00  0.00    +0.000 A 
ATOM      2  C   UNL     1       2.531   7.181  18.895  0.00  0.00    +0.000 A 
ATOM      3  C   UNL     1       2.624   7.822  17.647  0.00  0.00    +0.000 A 
ATOM      4  N   UNL     1       2.106   9.048  17.652  0.00  0.00    +0.000 NA
ATOM      5  N   UNL     1       1.514   9.155  18.871  0.00  0.00    +0.000 N 
ENDROOT
BRANCH   5   6
ATOM      6  C   UNL     1       0.663  10.256  19.138  0.00  0.00    +0.000 A 
ATOM      7  C   UNL     1      -0.472  10.448  18.337  0.00  0.00    +0.000 A 
ATOM      8  C   UNL     1      -1.401  11.445  18.619  0.00  0.00    +0.000 A 
ATOM      9  C   UNL     1      -0.665  12.565  18.991  0.00  0.00    +0.000 A 
ATOM     10  N   UNL     1      -0.739  13.852  18.550  0.00  0.00    +0.000 N 
ATOM     11  C   UNL     1       0.308  14.547  19.089  0.00  0.00    +0.000 A 
ATOM     12  N   UNL     1       1.003  13.788  19.922  0.00  0.00    +0.000 NA
ATOM     13  C   UNL     1       0.510  12.518  19.734  0.00  0.00    +0.000 A 
ATOM     14  C   UNL     1       1.070  11.270  20.027  0.00  0.00    +0.000 A 
ATOM     15  H   UNL     1      -1.360  14.183  17.828  0.00  0.00    +0.000 HD
BRANCH  11  16
ATOM     16  C   UNL     1       0.543  15.967  18.703  0.00  0.00    +0.000 C 
BRANCH  16  17
ATOM     17  C   UNL     1      -0.619  16.903  18.971  0.00  0.00    +0.000 A 
ATOM     18  C   UNL     1      -1.024  17.854  18.019  0.00  0.00    +0.000 A 
ATOM     19  C   UNL     1      -2.205  18.594  18.212  0.00  0.00    +0.000 A 
ATOM     20  C   UNL     1      -2.962  18.411  19.354  0.00  0.00    +0.000 A 
ATOM     21  C   UNL     1      -2.543  17.510  20.330  0.00  0.00    +0.000 A 
ATOM     22  C   UNL     1      -1.373  16.769  20.147  0.00  0.00    +0.000 A 
ENDBRANCH  16  17
ENDBRANCH  11  16
ENDBRANCH   5   6
BRANCH   1  23
ATOM     23  N   UNL     1       1.469   7.900  20.990  0.00  0.00    +0.000 N 
ATOM     24  H   UNL     1       1.689   7.040  21.492  0.00  0.00    +0.000 HD
ATOM     25  H   UNL     1       0.914   8.559  21.528  0.00  0.00    +0.000 HD
ENDBRANCH   1  23
BRANCH   2  26
ATOM     26  C   UNL     1       3.080   5.896  19.324  0.00  0.00    +0.000 C 
ATOM     27  O   UNL     1       2.804   5.382  20.410  0.00  0.00    +0.000 OA
BRANCH  26  28
ATOM     28  C   UNL     1       3.996   5.294  18.398  0.00  0.00    +0.000 A 
ATOM     29  C   UNL     1       3.819   4.390  17.354  0.00  0.00    +0.000 A 
ATOM     30  C   UNL     1       5.048   4.219  16.679  0.00  0.00    +0.000 A 
ATOM     31  C   UNL     1       5.423   3.496  15.546  0.00  0.00    +0.000 A 
ATOM     32  C   UNL     1       6.345   4.114  14.714  0.00  0.00    +0.000 A 
ATOM     33  C   UNL     1       7.255   5.008  15.265  0.00  0.00    +0.000 A 
ATOM     34  C   UNL     1       7.166   5.403  16.604  0.00  0.00    +0.000 A 
ATOM     35  C   UNL     1       5.948   5.120  17.224  0.00  0.00    +0.000 A 
ATOM     36  N   UNL     1       5.333   5.629  18.363  0.00  0.00    +0.000 N 
ATOM     37  H   UNL     1       5.784   6.320  18.965  0.00  0.00    +0.000 HD
ENDBRANCH  26  28
ENDBRANCH   2  26
TORSDOF 6
ENDMDL
MODEL 7
REMARK VINA RESULT:      -9.1      3.010     11.141
REMARK  Name = 
REMARK  6 active torsions:
REMARK  status: ('A' for Active; 'I' for Inactive)
REMARK    1  A    between atoms: N_1  and  C_2
REMARK    2  A    between atoms: C_3  and  C_4
REMARK    3  A    between atoms: C_4  and  C_6
REMARK    4  A    between atoms: N_17  and  C_18
REMARK    5  A    between atoms: C_23  and  C_24
REMARK    6  A    between atoms: C_24  and  C_25
REMARK                            x       y       z     vdW  Elec       q    Type
REMARK                         _______ _______ _______ _____ _____    ______ ____
ROOT
ATOM      1  C   UNL     1       1.290   8.725  19.563  0.00  0.00    +0.000 A 
ATOM      2  C   UNL     1       2.112   7.761  19.018  0.00  0.00    +0.000 A 
ATOM      3  C   UNL     1       2.534   8.303  17.791  0.00  0.00    +0.000 A 
ATOM      4  N   UNL     1       2.117   9.552  17.603  0.00  0.00    +0.000 NA
ATOM      5  N   UNL     1       1.271   9.781  18.641  0.00  0.00    +0.000 N 
ENDROOT
BRANCH   5   6
ATOM      6  C   UNL     1       0.461  10.944  18.637  0.00  0.00    +0.000 A 
ATOM      7  C   UNL     1       0.875  12.062  19.377  0.00  0.00    +0.000 A 
ATOM      8  C   UNL     1       0.180  13.266  19.325  0.00  0.00    +0.000 A 
ATOM      9  C   UNL     1      -1.172  12.934  19.340  0.00  0.00    +0.000 A 
ATOM     10  N   UNL     1      -2.183  13.403  20.123  0.00  0.00    +0.000 N 
ATOM     11  C   UNL     1      -3.295  12.644  19.879  0.00  0.00    +0.000 A 
ATOM     12  N   UNL     1      -3.068  11.765  18.916  0.00  0.00    +0.000 NA
ATOM     13  C   UNL     1      -1.711  11.823  18.700  0.00  0.00    +0.000 A 
ATOM     14  C   UNL     1      -0.842  10.902  18.105  0.00  0.00    +0.000 A 
ATOM     15  H   UNL     1      -2.078  14.080  20.862  0.00  0.00    +0.000 HD
BRANCH  11  16
ATOM     16  C   UNL     1      -4.539  12.864  20.669  0.00  0.00    +0.000 C 
BRANCH  16  17
ATOM     17  C   UNL     1      -4.325  13.456  22.048  0.00  0.00    +0.000 A 
ATOM     18  C   UNL     1      -3.879  12.664  23.120  0.00  0.00    +0.000 A 
ATOM     19  C   UNL     1      -3.524  13.261  24.344  0.00  0.00    +0.000 A 
ATOM     20  C   UNL     1      -3.637  14.628  24.510  0.00  0.00    +0.000 A 
ATOM     21  C   UNL     1      -4.129  15.418  23.472  0.00  0.00    +0.000 A 
ATOM     22  C   UNL     1      -4.483  14.835  22.253  0.00  0.00    +0.000 A 
ENDBRANCH  16  17
ENDBRANCH  11  16
ENDBRANCH   5   6
BRANCH   1  23
ATOM     23  N   UNL     1       0.652   8.690  20.762  0.00  0.00    +0.000 N 
ATOM     24  H   UNL     1       1.111   8.309  21.588  0.00  0.00    +0.000 HD
ATOM     25  H   UNL     1      -0.321   8.940  20.911  0.00  0.00    +0.000 HD
ENDBRANCH   1  23
BRANCH   2  26
ATOM     26  C   UNL     1       2.456   6.482  19.638  0.00  0.00    +0.000 C 
ATOM     27  O   UNL     1       1.982   6.115  20.715  0.00  0.00    +0.000 OA
BRANCH  26  28
ATOM     28  C   UNL     1       3.417   5.702  18.914  0.00  0.00    +0.000 A 
ATOM     29  C   UNL     1       3.343   4.993  17.718  0.00  0.00    +0.000 A 
ATOM     30  C   UNL     1       4.627   4.499  17.395  0.00  0.00    +0.000 A 
ATOM     31  C   UNL     1       5.132   3.793  16.303  0.00  0.00    +0.000 A 
ATOM     32  C   UNL     1       6.405   4.155  15.888  0.00  0.00    +0.000 A 
ATOM     33  C   UNL     1       7.298   4.663  16.822  0.00  0.00    +0.000 A 
ATOM     34  C   UNL     1       6.896   4.949  18.132  0.00  0.00    +0.000 A 
ATOM     35  C   UNL     1       5.515   5.017  18.324  0.00  0.00    +0.000 A 
ATOM     36  N   UNL     1       4.732   5.596  19.316  0.00  0.00    +0.000 N 
ATOM     37  H   UNL     1       5.137   6.053  20.134  0.00  0.00    +0.000 HD
ENDBRANCH  26  28
ENDBRANCH   2  26
TORSDOF 6
ENDMDL
MODEL 8
REMARK VINA RESULT:      -9.1      3.408     11.235
REMARK  Name = 
REMARK  6 active torsions:
REMARK  status: ('A' for Active; 'I' for Inactive)
REMARK    1  A    between atoms: N_1  and  C_2
REMARK    2  A    between atoms: C_3  and  C_4
REMARK    3  A    between atoms: C_4  and  C_6
REMARK    4  A    between atoms: N_17  and  C_18
REMARK    5  A    between atoms: C_23  and  C_24
REMARK    6  A    between atoms: C_24  and  C_25
REMARK                            x       y       z     vdW  Elec       q    Type
REMARK                         _______ _______ _______ _____ _____    ______ ____
ROOT
ATOM      1  C   UNL     1       1.697   8.333  19.884  0.00  0.00    +0.000 A 
ATOM      2  C   UNL     1       2.237   7.324  19.114  0.00  0.00    +0.000 A 
ATOM      3  C   UNL     1       2.313   7.864  17.818  0.00  0.00    +0.000 A 
ATOM      4  N   UNL     1       1.961   9.146  17.768  0.00  0.00    +0.000 NA
ATOM      5  N   UNL     1       1.487   9.411  19.013  0.00  0.00    +0.000 N 
ENDROOT
BRANCH   5   6
ATOM      6  C   UNL     1       0.810  10.633  19.257  0.00  0.00    +0.000 A 
ATOM      7  C   UNL     1       1.545  11.828  19.255  0.00  0.00    +0.000 A 
ATOM      8  C   UNL     1       0.920  13.065  19.380  0.00  0.00    +0.000 A 
ATOM      9  C   UNL     1      -0.068  12.904  20.346  0.00  0.00    +0.000 A 
ATOM     10  N   UNL     1      -0.341  13.646  21.456  0.00  0.00    +0.000 N 
ATOM     11  C   UNL     1      -1.295  12.989  22.183  0.00  0.00    +0.000 A 
ATOM     12  N   UNL     1      -1.707  11.901  21.550  0.00  0.00    +0.000 NA
ATOM     13  C   UNL     1      -0.831  11.752  20.500  0.00  0.00    +0.000 A 
ATOM     14  C   UNL     1      -0.517  10.629  19.727  0.00  0.00    +0.000 A 
ATOM     15  H   UNL     1       0.186  14.450  21.760  0.00  0.00    +0.000 HD
BRANCH  11  16
ATOM     16  C   UNL     1      -1.725  13.518  23.507  0.00  0.00    +0.000 C 
BRANCH  16  17
ATOM     17  C   UNL     1      -3.226  13.623  23.697  0.00  0.00    +0.000 A 
ATOM     18  C   UNL     1      -3.951  14.711  23.184  0.00  0.00    +0.000 A 
ATOM     19  C   UNL     1      -5.358  14.708  23.220  0.00  0.00    +0.000 A 
ATOM     20  C   UNL     1      -6.037  13.645  23.786  0.00  0.00    +0.000 A 
ATOM     21  C   UNL     1      -5.327  12.585  24.346  0.00  0.00    +0.000 A 
ATOM     22  C   UNL     1      -3.931  12.579  24.313  0.00  0.00    +0.000 A 
ENDBRANCH  16  17
ENDBRANCH  11  16
ENDBRANCH   5   6
BRANCH   1  23
ATOM     23  N   UNL     1       1.448   8.315  21.219  0.00  0.00    +0.000 N 
ATOM     24  H   UNL     1       1.229   9.173  21.723  0.00  0.00    +0.000 HD
ATOM     25  H   UNL     1       1.546   7.501  21.819  0.00  0.00    +0.000 HD
ENDBRANCH   1  23
BRANCH   2  26
ATOM     26  C   UNL     1       2.646   6.006  19.598  0.00  0.00    +0.000 C 
ATOM     27  O   UNL     1       2.204   5.511  20.637  0.00  0.00    +0.000 OA
BRANCH  26  28
ATOM     28  C   UNL     1       3.631   5.348  18.790  0.00  0.00    +0.000 A 
ATOM     29  C   UNL     1       3.559   4.707  17.556  0.00  0.00    +0.000 A 
ATOM     30  C   UNL     1       4.861   4.335  17.153  0.00  0.00    +0.000 A 
ATOM     31  C   UNL     1       5.370   3.737  16.000  0.00  0.00    +0.000 A 
ATOM     32  C   UNL     1       6.592   4.221  15.559  0.00  0.00    +0.000 A 
ATOM     33  C   UNL     1       7.485   4.742  16.488  0.00  0.00    +0.000 A 
ATOM     34  C   UNL     1       7.120   4.918  17.827  0.00  0.00    +0.000 A 
ATOM     35  C   UNL     1       5.747   4.866  18.077  0.00  0.00    +0.000 A 
ATOM     36  N   UNL     1       4.967   5.322  19.133  0.00  0.00    +0.000 N 
ATOM     37  H   UNL     1       5.371   5.761  19.962  0.00  0.00    +0.000 HD
ENDBRANCH  26  28
ENDBRANCH   2  26
TORSDOF 6
ENDMDL
MODEL 9
REMARK VINA RESULT:      -9.1      2.490     10.891
REMARK  Name = 
REMARK  6 active torsions:
REMARK  status: ('A' for Active; 'I' for Inactive)
REMARK    1  A    between atoms: N_1  and  C_2
REMARK    2  A    between atoms: C_3  and  C_4
REMARK    3  A    between atoms: C_4  and  C_6
REMARK    4  A    between atoms: N_17  and  C_18
REMARK    5  A    between atoms: C_23  and  C_24
REMARK    6  A    between atoms: C_24  and  C_25
REMARK                            x       y       z     vdW  Elec       q    Type
REMARK                         _______ _______ _______ _____ _____    ______ ____
ROOT
ATOM      1  C   UNL     1       1.468   8.556  19.917  0.00  0.00    +0.000 A 
ATOM      2  C   UNL     1       2.136   7.578  19.210  0.00  0.00    +0.000 A 
ATOM      3  C   UNL     1       2.449   8.178  17.978  0.00  0.00    +0.000 A 
ATOM      4  N   UNL     1       2.117   9.465  17.926  0.00  0.00    +0.000 NA
ATOM      5  N   UNL     1       1.424   9.677  19.076  0.00  0.00    +0.000 N 
ENDROOT
BRANCH   5   6
ATOM      6  C   UNL     1       0.718  10.894  19.251  0.00  0.00    +0.000 A 
ATOM      7  C   UNL     1       1.135  11.782  20.254  0.00  0.00    +0.000 A 
ATOM      8  C   UNL     1       0.551  13.036  20.402  0.00  0.00    +0.000 A 
ATOM      9  C   UNL     1      -0.815  12.852  20.216  0.00  0.00    +0.000 A 
ATOM     10  N   UNL     1      -1.868  13.250  20.983  0.00  0.00    +0.000 N 
ATOM     11  C   UNL     1      -3.003  12.680  20.476  0.00  0.00    +0.000 A 
ATOM     12  N   UNL     1      -2.740  12.003  19.369  0.00  0.00    +0.000 NA
ATOM     13  C   UNL     1      -1.367  11.963  19.300  0.00  0.00    +0.000 A 
ATOM     14  C   UNL     1      -0.514  11.101  18.602  0.00  0.00    +0.000 A 
ATOM     15  H   UNL     1      -1.793  13.742  21.860  0.00  0.00    +0.000 HD
BRANCH  11  16
ATOM     16  C   UNL     1      -4.308  12.859  21.173  0.00  0.00    +0.000 C 
BRANCH  16  17
ATOM     17  C   UNL     1      -5.519  12.906  20.262  0.00  0.00    +0.000 A 
ATOM     18  C   UNL     1      -5.938  14.108  19.667  0.00  0.00    +0.000 A 
ATOM     19  C   UNL     1      -6.955  14.102  18.694  0.00  0.00    +0.000 A 
ATOM     20  C   UNL     1      -7.569  12.916  18.336  0.00  0.00    +0.000 A 
ATOM     21  C   UNL     1      -7.199  11.725  18.958  0.00  0.00    +0.000 A 
ATOM     22  C   UNL     1      -6.189  11.721  19.923  0.00  0.00    +0.000 A 
ENDBRANCH  16  17
ENDBRANCH  11  16
ENDBRANCH   5   6
BRANCH   1  23
ATOM     23  N   UNL     1       0.979   8.478  21.182  0.00  0.00    +0.000 N 
ATOM     24  H   UNL     1       1.588   8.240  21.964  0.00  0.00    +0.000 HD
ATOM     25  H   UNL     1      -0.002   8.553  21.433  0.00  0.00    +0.000 HD
ENDBRANCH   1  23
BRANCH   2  26
ATOM     26  C   UNL     1       2.445   6.235  19.696  0.00  0.00    +0.000 C 
ATOM     27  O   UNL     1       1.935   5.759  20.712  0.00  0.00    +0.000 OA
BRANCH  26  28
ATOM     28  C   UNL     1       3.420   5.525  18.920  0.00  0.00    +0.000 A 
ATOM     29  C   UNL     1       3.359   4.901  17.676  0.00  0.00    +0.000 A 
ATOM     30  C   UNL     1       4.651   4.453  17.321  0.00  0.00    +0.000 A 
ATOM     31  C   UNL     1       5.169   3.836  16.182  0.00  0.00    +0.000 A 
ATOM     32  C   UNL     1       6.435   4.247  15.796  0.00  0.00    +0.000 A 
ATOM     33  C   UNL     1       7.320   4.702  16.766  0.00  0.00    +0.000 A 
ATOM     34  C   UNL     1       6.912   4.888  18.092  0.00  0.00    +0.000 A 
ATOM     35  C   UNL     1       5.530   4.919  18.286  0.00  0.00    +0.000 A 
ATOM     36  N   UNL     1       4.737   5.412  19.315  0.00  0.00    +0.000 N 
ATOM     37  H   UNL     1       5.133   5.817  20.165  0.00  0.00    +0.000 HD
ENDBRANCH  26  28
ENDBRANCH   2  26
TORSDOF 6
ENDMDL
