MODEL 1
REMARK VINA RESULT:      -8.5      0.000      0.000
REMARK  Name = 
REMARK  6 active torsions:
REMARK  status: ('A' for Active; 'I' for Inactive)
REMARK    1  A    between atoms: C_1  and  C_2
REMARK    2  A    between atoms: N_4  and  C_5
REMARK    3  A    between atoms: C_12  and  C_13
REMARK    4  A    between atoms: C_13  and  O_15
REMARK    5  A    between atoms: C_22  and  C_23
REMARK    6  A    between atoms: C_25  and  C_26
REMARK                            x       y       z     vdW  Elec       q    Type
REMARK                         _______ _______ _______ _____ _____    ______ ____
ROOT
ATOM      1  C   UNL     1       1.850   8.086  19.068  0.00  0.00    +0.000 A 
ATOM      2  C   UNL     1       2.469   8.708  17.964  0.00  0.00    +0.000 A 
ATOM      3  F   UNL     1       2.103   9.935  17.565  0.00  0.00    +0.000 F 
ATOM      4  C   UNL     1       3.506   8.120  17.258  0.00  0.00    +0.000 A 
ATOM      5  C   UNL     1       3.962   6.866  17.644  0.00  0.00    +0.000 A 
ATOM      6  C   UNL     1       5.077   6.258  16.883  0.00  0.00    +0.000 A 
ATOM      7  O   UNL     1       5.599   6.840  15.933  0.00  0.00    +0.000 OA
ATOM      8  C   UNL     1       5.547   4.921  17.280  0.00  0.00    +0.000 A 
ATOM      9  C   UNL     1       4.932   4.348  18.325  0.00  0.00    +0.000 A 
ATOM     10  N   UNL     1       3.870   4.881  19.046  0.00  0.00    +0.000 N 
ATOM     11  C   UNL     1       3.380   6.159  18.715  0.00  0.00    +0.000 A 
ATOM     12  C   UNL     1       2.315   6.774  19.395  0.00  0.00    +0.000 A 
ATOM     13  O   UNL     1       1.577   6.087  20.326  0.00  0.00    +0.000 OA
ATOM     14  C   UNL     1       2.178   4.955  20.935  0.00  0.00    +0.000 C 
ATOM     15  C   UNL     1       3.191   4.139  20.122  0.00  0.00    +0.000 C 
ATOM     16  C   UNL     1       2.530   2.870  19.571  0.00  0.00    +0.000 C 
ENDROOT
BRANCH   1  20
ATOM     17  C   UNL     1       1.478  11.832  20.004  0.00  0.00    +0.000 C 
ATOM     18  C   UNL     1       0.156  11.083  20.164  0.00  0.00    +0.000 C 
ATOM     19  C   UNL     1       0.043   9.830  19.268  0.00  0.00    +0.000 C 
ATOM     20  N   UNL     1       0.855   8.725  19.796  0.00  0.00    +0.000 N 
ATOM     21  C   UNL     1       0.605   8.427  21.213  0.00  0.00    +0.000 C 
ATOM     22  C   UNL     1       0.735   9.719  22.051  0.00  0.00    +0.000 C 
ATOM     23  C   UNL     1       0.343   9.458  23.500  0.00  0.00    +0.000 C 
ATOM     24  O   UNL     1      -0.104  10.775  21.550  0.00  0.00    +0.000 OA
ENDBRANCH   1  20
BRANCH   8  25
ATOM     25  C   UNL     1       6.639   4.207  16.587  0.00  0.00    +0.000 C 
ATOM     26  O   UNL     1       7.828   4.439  16.788  0.00  0.00    +0.000 OA
BRANCH  25  27
ATOM     27  O   UNL     1       6.230   3.265  15.709  0.00  0.00    +0.000 OA
ATOM     28  H   UNL     1       5.575   3.592  15.042  0.00  0.00    +0.000 HD
ENDBRANCH  25  27
ENDBRANCH   8  25
TORSDOF 3
ENDMDL
MODEL 2
REMARK VINA RESULT:      -8.3      2.162      3.793
REMARK  Name = 
REMARK  6 active torsions:
REMARK  status: ('A' for Active; 'I' for Inactive)
REMARK    1  A    between atoms: C_1  and  C_2
REMARK    2  A    between atoms: N_4  and  C_5
REMARK    3  A    between atoms: C_12  and  C_13
REMARK    4  A    between atoms: C_13  and  O_15
REMARK    5  A    between atoms: C_22  and  C_23
REMARK    6  A    between atoms: C_25  and  C_26
REMARK                            x       y       z     vdW  Elec       q    Type
REMARK                         _______ _______ _______ _____ _____    ______ ____
ROOT
ATOM      1  C   UNL     1       1.611   8.147  19.553  0.00  0.00    +0.000 A 
ATOM      2  C   UNL     1       1.104   7.402  20.638  0.00  0.00    +0.000 A 
ATOM      3  F   UNL     1       0.159   7.908  21.444  0.00  0.00    +0.000 F 
ATOM      4  C   UNL     1       1.511   6.107  20.911  0.00  0.00    +0.000 A 
ATOM      5  C   UNL     1       2.459   5.508  20.089  0.00  0.00    +0.000 A 
ATOM      6  C   UNL     1       2.875   4.120  20.393  0.00  0.00    +0.000 A 
ATOM      7  O   UNL     1       2.399   3.499  21.342  0.00  0.00    +0.000 OA
ATOM      8  C   UNL     1       3.893   3.493  19.535  0.00  0.00    +0.000 A 
ATOM      9  C   UNL     1       4.367   4.228  18.519  0.00  0.00    +0.000 A 
ATOM     10  N   UNL     1       4.014   5.539  18.221  0.00  0.00    +0.000 N 
ATOM     11  C   UNL     1       3.042   6.191  19.004  0.00  0.00    +0.000 A 
ATOM     12  C   UNL     1       2.623   7.511  18.769  0.00  0.00    +0.000 A 
ATOM     13  O   UNL     1       3.264   8.306  17.851  0.00  0.00    +0.000 OA
ATOM     14  C   UNL     1       4.005   7.660  16.828  0.00  0.00    +0.000 C 
ATOM     15  C   UNL     1       4.656   6.307  17.139  0.00  0.00    +0.000 C 
ATOM     16  C   UNL     1       6.153   6.490  17.420  0.00  0.00    +0.000 C 
ENDROOT
BRANCH   1  20
ATOM     17  C   UNL     1      -0.352  10.631  21.795  0.00  0.00    +0.000 C 
ATOM     18  C   UNL     1       0.268  11.337  20.591  0.00  0.00    +0.000 C 
ATOM     19  C   UNL     1       1.515  10.620  20.027  0.00  0.00    +0.000 C 
ATOM     20  N   UNL     1       1.138   9.422  19.266  0.00  0.00    +0.000 N 
ATOM     21  C   UNL     1       0.117   9.667  18.237  0.00  0.00    +0.000 C 
ATOM     22  C   UNL     1      -1.099  10.382  18.865  0.00  0.00    +0.000 C 
ATOM     23  C   UNL     1      -2.106  10.770  17.789  0.00  0.00    +0.000 C 
ATOM     24  O   UNL     1      -0.718  11.580  19.565  0.00  0.00    +0.000 OA
ENDBRANCH   1  20
BRANCH   8  25
ATOM     25  C   UNL     1       4.399   2.121  19.748  0.00  0.00    +0.000 C 
ATOM     26  O   UNL     1       5.081   1.799  20.717  0.00  0.00    +0.000 OA
BRANCH  25  27
ATOM     27  O   UNL     1       4.048   1.234  18.791  0.00  0.00    +0.000 OA
ATOM     28  H   UNL     1       4.551   1.334  17.945  0.00  0.00    +0.000 HD
ENDBRANCH  25  27
ENDBRANCH   8  25
TORSDOF 3
ENDMDL
MODEL 3
REMARK VINA RESULT:      -7.8      0.934      1.358
REMARK  Name = 
REMARK  6 active torsions:
REMARK  status: ('A' for Active; 'I' for Inactive)
REMARK    1  A    between atoms: C_1  and  C_2
REMARK    2  A    between atoms: N_4  and  C_5
REMARK    3  A    between atoms: C_12  and  C_13
REMARK    4  A    between atoms: C_13  and  O_15
REMARK    5  A    between atoms: C_22  and  C_23
REMARK    6  A    between atoms: C_25  and  C_26
REMARK                            x       y       z     vdW  Elec       q    Type
REMARK                         _______ _______ _______ _____ _____    ______ ____
ROOT
ATOM      1  C   UNL     1       1.821   8.454  19.140  0.00  0.00    +0.000 A 
ATOM      2  C   UNL     1       2.417   8.996  17.982  0.00  0.00    +0.000 A 
ATOM      3  F   UNL     1       2.085  10.218  17.541  0.00  0.00    +0.000 F 
ATOM      4  C   UNL     1       3.395   8.331  17.263  0.00  0.00    +0.000 A 
ATOM      5  C   UNL     1       3.814   7.076  17.690  0.00  0.00    +0.000 A 
ATOM      6  C   UNL     1       4.867   6.384  16.912  0.00  0.00    +0.000 A 
ATOM      7  O   UNL     1       5.370   6.897  15.914  0.00  0.00    +0.000 OA
ATOM      8  C   UNL     1       5.297   5.048  17.353  0.00  0.00    +0.000 A 
ATOM      9  C   UNL     1       4.705   4.552  18.449  0.00  0.00    +0.000 A 
ATOM     10  N   UNL     1       3.700   5.165  19.188  0.00  0.00    +0.000 N 
ATOM     11  C   UNL     1       3.250   6.446  18.817  0.00  0.00    +0.000 A 
ATOM     12  C   UNL     1       2.244   7.139  19.511  0.00  0.00    +0.000 A 
ATOM     13  O   UNL     1       1.519   6.530  20.505  0.00  0.00    +0.000 OA
ATOM     14  C   UNL     1       2.098   5.402  21.141  0.00  0.00    +0.000 C 
ATOM     15  C   UNL     1       3.038   4.504  20.327  0.00  0.00    +0.000 C 
ATOM     16  C   UNL     1       2.300   3.242  19.866  0.00  0.00    +0.000 C 
ENDROOT
BRANCH   1  20
ATOM     17  C   UNL     1      -1.171  10.608  17.934  0.00  0.00    +0.000 C 
ATOM     18  C   UNL     1      -1.308  10.240  19.410  0.00  0.00    +0.000 C 
ATOM     19  C   UNL     1      -0.561   8.944  19.796  0.00  0.00    +0.000 C 
ATOM     20  N   UNL     1       0.887   9.171  19.878  0.00  0.00    +0.000 N 
ATOM     21  C   UNL     1       1.264  10.311  20.726  0.00  0.00    +0.000 C 
ATOM     22  C   UNL     1       0.486  11.570  20.287  0.00  0.00    +0.000 C 
ATOM     23  C   UNL     1       0.757  12.727  21.242  0.00  0.00    +0.000 C 
ATOM     24  O   UNL     1      -0.935  11.345  20.260  0.00  0.00    +0.000 OA
ENDBRANCH   1  20
BRANCH   8  25
ATOM     25  C   UNL     1       6.326   4.254  16.649  0.00  0.00    +0.000 C 
ATOM     26  O   UNL     1       7.530   4.472  16.752  0.00  0.00    +0.000 OA
BRANCH  25  27
ATOM     27  O   UNL     1       5.840   3.256  15.880  0.00  0.00    +0.000 OA
ATOM     28  H   UNL     1       4.877   3.342  15.667  0.00  0.00    +0.000 HD
ENDBRANCH  25  27
ENDBRANCH   8  25
TORSDOF 3
ENDMDL
MODEL 4
REMARK VINA RESULT:      -7.8      5.269     10.754
REMARK  Name = 
REMARK  6 active torsions:
REMARK  status: ('A' for Active; 'I' for Inactive)
REMARK    1  A    between atoms: C_1  and  C_2
REMARK    2  A    between atoms: N_4  and  C_5
REMARK    3  A    between atoms: C_12  and  C_13
REMARK    4  A    between atoms: C_13  and  O_15
REMARK    5  A    between atoms: C_22  and  C_23
REMARK    6  A    between atoms: C_25  and  C_26
REMARK                            x       y       z     vdW  Elec       q    Type
REMARK                         _______ _______ _______ _____ _____    ______ ____
ROOT
ATOM      1  C   UNL     1      -1.756  12.032  20.259  0.00  0.00    +0.000 A 
ATOM      2  C   UNL     1      -1.376  12.223  21.604  0.00  0.00    +0.000 A 
ATOM      3  F   UNL     1      -0.090  12.145  21.977  0.00  0.00    +0.000 F 
ATOM      4  C   UNL     1      -2.284  12.538  22.601  0.00  0.00    +0.000 A 
ATOM      5  C   UNL     1      -3.628  12.674  22.274  0.00  0.00    +0.000 A 
ATOM      6  C   UNL     1      -4.582  13.020  23.352  0.00  0.00    +0.000 A 
ATOM      7  O   UNL     1      -4.207  13.191  24.511  0.00  0.00    +0.000 OA
ATOM      8  C   UNL     1      -6.007  13.145  23.009  0.00  0.00    +0.000 A 
ATOM      9  C   UNL     1      -6.343  12.946  21.726  0.00  0.00    +0.000 A 
ATOM     10  N   UNL     1      -5.476  12.599  20.696  0.00  0.00    +0.000 N 
ATOM     11  C   UNL     1      -4.100  12.469  20.962  0.00  0.00    +0.000 A 
ATOM     12  C   UNL     1      -3.155  12.128  19.980  0.00  0.00    +0.000 A 
ATOM     13  O   UNL     1      -3.548  11.737  18.724  0.00  0.00    +0.000 OA
ATOM     14  C   UNL     1      -4.836  12.137  18.285  0.00  0.00    +0.000 C 
ATOM     15  C   UNL     1      -5.946  12.306  19.330  0.00  0.00    +0.000 C 
ATOM     16  C   UNL     1      -6.870  11.083  19.327  0.00  0.00    +0.000 C 
ENDROOT
BRANCH   1  20
ATOM     17  C   UNL     1       1.149   9.462  20.196  0.00  0.00    +0.000 C 
ATOM     18  C   UNL     1       0.822   9.968  18.792  0.00  0.00    +0.000 C 
ATOM     19  C   UNL     1      -0.633  10.464  18.638  0.00  0.00    +0.000 C 
ATOM     20  N   UNL     1      -0.816  11.778  19.269  0.00  0.00    +0.000 N 
ATOM     21  C   UNL     1       0.170  12.784  18.846  0.00  0.00    +0.000 C 
ATOM     22  C   UNL     1       1.599  12.226  19.027  0.00  0.00    +0.000 C 
ATOM     23  C   UNL     1       2.628  13.198  18.464  0.00  0.00    +0.000 C 
ATOM     24  O   UNL     1       1.774  10.962  18.361  0.00  0.00    +0.000 OA
ENDBRANCH   1  20
BRANCH   8  25
ATOM     25  C   UNL     1      -7.053  13.469  24.001  0.00  0.00    +0.000 C 
ATOM     26  O   UNL     1      -7.917  12.670  24.354  0.00  0.00    +0.000 OA
BRANCH  25  27
ATOM     27  O   UNL     1      -6.987  14.722  24.502  0.00  0.00    +0.000 OA
ATOM     28  H   UNL     1      -6.150  15.202  24.280  0.00  0.00    +0.000 HD
ENDBRANCH  25  27
ENDBRANCH   8  25
TORSDOF 3
ENDMDL
MODEL 5
REMARK VINA RESULT:      -7.8      7.958     10.261
REMARK  Name = 
REMARK  6 active torsions:
REMARK  status: ('A' for Active; 'I' for Inactive)
REMARK    1  A    between atoms: C_1  and  C_2
REMARK    2  A    between atoms: N_4  and  C_5
REMARK    3  A    between atoms: C_12  and  C_13
REMARK    4  A    between atoms: C_13  and  O_15
REMARK    5  A    between atoms: C_22  and  C_23
REMARK    6  A    between atoms: C_25  and  C_26
REMARK                            x       y       z     vdW  Elec       q    Type
REMARK                         _______ _______ _______ _____ _____    ______ ____
ROOT
ATOM      1  C   UNL     1      -4.556  13.255  21.484  0.00  0.00    +0.000 A 
ATOM      2  C   UNL     1      -3.166  13.024  21.412  0.00  0.00    +0.000 A 
ATOM      3  F   UNL     1      -2.362  13.314  22.446  0.00  0.00    +0.000 F 
ATOM      4  C   UNL     1      -2.558  12.455  20.306  0.00  0.00    +0.000 A 
ATOM      5  C   UNL     1      -3.341  12.093  19.215  0.00  0.00    +0.000 A 
ATOM      6  C   UNL     1      -2.674  11.479  18.045  0.00  0.00    +0.000 A 
ATOM      7  O   UNL     1      -1.460  11.282  18.027  0.00  0.00    +0.000 OA
ATOM      8  C   UNL     1      -3.499  11.113  16.883  0.00  0.00    +0.000 A 
ATOM      9  C   UNL     1      -4.815  11.355  16.973  0.00  0.00    +0.000 A 
ATOM     10  N   UNL     1      -5.467  11.950  18.046  0.00  0.00    +0.000 N 
ATOM     11  C   UNL     1      -4.731  12.318  19.189  0.00  0.00    +0.000 A 
ATOM     12  C   UNL     1      -5.312  12.918  20.318  0.00  0.00    +0.000 A 
ATOM     13  O   UNL     1      -6.620  13.335  20.307  0.00  0.00    +0.000 OA
ATOM     14  C   UNL     1      -7.491  12.735  19.361  0.00  0.00    +0.000 C 
ATOM     15  C   UNL     1      -6.907  12.266  18.022  0.00  0.00    +0.000 C 
ATOM     16  C   UNL     1      -7.219  13.285  16.920  0.00  0.00    +0.000 C 
ENDROOT
BRANCH   1  20
ATOM     17  C   UNL     1      -7.912  12.311  23.185  0.00  0.00    +0.000 C 
ATOM     18  C   UNL     1      -7.002  13.085  24.137  0.00  0.00    +0.000 C 
ATOM     19  C   UNL     1      -5.500  12.954  23.800  0.00  0.00    +0.000 C 
ATOM     20  N   UNL     1      -5.147  13.770  22.631  0.00  0.00    +0.000 N 
ATOM     21  C   UNL     1      -5.582  15.171  22.729  0.00  0.00    +0.000 C 
ATOM     22  C   UNL     1      -7.088  15.229  23.065  0.00  0.00    +0.000 C 
ATOM     23  C   UNL     1      -7.527  16.668  23.309  0.00  0.00    +0.000 C 
ATOM     24  O   UNL     1      -7.409  14.465  24.242  0.00  0.00    +0.000 OA
ENDBRANCH   1  20
BRANCH   8  25
ATOM     25  C   UNL     1      -2.945  10.509  15.653  0.00  0.00    +0.000 C 
ATOM     26  O   UNL     1      -3.282  10.854  14.524  0.00  0.00    +0.000 OA
BRANCH  25  27
ATOM     27  O   UNL     1      -2.025   9.543  15.864  0.00  0.00    +0.000 OA
ATOM     28  H   UNL     1      -2.365   8.768  16.378  0.00  0.00    +0.000 HD
ENDBRANCH  25  27
ENDBRANCH   8  25
TORSDOF 3
ENDMDL
MODEL 6
REMARK VINA RESULT:      -7.8      5.297      8.364
REMARK  Name = 
REMARK  6 active torsions:
REMARK  status: ('A' for Active; 'I' for Inactive)
REMARK    1  A    between atoms: C_1  and  C_2
REMARK    2  A    between atoms: N_4  and  C_5
REMARK    3  A    between atoms: C_12  and  C_13
REMARK    4  A    between atoms: C_13  and  O_15
REMARK    5  A    between atoms: C_22  and  C_23
REMARK    6  A    between atoms: C_25  and  C_26
REMARK                            x       y       z     vdW  Elec       q    Type
REMARK                         _______ _______ _______ _____ _____    ______ ____
ROOT
ATOM      1  C   UNL     1      -3.860  12.860  20.456  0.00  0.00    +0.000 A 
ATOM      2  C   UNL     1      -2.762  13.063  21.317  0.00  0.00    +0.000 A 
ATOM      3  F   UNL     1      -2.873  13.829  22.412  0.00  0.00    +0.000 F 
ATOM      4  C   UNL     1      -1.531  12.461  21.114  0.00  0.00    +0.000 A 
ATOM      5  C   UNL     1      -1.360  11.622  20.019  0.00  0.00    +0.000 A 
ATOM      6  C   UNL     1      -0.040  10.982  19.824  0.00  0.00    +0.000 A 
ATOM      7  O   UNL     1       0.890  11.174  20.606  0.00  0.00    +0.000 OA
ATOM      8  C   UNL     1       0.147  10.108  18.654  0.00  0.00    +0.000 A 
ATOM      9  C   UNL     1      -0.910   9.944  17.846  0.00  0.00    +0.000 A 
ATOM     10  N   UNL     1      -2.154  10.547  17.988  0.00  0.00    +0.000 N 
ATOM     11  C   UNL     1      -2.394  11.389  19.091  0.00  0.00    +0.000 A 
ATOM     12  C   UNL     1      -3.622  12.034  19.313  0.00  0.00    +0.000 A 
ATOM     13  O   UNL     1      -4.619  12.007  18.370  0.00  0.00    +0.000 OA
ATOM     14  C   UNL     1      -4.592  10.957  17.417  0.00  0.00    +0.000 C 
ATOM     15  C   UNL     1      -3.232  10.383  16.997  0.00  0.00    +0.000 C 
ATOM     16  C   UNL     1      -2.811  10.957  15.639  0.00  0.00    +0.000 C 
ENDROOT
BRANCH   1  20
ATOM     17  C   UNL     1      -7.415  11.382  19.978  0.00  0.00    +0.000 C 
ATOM     18  C   UNL     1      -7.434  12.589  20.914  0.00  0.00    +0.000 C 
ATOM     19  C   UNL     1      -6.088  12.836  21.631  0.00  0.00    +0.000 C 
ATOM     20  N   UNL     1      -5.101  13.427  20.718  0.00  0.00    +0.000 N 
ATOM     21  C   UNL     1      -5.587  14.618  20.006  0.00  0.00    +0.000 C 
ATOM     22  C   UNL     1      -6.930  14.303  19.312  0.00  0.00    +0.000 C 
ATOM     23  C   UNL     1      -7.518  15.562  18.687  0.00  0.00    +0.000 C 
ATOM     24  O   UNL     1      -7.902  13.772  20.232  0.00  0.00    +0.000 OA
ENDBRANCH   1  20
BRANCH   8  25
ATOM     25  C   UNL     1       1.422   9.429  18.346  0.00  0.00    +0.000 C 
ATOM     26  O   UNL     1       2.103   9.692  17.359  0.00  0.00    +0.000 OA
BRANCH  25  27
ATOM     27  O   UNL     1       1.791   8.488  19.243  0.00  0.00    +0.000 OA
ATOM     28  H   UNL     1       1.970   7.599  18.846  0.00  0.00    +0.000 HD
ENDBRANCH  25  27
ENDBRANCH   8  25
TORSDOF 3
ENDMDL
MODEL 7
REMARK VINA RESULT:      -7.7      5.332      8.257
REMARK  Name = 
REMARK  6 active torsions:
REMARK  status: ('A' for Active; 'I' for Inactive)
REMARK    1  A    between atoms: C_1  and  C_2
REMARK    2  A    between atoms: N_4  and  C_5
REMARK    3  A    between atoms: C_12  and  C_13
REMARK    4  A    between atoms: C_13  and  O_15
REMARK    5  A    between atoms: C_22  and  C_23
REMARK    6  A    between atoms: C_25  and  C_26
REMARK                            x       y       z     vdW  Elec       q    Type
REMARK                         _______ _______ _______ _____ _____    ______ ____
ROOT
ATOM      1  C   UNL     1      -4.024  12.816  20.439  0.00  0.00    +0.000 A 
ATOM      2  C   UNL     1      -2.912  13.064  21.271  0.00  0.00    +0.000 A 
ATOM      3  F   UNL     1      -3.028  13.813  22.378  0.00  0.00    +0.000 F 
ATOM      4  C   UNL     1      -1.660  12.525  21.027  0.00  0.00    +0.000 A 
ATOM      5  C   UNL     1      -1.480  11.706  19.918  0.00  0.00    +0.000 A 
ATOM      6  C   UNL     1      -0.136  11.133  19.679  0.00  0.00    +0.000 A 
ATOM      7  O   UNL     1       0.805  11.364  20.436  0.00  0.00    +0.000 OA
ATOM      8  C   UNL     1       0.059  10.282  18.494  0.00  0.00    +0.000 A 
ATOM      9  C   UNL     1      -1.011  10.073  17.714  0.00  0.00    +0.000 A 
ATOM     10  N   UNL     1      -2.278  10.614  17.899  0.00  0.00    +0.000 N 
ATOM     11  C   UNL     1      -2.527  11.432  19.017  0.00  0.00    +0.000 A 
ATOM     12  C   UNL     1      -3.778  12.013  19.282  0.00  0.00    +0.000 A 
ATOM     13  O   UNL     1      -4.800  11.947  18.367  0.00  0.00    +0.000 OA
ATOM     14  C   UNL     1      -4.749  10.909  17.401  0.00  0.00    +0.000 C 
ATOM     15  C   UNL     1      -3.376  10.407  16.937  0.00  0.00    +0.000 C 
ATOM     16  C   UNL     1      -3.022  11.014  15.574  0.00  0.00    +0.000 C 
ENDROOT
BRANCH   1  20
ATOM     17  C   UNL     1      -5.025  16.221  22.005  0.00  0.00    +0.000 C 
ATOM     18  C   UNL     1      -6.215  15.550  21.322  0.00  0.00    +0.000 C 
ATOM     19  C   UNL     1      -5.811  14.574  20.194  0.00  0.00    +0.000 C 
ATOM     20  N   UNL     1      -5.283  13.318  20.743  0.00  0.00    +0.000 N 
ATOM     21  C   UNL     1      -6.158  12.691  21.744  0.00  0.00    +0.000 C 
ATOM     22  C   UNL     1      -6.521  13.716  22.840  0.00  0.00    +0.000 C 
ATOM     23  C   UNL     1      -7.538  13.127  23.809  0.00  0.00    +0.000 C 
ATOM     24  O   UNL     1      -7.084  14.921  22.288  0.00  0.00    +0.000 OA
ENDBRANCH   1  20
BRANCH   8  25
ATOM     25  C   UNL     1       1.357   9.669  18.143  0.00  0.00    +0.000 C 
ATOM     26  O   UNL     1       1.684   8.539  18.495  0.00  0.00    +0.000 OA
BRANCH  25  27
ATOM     27  O   UNL     1       2.165  10.448  17.391  0.00  0.00    +0.000 OA
ATOM     28  H   UNL     1       1.713  11.238  17.000  0.00  0.00    +0.000 HD
ENDBRANCH  25  27
ENDBRANCH   8  25
TORSDOF 3
ENDMDL
MODEL 8
REMARK VINA RESULT:      -7.6      2.228      3.950
REMARK  Name = 
REMARK  6 active torsions:
REMARK  status: ('A' for Active; 'I' for Inactive)
REMARK    1  A    between atoms: C_1  and  C_2
REMARK    2  A    between atoms: N_4  and  C_5
REMARK    3  A    between atoms: C_12  and  C_13
REMARK    4  A    between atoms: C_13  and  O_15
REMARK    5  A    between atoms: C_22  and  C_23
REMARK    6  A    between atoms: C_25  and  C_26
REMARK                            x       y       z     vdW  Elec       q    Type
REMARK                         _______ _______ _______ _____ _____    ______ ____
ROOT
ATOM      1  C   UNL     1       1.635   8.564  19.009  0.00  0.00    +0.000 A 
ATOM      2  C   UNL     1       1.094   8.094  20.224  0.00  0.00    +0.000 A 
ATOM      3  F   UNL     1       0.193   8.815  20.906  0.00  0.00    +0.000 F 
ATOM      4  C   UNL     1       1.421   6.859  20.760  0.00  0.00    +0.000 A 
ATOM      5  C   UNL     1       2.320   6.043  20.082  0.00  0.00    +0.000 A 
ATOM      6  C   UNL     1       2.650   4.724  20.667  0.00  0.00    +0.000 A 
ATOM      7  O   UNL     1       2.147   4.345  21.723  0.00  0.00    +0.000 OA
ATOM      8  C   UNL     1       3.616   3.869  19.959  0.00  0.00    +0.000 A 
ATOM      9  C   UNL     1       4.123   4.346  18.814  0.00  0.00    +0.000 A 
ATOM     10  N   UNL     1       3.851   5.587  18.250  0.00  0.00    +0.000 N 
ATOM     11  C   UNL     1       2.932   6.448  18.880  0.00  0.00    +0.000 A 
ATOM     12  C   UNL     1       2.595   7.715  18.375  0.00  0.00    +0.000 A 
ATOM     13  O   UNL     1       3.274   8.260  17.314  0.00  0.00    +0.000 OA
ATOM     14  C   UNL     1       3.961   7.370  16.448  0.00  0.00    +0.000 C 
ATOM     15  C   UNL     1       4.528   6.071  17.034  0.00  0.00    +0.000 C 
ATOM     16  C   UNL     1       6.036   6.210  17.273  0.00  0.00    +0.000 C 
ENDROOT
BRANCH   1  20
ATOM     17  C   UNL     1       1.133  12.009  20.722  0.00  0.00    +0.000 C 
ATOM     18  C   UNL     1       1.257  12.152  19.206  0.00  0.00    +0.000 C 
ATOM     19  C   UNL     1       2.048  11.005  18.539  0.00  0.00    +0.000 C 
ATOM     20  N   UNL     1       1.241   9.779  18.463  0.00  0.00    +0.000 N 
ATOM     21  C   UNL     1      -0.084   9.975  17.859  0.00  0.00    +0.000 C 
ATOM     22  C   UNL     1      -0.820  11.132  18.571  0.00  0.00    +0.000 C 
ATOM     23  C   UNL     1      -2.136  11.442  17.869  0.00  0.00    +0.000 C 
ATOM     24  O   UNL     1      -0.036  12.339  18.592  0.00  0.00    +0.000 OA
ENDBRANCH   1  20
BRANCH   8  25
ATOM     25  C   UNL     1       4.036   2.541  20.453  0.00  0.00    +0.000 C 
ATOM     26  O   UNL     1       4.876   1.847  19.887  0.00  0.00    +0.000 OA
BRANCH  25  27
ATOM     27  O   UNL     1       3.425   2.142  21.591  0.00  0.00    +0.000 OA
ATOM     28  H   UNL     1       2.452   1.987  21.493  0.00  0.00    +0.000 HD
ENDBRANCH  25  27
ENDBRANCH   8  25
TORSDOF 3
ENDMDL
MODEL 9
REMARK VINA RESULT:      -7.6      5.520     10.699
REMARK  Name = 
REMARK  6 active torsions:
REMARK  status: ('A' for Active; 'I' for Inactive)
REMARK    1  A    between atoms: C_1  and  C_2
REMARK    2  A    between atoms: N_4  and  C_5
REMARK    3  A    between atoms: C_12  and  C_13
REMARK    4  A    between atoms: C_13  and  O_15
REMARK    5  A    between atoms: C_22  and  C_23
REMARK    6  A    between atoms: C_25  and  C_26
REMARK                            x       y       z     vdW  Elec       q    Type
REMARK                         _______ _______ _______ _____ _____    ______ ____
ROOT
ATOM      1  C   UNL     1      -2.406  12.051  19.324  0.00  0.00    +0.000 A 
ATOM      2  C   UNL     1      -3.670  12.030  18.700  0.00  0.00    +0.000 A 
ATOM      3  F   UNL     1      -3.795  11.728  17.399  0.00  0.00    +0.000 F 
ATOM      4  C   UNL     1      -4.848  12.276  19.386  0.00  0.00    +0.000 A 
ATOM      5  C   UNL     1      -4.793  12.556  20.746  0.00  0.00    +0.000 A 
ATOM      6  C   UNL     1      -6.063  12.808  21.464  0.00  0.00    +0.000 A 
ATOM      7  O   UNL     1      -7.147  12.768  20.885  0.00  0.00    +0.000 OA
ATOM      8  C   UNL     1      -6.003  13.124  22.900  0.00  0.00    +0.000 A 
ATOM      9  C   UNL     1      -4.787  13.149  23.465  0.00  0.00    +0.000 A 
ATOM     10  N   UNL     1      -3.576  12.940  22.816  0.00  0.00    +0.000 N 
ATOM     11  C   UNL     1      -3.570  12.629  21.443  0.00  0.00    +0.000 A 
ATOM     12  C   UNL     1      -2.393  12.398  20.712  0.00  0.00    +0.000 A 
ATOM     13  O   UNL     1      -1.158  12.624  21.265  0.00  0.00    +0.000 OA
ATOM     14  C   UNL     1      -1.062  12.620  22.681  0.00  0.00    +0.000 C 
ATOM     15  C   UNL     1      -2.277  13.080  23.497  0.00  0.00    +0.000 C 
ATOM     16  C   UNL     1      -2.074  14.520  23.984  0.00  0.00    +0.000 C 
ENDROOT
BRANCH   1  20
ATOM     17  C   UNL     1       0.609   9.846  20.373  0.00  0.00    +0.000 C 
ATOM     18  C   UNL     1       0.579  10.068  18.862  0.00  0.00    +0.000 C 
ATOM     19  C   UNL     1      -0.832  10.366  18.309  0.00  0.00    +0.000 C 
ATOM     20  N   UNL     1      -1.247  11.739  18.625  0.00  0.00    +0.000 N 
ATOM     21  C   UNL     1      -0.264  12.762  18.239  0.00  0.00    +0.000 C 
ATOM     22  C   UNL     1       1.120  12.405  18.824  0.00  0.00    +0.000 C 
ATOM     23  C   UNL     1       2.181  13.376  18.320  0.00  0.00    +0.000 C 
ATOM     24  O   UNL     1       1.533  11.074  18.463  0.00  0.00    +0.000 OA
ENDBRANCH   1  20
BRANCH   8  25
ATOM     25  C   UNL     1      -7.200  13.409  23.717  0.00  0.00    +0.000 C 
ATOM     26  O   UNL     1      -7.917  12.531  24.190  0.00  0.00    +0.000 OA
BRANCH  25  27
ATOM     27  O   UNL     1      -7.449  14.722  23.914  0.00  0.00    +0.000 OA
ATOM     28  H   UNL     1      -7.114  15.072  24.778  0.00  0.00    +0.000 HD
ENDBRANCH  25  27
ENDBRANCH   8  25
TORSDOF 3
ENDMDL
