MODEL 1
REMARK VINA RESULT:      -6.4      0.000      0.000
REMARK  Name = 
REMARK  9 active torsions:
REMARK  status: ('A' for Active; 'I' for Inactive)
REMARK    1  A    between atoms: C_1  and  C_2
REMARK    2  A    between atoms: C_2  and  C_3
REMARK    3  A    between atoms: C_3  and  C_4
REMARK    4  A    between atoms: C_7  and  S_8
REMARK    5  A    between atoms: S_8  and  C_9
REMARK    6  A    between atoms: C_11  and  C_12
REMARK    7  A    between atoms: C_12  and  C_13
REMARK    8  A    between atoms: C_13  and  C_14
REMARK    9  A    between atoms: C_16  and  C_17
REMARK                            x       y       z     vdW  Elec       q    Type
REMARK                         _______ _______ _______ _____ _____    ______ ____
ROOT
ATOM      1  C   UNL     1       5.834   6.100  18.021  0.00  0.00    +0.000 A 
ATOM      2  N   UNL     1       6.611   5.129  18.387  0.00  0.00    +0.000 NA
ATOM      3  N   UNL     1       6.074   3.934  18.883  0.00  0.00    +0.000 NA
ATOM      4  C   UNL     1       4.795   3.773  19.053  0.00  0.00    +0.000 A 
ATOM      5  N   UNL     1       3.917   4.842  18.803  0.00  0.00    +0.000 N 
ATOM      6  C   UNL     1       2.555   5.059  18.986  0.00  0.00    +0.000 A 
ATOM      7  N   UNL     1       2.203   6.232  18.489  0.00  0.00    +0.000 NA
ATOM      8  C   UNL     1       3.341   6.837  18.036  0.00  0.00    +0.000 A 
ATOM      9  C   UNL     1       3.240   8.192  17.446  0.00  0.00    +0.000 C 
ATOM     10  C   UNL     1       4.416   6.004  18.249  0.00  0.00    +0.000 A 
ENDROOT
BRANCH   4  11
ATOM     11  S   UNL     1       4.269   2.175  19.562  0.00  0.00    +0.000 S 
ATOM     12  C   UNL     1       3.480   1.546  18.050  0.00  0.00    +0.000 C 
ENDBRANCH   4  11
BRANCH   1  13
ATOM     13  C   UNL     1       6.471   7.277  17.318  0.00  0.00    +0.000 C 
BRANCH  13  15
ATOM     14  C   UNL     1       8.169   9.076  17.915  0.00  0.00    +0.000 C 
ATOM     15  C   UNL     1       7.842   7.588  17.926  0.00  0.00    +0.000 C 
ENDBRANCH  13  15
ENDBRANCH   1  13
BRANCH   6  16
ATOM     16  C   UNL     1       1.550   4.186  19.667  0.00  0.00    +0.000 C 
BRANCH  16  17
ATOM     17  C   UNL     1       1.762   4.109  21.184  0.00  0.00    +0.000 C 
ATOM     18  C   UNL     1       1.513   2.734  21.783  0.00  0.00    +0.000 C 
ENDBRANCH  16  17
ENDBRANCH   6  16
TORSDOF 5
ENDMDL
MODEL 2
REMARK VINA RESULT:      -6.3      2.025      6.060
REMARK  Name = 
REMARK  9 active torsions:
REMARK  status: ('A' for Active; 'I' for Inactive)
REMARK    1  A    between atoms: C_1  and  C_2
REMARK    2  A    between atoms: C_2  and  C_3
REMARK    3  A    between atoms: C_3  and  C_4
REMARK    4  A    between atoms: C_7  and  S_8
REMARK    5  A    between atoms: S_8  and  C_9
REMARK    6  A    between atoms: C_11  and  C_12
REMARK    7  A    between atoms: C_12  and  C_13
REMARK    8  A    between atoms: C_13  and  C_14
REMARK    9  A    between atoms: C_16  and  C_17
REMARK                            x       y       z     vdW  Elec       q    Type
REMARK                         _______ _______ _______ _____ _____    ______ ____
ROOT
ATOM      1  C   UNL     1       2.452   4.869  20.563  0.00  0.00    +0.000 A 
ATOM      2  N   UNL     1       1.724   5.932  20.703  0.00  0.00    +0.000 NA
ATOM      3  N   UNL     1       1.873   7.019  19.832  0.00  0.00    +0.000 NA
ATOM      4  C   UNL     1       2.777   7.031  18.897  0.00  0.00    +0.000 A 
ATOM      5  N   UNL     1       3.685   5.963  18.788  0.00  0.00    +0.000 N 
ATOM      6  C   UNL     1       4.815   5.708  18.019  0.00  0.00    +0.000 A 
ATOM      7  N   UNL     1       5.261   4.485  18.245  0.00  0.00    +0.000 NA
ATOM      8  C   UNL     1       4.476   3.942  19.222  0.00  0.00    +0.000 A 
ATOM      9  C   UNL     1       4.774   2.570  19.694  0.00  0.00    +0.000 C 
ATOM     10  C   UNL     1       3.513   4.853  19.591  0.00  0.00    +0.000 A 
ENDROOT
BRANCH   4  11
ATOM     11  S   UNL     1       2.754   8.409  17.806  0.00  0.00    +0.000 S 
ATOM     12  C   UNL     1       1.398   9.404  18.497  0.00  0.00    +0.000 C 
ENDBRANCH   4  11
BRANCH   1  13
ATOM     13  C   UNL     1       2.104   3.668  21.413  0.00  0.00    +0.000 C 
BRANCH  13  15
ATOM     14  C   UNL     1       0.981   2.602  19.394  0.00  0.00    +0.000 C 
ATOM     15  C   UNL     1       0.856   2.967  20.868  0.00  0.00    +0.000 C 
ENDBRANCH  13  15
ENDBRANCH   1  13
BRANCH   6  16
ATOM     16  C   UNL     1       5.531   6.619  17.074  0.00  0.00    +0.000 C 
BRANCH  16  17
ATOM     17  C   UNL     1       7.054   6.578  17.250  0.00  0.00    +0.000 C 
ATOM     18  C   UNL     1       7.683   7.923  17.580  0.00  0.00    +0.000 C 
ENDBRANCH  16  17
ENDBRANCH   6  16
TORSDOF 5
ENDMDL
MODEL 3
REMARK VINA RESULT:      -6.1      1.226      1.846
REMARK  Name = 
REMARK  9 active torsions:
REMARK  status: ('A' for Active; 'I' for Inactive)
REMARK    1  A    between atoms: C_1  and  C_2
REMARK    2  A    between atoms: C_2  and  C_3
REMARK    3  A    between atoms: C_3  and  C_4
REMARK    4  A    between atoms: C_7  and  S_8
REMARK    5  A    between atoms: S_8  and  C_9
REMARK    6  A    between atoms: C_11  and  C_12
REMARK    7  A    between atoms: C_12  and  C_13
REMARK    8  A    between atoms: C_13  and  C_14
REMARK    9  A    between atoms: C_16  and  C_17
REMARK                            x       y       z     vdW  Elec       q    Type
REMARK                         _______ _______ _______ _____ _____    ______ ____
ROOT
ATOM      1  C   UNL     1       5.409   5.892  17.889  0.00  0.00    +0.000 A 
ATOM      2  N   UNL     1       6.256   4.932  18.094  0.00  0.00    +0.000 NA
ATOM      3  N   UNL     1       5.888   3.805  18.839  0.00  0.00    +0.000 NA
ATOM      4  C   UNL     1       4.719   3.702  19.400  0.00  0.00    +0.000 A 
ATOM      5  N   UNL     1       3.812   4.773  19.325  0.00  0.00    +0.000 N 
ATOM      6  C   UNL     1       2.571   5.051  19.888  0.00  0.00    +0.000 A 
ATOM      7  N   UNL     1       2.091   6.186  19.411  0.00  0.00    +0.000 NA
ATOM      8  C   UNL     1       3.042   6.711  18.582  0.00  0.00    +0.000 A 
ATOM      9  C   UNL     1       2.774   8.011  17.924  0.00  0.00    +0.000 C 
ATOM     10  C   UNL     1       4.126   5.864  18.539  0.00  0.00    +0.000 A 
ENDROOT
BRANCH   4  11
ATOM     11  S   UNL     1       4.364   2.174  20.192  0.00  0.00    +0.000 S 
ATOM     12  C   UNL     1       3.839   1.143  18.789  0.00  0.00    +0.000 C 
ENDBRANCH   4  11
BRANCH   1  13
ATOM     13  C   UNL     1       5.811   6.980  16.918  0.00  0.00    +0.000 C 
BRANCH  13  15
ATOM     14  C   UNL     1       5.630   5.333  14.987  0.00  0.00    +0.000 C 
ATOM     15  C   UNL     1       5.232   6.701  15.528  0.00  0.00    +0.000 C 
ENDBRANCH  13  15
ENDBRANCH   1  13
BRANCH   6  16
ATOM     16  C   UNL     1       1.814   4.276  20.919  0.00  0.00    +0.000 C 
BRANCH  16  17
ATOM     17  C   UNL     1       0.731   3.378  20.309  0.00  0.00    +0.000 C 
ATOM     18  C   UNL     1       0.898   3.119  18.820  0.00  0.00    +0.000 C 
ENDBRANCH  16  17
ENDBRANCH   6  16
TORSDOF 5
ENDMDL
MODEL 4
REMARK VINA RESULT:      -6.1      2.280      6.014
REMARK  Name = 
REMARK  9 active torsions:
REMARK  status: ('A' for Active; 'I' for Inactive)
REMARK    1  A    between atoms: C_1  and  C_2
REMARK    2  A    between atoms: C_2  and  C_3
REMARK    3  A    between atoms: C_3  and  C_4
REMARK    4  A    between atoms: C_7  and  S_8
REMARK    5  A    between atoms: S_8  and  C_9
REMARK    6  A    between atoms: C_11  and  C_12
REMARK    7  A    between atoms: C_12  and  C_13
REMARK    8  A    between atoms: C_13  and  C_14
REMARK    9  A    between atoms: C_16  and  C_17
REMARK                            x       y       z     vdW  Elec       q    Type
REMARK                         _______ _______ _______ _____ _____    ______ ____
ROOT
ATOM      1  C   UNL     1       2.485   4.822  20.582  0.00  0.00    +0.000 A 
ATOM      2  N   UNL     1       1.797   5.911  20.732  0.00  0.00    +0.000 NA
ATOM      3  N   UNL     1       1.933   6.971  19.828  0.00  0.00    +0.000 NA
ATOM      4  C   UNL     1       2.786   6.933  18.847  0.00  0.00    +0.000 A 
ATOM      5  N   UNL     1       3.655   5.835  18.718  0.00  0.00    +0.000 N 
ATOM      6  C   UNL     1       4.735   5.527  17.898  0.00  0.00    +0.000 A 
ATOM      7  N   UNL     1       5.156   4.296  18.132  0.00  0.00    +0.000 NA
ATOM      8  C   UNL     1       4.407   3.801  19.162  0.00  0.00    +0.000 A 
ATOM      9  C   UNL     1       4.689   2.432  19.653  0.00  0.00    +0.000 C 
ATOM     10  C   UNL     1       3.492   4.750  19.557  0.00  0.00    +0.000 A 
ENDROOT
BRANCH   4  11
ATOM     11  S   UNL     1       2.747   8.285  17.724  0.00  0.00    +0.000 S 
ATOM     12  C   UNL     1       1.479   9.350  18.474  0.00  0.00    +0.000 C 
ENDBRANCH   4  11
BRANCH   1  13
ATOM     13  C   UNL     1       2.147   3.653  21.479  0.00  0.00    +0.000 C 
BRANCH  13  15
ATOM     14  C   UNL     1       0.940   2.614  19.494  0.00  0.00    +0.000 C 
ATOM     15  C   UNL     1       0.885   2.941  20.981  0.00  0.00    +0.000 C 
ENDBRANCH  13  15
ENDBRANCH   1  13
BRANCH   6  16
ATOM     16  C   UNL     1       5.428   6.393  16.895  0.00  0.00    +0.000 C 
BRANCH  16  17
ATOM     17  C   UNL     1       5.350   5.828  15.471  0.00  0.00    +0.000 C 
ATOM     18  C   UNL     1       6.568   5.019  15.050  0.00  0.00    +0.000 C 
ENDBRANCH  16  17
ENDBRANCH   6  16
TORSDOF 5
ENDMDL
MODEL 5
REMARK VINA RESULT:      -6.1      2.183      2.762
REMARK  Name = 
REMARK  9 active torsions:
REMARK  status: ('A' for Active; 'I' for Inactive)
REMARK    1  A    between atoms: C_1  and  C_2
REMARK    2  A    between atoms: C_2  and  C_3
REMARK    3  A    between atoms: C_3  and  C_4
REMARK    4  A    between atoms: C_7  and  S_8
REMARK    5  A    between atoms: S_8  and  C_9
REMARK    6  A    between atoms: C_11  and  C_12
REMARK    7  A    between atoms: C_12  and  C_13
REMARK    8  A    between atoms: C_13  and  C_14
REMARK    9  A    between atoms: C_16  and  C_17
REMARK                            x       y       z     vdW  Elec       q    Type
REMARK                         _______ _______ _______ _____ _____    ______ ____
ROOT
ATOM      1  C   UNL     1       5.161   4.329  18.325  0.00  0.00    +0.000 A 
ATOM      2  N   UNL     1       5.229   3.272  19.073  0.00  0.00    +0.000 NA
ATOM      3  N   UNL     1       4.254   3.023  20.047  0.00  0.00    +0.000 NA
ATOM      4  C   UNL     1       3.287   3.860  20.281  0.00  0.00    +0.000 A 
ATOM      5  N   UNL     1       3.243   5.087  19.596  0.00  0.00    +0.000 N 
ATOM      6  C   UNL     1       2.456   6.231  19.678  0.00  0.00    +0.000 A 
ATOM      7  N   UNL     1       2.778   7.082  18.720  0.00  0.00    +0.000 NA
ATOM      8  C   UNL     1       3.832   6.544  18.038  0.00  0.00    +0.000 A 
ATOM      9  C   UNL     1       4.419   7.312  16.914  0.00  0.00    +0.000 C 
ATOM     10  C   UNL     1       4.153   5.323  18.584  0.00  0.00    +0.000 A 
ENDROOT
BRANCH   4  11
ATOM     11  S   UNL     1       2.073   3.346  21.444  0.00  0.00    +0.000 S 
ATOM     12  C   UNL     1       0.672   2.937  20.359  0.00  0.00    +0.000 C 
ENDBRANCH   4  11
BRANCH   1  13
ATOM     13  C   UNL     1       6.133   4.432  17.172  0.00  0.00    +0.000 C 
BRANCH  13  15
ATOM     14  C   UNL     1       7.658   5.972  18.506  0.00  0.00    +0.000 C 
ATOM     15  C   UNL     1       7.552   4.692  17.687  0.00  0.00    +0.000 C 
ENDBRANCH  13  15
ENDBRANCH   1  13
BRANCH   6  16
ATOM     16  C   UNL     1       1.401   6.574  20.681  0.00  0.00    +0.000 C 
BRANCH  16  17
ATOM     17  C   UNL     1       1.337   8.076  20.983  0.00  0.00    +0.000 C 
ATOM     18  C   UNL     1      -0.019   8.559  21.474  0.00  0.00    +0.000 C 
ENDBRANCH  16  17
ENDBRANCH   6  16
TORSDOF 5
ENDMDL
MODEL 6
REMARK VINA RESULT:      -6.0      2.575      5.992
REMARK  Name = 
REMARK  9 active torsions:
REMARK  status: ('A' for Active; 'I' for Inactive)
REMARK    1  A    between atoms: C_1  and  C_2
REMARK    2  A    between atoms: C_2  and  C_3
REMARK    3  A    between atoms: C_3  and  C_4
REMARK    4  A    between atoms: C_7  and  S_8
REMARK    5  A    between atoms: S_8  and  C_9
REMARK    6  A    between atoms: C_11  and  C_12
REMARK    7  A    between atoms: C_12  and  C_13
REMARK    8  A    between atoms: C_13  and  C_14
REMARK    9  A    between atoms: C_16  and  C_17
REMARK                            x       y       z     vdW  Elec       q    Type
REMARK                         _______ _______ _______ _____ _____    ______ ____
ROOT
ATOM      1  C   UNL     1       1.794   4.402  19.609  0.00  0.00    +0.000 A 
ATOM      2  N   UNL     1       1.539   5.591  20.059  0.00  0.00    +0.000 NA
ATOM      3  N   UNL     1       2.072   6.722  19.429  0.00  0.00    +0.000 NA
ATOM      4  C   UNL     1       2.883   6.626  18.416  0.00  0.00    +0.000 A 
ATOM      5  N   UNL     1       3.302   5.359  17.973  0.00  0.00    +0.000 N 
ATOM      6  C   UNL     1       4.222   4.900  17.037  0.00  0.00    +0.000 A 
ATOM      7  N   UNL     1       4.166   3.583  16.941  0.00  0.00    +0.000 NA
ATOM      8  C   UNL     1       3.260   3.149  17.867  0.00  0.00    +0.000 A 
ATOM      9  C   UNL     1       3.017   1.693  17.996  0.00  0.00    +0.000 C 
ATOM     10  C   UNL     1       2.736   4.232  18.536  0.00  0.00    +0.000 A 
ENDROOT
BRANCH   4  11
ATOM     11  S   UNL     1       3.364   8.136  17.655  0.00  0.00    +0.000 S 
ATOM     12  C   UNL     1       1.876   9.154  17.881  0.00  0.00    +0.000 C 
ENDBRANCH   4  11
BRANCH   1  13
ATOM     13  C   UNL     1       1.032   3.247  20.219  0.00  0.00    +0.000 C 
BRANCH  13  15
ATOM     14  C   UNL     1       2.971   2.366  21.611  0.00  0.00    +0.000 C 
ATOM     15  C   UNL     1       1.559   2.937  21.623  0.00  0.00    +0.000 C 
ENDBRANCH  13  15
ENDBRANCH   1  13
BRANCH   6  16
ATOM     16  C   UNL     1       5.208   5.683  16.229  0.00  0.00    +0.000 C 
BRANCH  16  17
ATOM     17  C   UNL     1       6.348   4.814  15.681  0.00  0.00    +0.000 C 
ATOM     18  C   UNL     1       6.177   4.401  14.228  0.00  0.00    +0.000 C 
ENDBRANCH  16  17
ENDBRANCH   6  16
TORSDOF 5
ENDMDL
MODEL 7
REMARK VINA RESULT:      -6.0      2.220      5.896
REMARK  Name = 
REMARK  9 active torsions:
REMARK  status: ('A' for Active; 'I' for Inactive)
REMARK    1  A    between atoms: C_1  and  C_2
REMARK    2  A    between atoms: C_2  and  C_3
REMARK    3  A    between atoms: C_3  and  C_4
REMARK    4  A    between atoms: C_7  and  S_8
REMARK    5  A    between atoms: S_8  and  C_9
REMARK    6  A    between atoms: C_11  and  C_12
REMARK    7  A    between atoms: C_12  and  C_13
REMARK    8  A    between atoms: C_13  and  C_14
REMARK    9  A    between atoms: C_16  and  C_17
REMARK                            x       y       z     vdW  Elec       q    Type
REMARK                         _______ _______ _______ _____ _____    ______ ____
ROOT
ATOM      1  C   UNL     1       1.783   4.371  19.560  0.00  0.00    +0.000 A 
ATOM      2  N   UNL     1       1.456   5.520  20.064  0.00  0.00    +0.000 NA
ATOM      3  N   UNL     1       1.922   6.709  19.490  0.00  0.00    +0.000 NA
ATOM      4  C   UNL     1       2.741   6.711  18.479  0.00  0.00    +0.000 A 
ATOM      5  N   UNL     1       3.237   5.494  17.981  0.00  0.00    +0.000 N 
ATOM      6  C   UNL     1       4.187   5.135  17.030  0.00  0.00    +0.000 A 
ATOM      7  N   UNL     1       4.210   3.823  16.872  0.00  0.00    +0.000 NA
ATOM      8  C   UNL     1       3.329   3.292  17.771  0.00  0.00    +0.000 A 
ATOM      9  C   UNL     1       3.173   1.820  17.830  0.00  0.00    +0.000 C 
ATOM     10  C   UNL     1       2.738   4.309  18.486  0.00  0.00    +0.000 A 
ENDROOT
BRANCH   4  11
ATOM     11  S   UNL     1       3.133   8.281  17.794  0.00  0.00    +0.000 S 
ATOM     12  C   UNL     1       1.547   9.156  17.944  0.00  0.00    +0.000 C 
ENDBRANCH   4  11
BRANCH   1  13
ATOM     13  C   UNL     1       1.090   3.145  20.110  0.00  0.00    +0.000 C 
BRANCH  13  15
ATOM     14  C   UNL     1       3.038   2.379  21.557  0.00  0.00    +0.000 C 
ATOM     15  C   UNL     1       1.585   2.837  21.526  0.00  0.00    +0.000 C 
ENDBRANCH  13  15
ENDBRANCH   1  13
BRANCH   6  16
ATOM     16  C   UNL     1       5.126   6.013  16.266  0.00  0.00    +0.000 C 
BRANCH  16  17
ATOM     17  C   UNL     1       6.598   5.643  16.490  0.00  0.00    +0.000 C 
ATOM     18  C   UNL     1       7.283   6.437  17.591  0.00  0.00    +0.000 C 
ENDBRANCH  16  17
ENDBRANCH   6  16
TORSDOF 5
ENDMDL
MODEL 8
REMARK VINA RESULT:      -5.9      2.141      5.215
REMARK  Name = 
REMARK  9 active torsions:
REMARK  status: ('A' for Active; 'I' for Inactive)
REMARK    1  A    between atoms: C_1  and  C_2
REMARK    2  A    between atoms: C_2  and  C_3
REMARK    3  A    between atoms: C_3  and  C_4
REMARK    4  A    between atoms: C_7  and  S_8
REMARK    5  A    between atoms: S_8  and  C_9
REMARK    6  A    between atoms: C_11  and  C_12
REMARK    7  A    between atoms: C_12  and  C_13
REMARK    8  A    between atoms: C_13  and  C_14
REMARK    9  A    between atoms: C_16  and  C_17
REMARK                            x       y       z     vdW  Elec       q    Type
REMARK                         _______ _______ _______ _____ _____    ______ ____
ROOT
ATOM      1  C   UNL     1       2.425   3.922  18.259  0.00  0.00    +0.000 A 
ATOM      2  N   UNL     1       2.744   2.912  17.511  0.00  0.00    +0.000 NA
ATOM      3  N   UNL     1       3.916   2.933  16.745  0.00  0.00    +0.000 NA
ATOM      4  C   UNL     1       4.693   3.976  16.706  0.00  0.00    +0.000 A 
ATOM      5  N   UNL     1       4.324   5.148  17.389  0.00  0.00    +0.000 N 
ATOM      6  C   UNL     1       4.829   6.442  17.464  0.00  0.00    +0.000 A 
ATOM      7  N   UNL     1       4.145   7.154  18.343  0.00  0.00    +0.000 NA
ATOM      8  C   UNL     1       3.132   6.363  18.805  0.00  0.00    +0.000 A 
ATOM      9  C   UNL     1       2.183   6.926  19.793  0.00  0.00    +0.000 C 
ATOM     10  C   UNL     1       3.210   5.127  18.204  0.00  0.00    +0.000 A 
ENDROOT
BRANCH   4  11
ATOM     11  S   UNL     1       6.189   3.801  15.801  0.00  0.00    +0.000 S 
ATOM     12  C   UNL     1       5.653   4.220  14.116  0.00  0.00    +0.000 C 
ENDBRANCH   4  11
BRANCH   1  13
ATOM     13  C   UNL     1       1.254   3.751  19.201  0.00  0.00    +0.000 C 
BRANCH  13  15
ATOM     14  C   UNL     1       1.457   2.845  21.571  0.00  0.00    +0.000 C 
ATOM     15  C   UNL     1       1.450   2.514  20.083  0.00  0.00    +0.000 C 
ENDBRANCH  13  15
ENDBRANCH   1  13
BRANCH   6  16
ATOM     16  C   UNL     1       5.948   7.059  16.687  0.00  0.00    +0.000 C 
BRANCH  16  17
ATOM     17  C   UNL     1       7.191   7.323  17.545  0.00  0.00    +0.000 C 
ATOM     18  C   UNL     1       7.596   6.160  18.436  0.00  0.00    +0.000 C 
ENDBRANCH  16  17
ENDBRANCH   6  16
TORSDOF 5
ENDMDL
MODEL 9
REMARK VINA RESULT:      -5.9      2.456      3.342
REMARK  Name = 
REMARK  9 active torsions:
REMARK  status: ('A' for Active; 'I' for Inactive)
REMARK    1  A    between atoms: C_1  and  C_2
REMARK    2  A    between atoms: C_2  and  C_3
REMARK    3  A    between atoms: C_3  and  C_4
REMARK    4  A    between atoms: C_7  and  S_8
REMARK    5  A    between atoms: S_8  and  C_9
REMARK    6  A    between atoms: C_11  and  C_12
REMARK    7  A    between atoms: C_12  and  C_13
REMARK    8  A    between atoms: C_13  and  C_14
REMARK    9  A    between atoms: C_16  and  C_17
REMARK                            x       y       z     vdW  Elec       q    Type
REMARK                         _______ _______ _______ _____ _____    ______ ____
ROOT
ATOM      1  C   UNL     1       4.097   3.881  17.086  0.00  0.00    +0.000 A 
ATOM      2  N   UNL     1       3.748   2.716  17.535  0.00  0.00    +0.000 NA
ATOM      3  N   UNL     1       2.814   2.602  18.572  0.00  0.00    +0.000 NA
ATOM      4  C   UNL     1       2.308   3.646  19.161  0.00  0.00    +0.000 A 
ATOM      5  N   UNL     1       2.754   4.931  18.808  0.00  0.00    +0.000 N 
ATOM      6  C   UNL     1       2.535   6.216  19.294  0.00  0.00    +0.000 A 
ATOM      7  N   UNL     1       3.138   7.108  18.528  0.00  0.00    +0.000 NA
ATOM      8  C   UNL     1       3.825   6.421  17.569  0.00  0.00    +0.000 A 
ATOM      9  C   UNL     1       4.622   7.183  16.580  0.00  0.00    +0.000 C 
ATOM     10  C   UNL     1       3.623   5.070  17.743  0.00  0.00    +0.000 A 
ENDROOT
BRANCH   4  11
ATOM     11  S   UNL     1       1.055   3.339  20.354  0.00  0.00    +0.000 S 
ATOM     12  C   UNL     1       2.038   2.873  21.811  0.00  0.00    +0.000 C 
ENDBRANCH   4  11
BRANCH   1  13
ATOM     13  C   UNL     1       4.958   3.921  15.844  0.00  0.00    +0.000 C 
BRANCH  13  15
ATOM     14  C   UNL     1       7.219   4.867  15.157  0.00  0.00    +0.000 C 
ATOM     15  C   UNL     1       6.432   4.105  16.217  0.00  0.00    +0.000 C 
ENDBRANCH  13  15
ENDBRANCH   1  13
BRANCH   6  16
ATOM     16  C   UNL     1       1.782   6.641  20.514  0.00  0.00    +0.000 C 
BRANCH  16  17
ATOM     17  C   UNL     1       1.511   8.150  20.548  0.00  0.00    +0.000 C 
ATOM     18  C   UNL     1       0.976   8.661  21.877  0.00  0.00    +0.000 C 
ENDBRANCH  16  17
ENDBRANCH   6  16
TORSDOF 5
ENDMDL
