MODEL 1
REMARK VINA RESULT:      -6.1      0.000      0.000
REMARK  Name = 
REMARK  19 active torsions:
REMARK  status: ('A' for Active; 'I' for Inactive)
REMARK    1  A    between atoms: C_1  and  C_2
REMARK    2  A    between atoms: C_2  and  C_3
REMARK    3  A    between atoms: C_3  and  C_4
REMARK    4  A    between atoms: C_4  and  C_5
REMARK    5  A    between atoms: C_5  and  C_6
REMARK    6  A    between atoms: C_6  and  C_7
REMARK    7  A    between atoms: C_7  and  C_8
REMARK    8  A    between atoms: C_8  and  C_9
REMARK    9  A    between atoms: C_9  and  C_10
REMARK   10  A    between atoms: C_10  and  C_11
REMARK   11  A    between atoms: C_11  and  C_12
REMARK   12  A    between atoms: C_12  and  C_13
REMARK   13  A    between atoms: C_13  and  C_14
REMARK   14  A    between atoms: C_14  and  O_15
REMARK   15  A    between atoms: O_15  and  C_16
REMARK   16  A    between atoms: C_16  and  C_18
REMARK   17  A    between atoms: C_19  and  C_20
REMARK   18  A    between atoms: C_20  and  C_21
REMARK   19  A    between atoms: C_21  and  O_22
REMARK                            x       y       z     vdW  Elec       q    Type
REMARK                         _______ _______ _______ _____ _____    ______ ____
ROOT
ATOM      1  C   UNL     1       2.333   2.152  19.489  0.00  0.00    +0.000 C 
ENDROOT
BRANCH   1   2
ATOM      2  O   UNL     1       2.409   2.063  18.059  0.00  0.00    +0.000 OA
BRANCH   2   3
ATOM      3  C   UNL     1       2.641   3.263  17.456  0.00  0.00    +0.000 C 
ATOM      4  O   UNL     1       1.825   3.941  16.869  0.00  0.00    +0.000 OA
BRANCH   3   5
ATOM      5  C   UNL     1       4.072   3.621  17.590  0.00  0.00    +0.000 C 
ATOM      6  C   UNL     1       4.621   4.565  16.785  0.00  0.00    +0.000 C 
BRANCH   6   7
ATOM      7  C   UNL     1       6.081   4.973  16.791  0.00  0.00    +0.000 C 
ATOM      8  C   UNL     1       6.744   4.822  18.162  0.00  0.00    +0.000 C 
ATOM      9  C   UNL     1       7.661   6.018  18.277  0.00  0.00    +0.000 C 
ATOM     10  C   UNL     1       7.078   6.992  17.303  0.00  0.00    +0.000 C 
ATOM     11  O   UNL     1       7.368   8.168  17.211  0.00  0.00    +0.000 OA
ATOM     12  O   UNL     1       6.173   6.378  16.491  0.00  0.00    +0.000 OA
BRANCH   7  13
ATOM     13  C   UNL     1       6.884   4.214  15.704  0.00  0.00    +0.000 C 
BRANCH  13  14
ATOM     14  O   UNL     1       7.385   5.112  14.710  0.00  0.00    +0.000 OA
ATOM     15  H   UNL     1       7.506   5.980  15.140  0.00  0.00    +0.000 HD
ENDBRANCH  13  14
ENDBRANCH   7  13
ENDBRANCH   6   7
ENDBRANCH   3   5
ENDBRANCH   2   3
ENDBRANCH   1   2
BRANCH   1  16
ATOM     16  C   UNL     1       1.270   3.158  19.905  0.00  0.00    +0.000 C 
BRANCH  16  17
ATOM     17  C   UNL     1       1.855   4.255  20.789  0.00  0.00    +0.000 C 
BRANCH  17  18
ATOM     18  C   UNL     1       1.424   5.636  20.309  0.00  0.00    +0.000 C 
BRANCH  18  19
ATOM     19  C   UNL     1       2.619   6.439  19.811  0.00  0.00    +0.000 C 
BRANCH  19  20
ATOM     20  C   UNL     1       2.379   6.935  18.399  0.00  0.00    +0.000 C 
BRANCH  20  21
ATOM     21  C   UNL     1       2.349   8.453  18.378  0.00  0.00    +0.000 C 
BRANCH  21  22
ATOM     22  C   UNL     1       1.199   8.936  17.511  0.00  0.00    +0.000 C 
BRANCH  22  23
ATOM     23  C   UNL     1       0.277   9.830  18.322  0.00  0.00    +0.000 C 
BRANCH  23  24
ATOM     24  C   UNL     1       1.063  10.536  19.412  0.00  0.00    +0.000 C 
BRANCH  24  25
ATOM     25  C   UNL     1       0.238  11.671  19.998  0.00  0.00    +0.000 C 
BRANCH  25  26
ATOM     26  C   UNL     1       0.412  11.720  21.508  0.00  0.00    +0.000 C 
BRANCH  26  28
ATOM     27  C   UNL     1      -1.227  10.756  23.123  0.00  0.00    +0.000 C 
ATOM     28  C   UNL     1      -0.930  11.918  22.195  0.00  0.00    +0.000 C 
ENDBRANCH  26  28
ENDBRANCH  25  26
ENDBRANCH  24  25
ENDBRANCH  23  24
ENDBRANCH  22  23
ENDBRANCH  21  22
ENDBRANCH  20  21
ENDBRANCH  19  20
ENDBRANCH  18  19
ENDBRANCH  17  18
ENDBRANCH  16  17
ENDBRANCH   1  16
TORSDOF 18
ENDMDL
MODEL 2
REMARK VINA RESULT:      -6.0      5.028      7.984
REMARK  Name = 
REMARK  19 active torsions:
REMARK  status: ('A' for Active; 'I' for Inactive)
REMARK    1  A    between atoms: C_1  and  C_2
REMARK    2  A    between atoms: C_2  and  C_3
REMARK    3  A    between atoms: C_3  and  C_4
REMARK    4  A    between atoms: C_4  and  C_5
REMARK    5  A    between atoms: C_5  and  C_6
REMARK    6  A    between atoms: C_6  and  C_7
REMARK    7  A    between atoms: C_7  and  C_8
REMARK    8  A    between atoms: C_8  and  C_9
REMARK    9  A    between atoms: C_9  and  C_10
REMARK   10  A    between atoms: C_10  and  C_11
REMARK   11  A    between atoms: C_11  and  C_12
REMARK   12  A    between atoms: C_12  and  C_13
REMARK   13  A    between atoms: C_13  and  C_14
REMARK   14  A    between atoms: C_14  and  O_15
REMARK   15  A    between atoms: O_15  and  C_16
REMARK   16  A    between atoms: C_16  and  C_18
REMARK   17  A    between atoms: C_19  and  C_20
REMARK   18  A    between atoms: C_20  and  C_21
REMARK   19  A    between atoms: C_21  and  O_22
REMARK                            x       y       z     vdW  Elec       q    Type
REMARK                         _______ _______ _______ _____ _____    ______ ____
ROOT
ATOM      1  C   UNL     1       8.009   6.852  18.470  0.00  0.00    +0.000 C 
ENDROOT
BRANCH   1   2
ATOM      2  O   UNL     1       6.735   6.276  18.797  0.00  0.00    +0.000 OA
BRANCH   2   3
ATOM      3  C   UNL     1       6.650   4.950  18.497  0.00  0.00    +0.000 C 
ATOM      4  O   UNL     1       7.423   4.319  17.809  0.00  0.00    +0.000 OA
BRANCH   3   5
ATOM      5  C   UNL     1       5.432   4.375  19.114  0.00  0.00    +0.000 C 
ATOM      6  C   UNL     1       4.551   3.668  18.364  0.00  0.00    +0.000 C 
BRANCH   6   7
ATOM      7  C   UNL     1       3.248   3.082  18.870  0.00  0.00    +0.000 C 
ATOM      8  C   UNL     1       2.083   4.074  18.823  0.00  0.00    +0.000 C 
ATOM      9  C   UNL     1       1.295   3.797  20.083  0.00  0.00    +0.000 C 
ATOM     10  C   UNL     1       2.294   3.127  20.972  0.00  0.00    +0.000 C 
ATOM     11  O   UNL     1       2.158   2.912  22.160  0.00  0.00    +0.000 OA
ATOM     12  O   UNL     1       3.396   2.754  20.263  0.00  0.00    +0.000 OA
BRANCH   7  13
ATOM     13  C   UNL     1       2.888   1.775  18.121  0.00  0.00    +0.000 C 
BRANCH  13  14
ATOM     14  O   UNL     1       3.869   0.760  18.352  0.00  0.00    +0.000 OA
ATOM     15  H   UNL     1       4.460   1.086  19.057  0.00  0.00    +0.000 HD
ENDBRANCH  13  14
ENDBRANCH   7  13
ENDBRANCH   6   7
ENDBRANCH   3   5
ENDBRANCH   2   3
ENDBRANCH   1   2
BRANCH   1  16
ATOM     16  C   UNL     1       7.824   8.141  17.683  0.00  0.00    +0.000 C 
BRANCH  16  17
ATOM     17  C   UNL     1       8.866   9.185  18.071  0.00  0.00    +0.000 C 
BRANCH  17  18
ATOM     18  C   UNL     1       8.267  10.587  18.069  0.00  0.00    +0.000 C 
BRANCH  18  19
ATOM     19  C   UNL     1       9.255  11.604  18.626  0.00  0.00    +0.000 C 
BRANCH  19  20
ATOM     20  C   UNL     1      10.523  11.627  17.796  0.00  0.00    +0.000 C 
BRANCH  20  21
ATOM     21  C   UNL     1      11.741  11.634  18.704  0.00  0.00    +0.000 C 
BRANCH  21  22
ATOM     22  C   UNL     1      11.396  12.291  20.028  0.00  0.00    +0.000 C 
BRANCH  22  23
ATOM     23  C   UNL     1      11.593  13.794  19.930  0.00  0.00    +0.000 C 
BRANCH  23  24
ATOM     24  C   UNL     1      10.316  14.513  20.326  0.00  0.00    +0.000 C 
BRANCH  24  25
ATOM     25  C   UNL     1      10.370  14.899  21.795  0.00  0.00    +0.000 C 
BRANCH  25  26
ATOM     26  C   UNL     1       9.105  14.443  22.504  0.00  0.00    +0.000 C 
BRANCH  26  28
ATOM     27  C   UNL     1       8.378  12.066  22.280  0.00  0.00    +0.000 C 
ATOM     28  C   UNL     1       8.343  13.443  21.647  0.00  0.00    +0.000 C 
ENDBRANCH  26  28
ENDBRANCH  25  26
ENDBRANCH  24  25
ENDBRANCH  23  24
ENDBRANCH  22  23
ENDBRANCH  21  22
ENDBRANCH  20  21
ENDBRANCH  19  20
ENDBRANCH  18  19
ENDBRANCH  17  18
ENDBRANCH  16  17
ENDBRANCH   1  16
TORSDOF 18
ENDMDL
MODEL 3
REMARK VINA RESULT:      -6.0      1.994      2.679
REMARK  Name = 
REMARK  19 active torsions:
REMARK  status: ('A' for Active; 'I' for Inactive)
REMARK    1  A    between atoms: C_1  and  C_2
REMARK    2  A    between atoms: C_2  and  C_3
REMARK    3  A    between atoms: C_3  and  C_4
REMARK    4  A    between atoms: C_4  and  C_5
REMARK    5  A    between atoms: C_5  and  C_6
REMARK    6  A    between atoms: C_6  and  C_7
REMARK    7  A    between atoms: C_7  and  C_8
REMARK    8  A    between atoms: C_8  and  C_9
REMARK    9  A    between atoms: C_9  and  C_10
REMARK   10  A    between atoms: C_10  and  C_11
REMARK   11  A    between atoms: C_11  and  C_12
REMARK   12  A    between atoms: C_12  and  C_13
REMARK   13  A    between atoms: C_13  and  C_14
REMARK   14  A    between atoms: C_14  and  O_15
REMARK   15  A    between atoms: O_15  and  C_16
REMARK   16  A    between atoms: C_16  and  C_18
REMARK   17  A    between atoms: C_19  and  C_20
REMARK   18  A    between atoms: C_20  and  C_21
REMARK   19  A    between atoms: C_21  and  O_22
REMARK                            x       y       z     vdW  Elec       q    Type
REMARK                         _______ _______ _______ _____ _____    ______ ____
ROOT
ATOM      1  C   UNL     1       2.823   2.651  20.633  0.00  0.00    +0.000 C 
ENDROOT
BRANCH   1   2
ATOM      2  O   UNL     1       2.547   1.729  19.569  0.00  0.00    +0.000 OA
BRANCH   2   3
ATOM      3  C   UNL     1       2.732   2.266  18.330  0.00  0.00    +0.000 C 
ATOM      4  O   UNL     1       2.107   1.990  17.328  0.00  0.00    +0.000 OA
BRANCH   3   5
ATOM      5  C   UNL     1       3.854   3.233  18.367  0.00  0.00    +0.000 C 
ATOM      6  C   UNL     1       4.208   3.914  17.249  0.00  0.00    +0.000 C 
BRANCH   6   7
ATOM      7  C   UNL     1       5.370   4.883  17.151  0.00  0.00    +0.000 C 
ATOM      8  C   UNL     1       4.961   6.264  16.631  0.00  0.00    +0.000 C 
ATOM      9  C   UNL     1       6.104   6.690  15.738  0.00  0.00    +0.000 C 
ATOM     10  C   UNL     1       6.759   5.394  15.378  0.00  0.00    +0.000 C 
ATOM     11  O   UNL     1       7.596   5.236  14.512  0.00  0.00    +0.000 OA
ATOM     12  O   UNL     1       6.308   4.387  16.179  0.00  0.00    +0.000 OA
BRANCH   7  13
ATOM     13  C   UNL     1       6.121   5.003  18.501  0.00  0.00    +0.000 C 
BRANCH  13  14
ATOM     14  O   UNL     1       7.330   4.241  18.489  0.00  0.00    +0.000 OA
ATOM     15  H   UNL     1       7.209   3.497  19.111  0.00  0.00    +0.000 HD
ENDBRANCH  13  14
ENDBRANCH   7  13
ENDBRANCH   6   7
ENDBRANCH   3   5
ENDBRANCH   2   3
ENDBRANCH   1   2
BRANCH   1  16
ATOM     16  C   UNL     1       1.528   3.128  21.275  0.00  0.00    +0.000 C 
BRANCH  16  17
ATOM     17  C   UNL     1       0.927   4.303  20.509  0.00  0.00    +0.000 C 
BRANCH  17  18
ATOM     18  C   UNL     1       1.854   5.512  20.542  0.00  0.00    +0.000 C 
BRANCH  18  19
ATOM     19  C   UNL     1       1.082   6.783  20.871  0.00  0.00    +0.000 C 
BRANCH  19  20
ATOM     20  C   UNL     1       1.800   8.001  20.323  0.00  0.00    +0.000 C 
BRANCH  20  21
ATOM     21  C   UNL     1       2.347   7.706  18.938  0.00  0.00    +0.000 C 
BRANCH  21  22
ATOM     22  C   UNL     1       1.739   8.659  17.926  0.00  0.00    +0.000 C 
BRANCH  22  23
ATOM     23  C   UNL     1       0.775   9.608  18.619  0.00  0.00    +0.000 C 
BRANCH  23  24
ATOM     24  C   UNL     1      -0.311  10.044  17.652  0.00  0.00    +0.000 C 
BRANCH  24  25
ATOM     25  C   UNL     1      -1.613  10.275  18.401  0.00  0.00    +0.000 C 
BRANCH  25  26
ATOM     26  C   UNL     1      -2.780   9.705  17.611  0.00  0.00    +0.000 C 
BRANCH  26  28
ATOM     27  C   UNL     1      -3.724  11.777  18.631  0.00  0.00    +0.000 C 
ATOM     28  C   UNL     1      -4.049  10.501  17.880  0.00  0.00    +0.000 C 
ENDBRANCH  26  28
ENDBRANCH  25  26
ENDBRANCH  24  25
ENDBRANCH  23  24
ENDBRANCH  22  23
ENDBRANCH  21  22
ENDBRANCH  20  21
ENDBRANCH  19  20
ENDBRANCH  18  19
ENDBRANCH  17  18
ENDBRANCH  16  17
ENDBRANCH   1  16
TORSDOF 18
ENDMDL
MODEL 4
REMARK VINA RESULT:      -6.0      1.391      2.216
REMARK  Name = 
REMARK  19 active torsions:
REMARK  status: ('A' for Active; 'I' for Inactive)
REMARK    1  A    between atoms: C_1  and  C_2
REMARK    2  A    between atoms: C_2  and  C_3
REMARK    3  A    between atoms: C_3  and  C_4
REMARK    4  A    between atoms: C_4  and  C_5
REMARK    5  A    between atoms: C_5  and  C_6
REMARK    6  A    between atoms: C_6  and  C_7
REMARK    7  A    between atoms: C_7  and  C_8
REMARK    8  A    between atoms: C_8  and  C_9
REMARK    9  A    between atoms: C_9  and  C_10
REMARK   10  A    between atoms: C_10  and  C_11
REMARK   11  A    between atoms: C_11  and  C_12
REMARK   12  A    between atoms: C_12  and  C_13
REMARK   13  A    between atoms: C_13  and  C_14
REMARK   14  A    between atoms: C_14  and  O_15
REMARK   15  A    between atoms: O_15  and  C_16
REMARK   16  A    between atoms: C_16  and  C_18
REMARK   17  A    between atoms: C_19  and  C_20
REMARK   18  A    between atoms: C_20  and  C_21
REMARK   19  A    between atoms: C_21  and  O_22
REMARK                            x       y       z     vdW  Elec       q    Type
REMARK                         _______ _______ _______ _____ _____    ______ ____
ROOT
ATOM      1  C   UNL     1       2.336   2.797  20.364  0.00  0.00    +0.000 C 
ENDROOT
BRANCH   1   2
ATOM      2  O   UNL     1       2.164   2.219  19.062  0.00  0.00    +0.000 OA
BRANCH   2   3
ATOM      3  C   UNL     1       3.341   1.903  18.453  0.00  0.00    +0.000 C 
ATOM      4  O   UNL     1       3.908   0.832  18.501  0.00  0.00    +0.000 OA
BRANCH   3   5
ATOM      5  C   UNL     1       3.867   3.087  17.734  0.00  0.00    +0.000 C 
ATOM      6  C   UNL     1       5.109   3.559  18.007  0.00  0.00    +0.000 C 
BRANCH   6   7
ATOM      7  C   UNL     1       5.729   4.791  17.378  0.00  0.00    +0.000 C 
ATOM      8  C   UNL     1       4.695   5.756  16.794  0.00  0.00    +0.000 C 
ATOM      9  C   UNL     1       5.329   6.272  15.523  0.00  0.00    +0.000 C 
ATOM     10  C   UNL     1       6.342   5.221  15.194  0.00  0.00    +0.000 C 
ATOM     11  O   UNL     1       6.944   5.116  14.144  0.00  0.00    +0.000 OA
ATOM     12  O   UNL     1       6.531   4.386  16.254  0.00  0.00    +0.000 OA
BRANCH   7  13
ATOM     13  C   UNL     1       6.664   5.523  18.374  0.00  0.00    +0.000 C 
BRANCH  13  14
ATOM     14  O   UNL     1       6.164   5.437  19.711  0.00  0.00    +0.000 OA
ATOM     15  H   UNL     1       6.716   6.023  20.264  0.00  0.00    +0.000 HD
ENDBRANCH  13  14
ENDBRANCH   7  13
ENDBRANCH   6   7
ENDBRANCH   3   5
ENDBRANCH   2   3
ENDBRANCH   1   2
BRANCH   1  16
ATOM     16  C   UNL     1       1.294   3.880  20.608  0.00  0.00    +0.000 C 
BRANCH  16  17
ATOM     17  C   UNL     1       1.948   5.221  20.927  0.00  0.00    +0.000 C 
BRANCH  17  18
ATOM     18  C   UNL     1       2.597   5.824  19.687  0.00  0.00    +0.000 C 
BRANCH  18  19
ATOM     19  C   UNL     1       1.927   7.138  19.305  0.00  0.00    +0.000 C 
BRANCH  19  20
ATOM     20  C   UNL     1       2.596   7.745  18.087  0.00  0.00    +0.000 C 
BRANCH  20  21
ATOM     21  C   UNL     1       2.289   9.230  18.009  0.00  0.00    +0.000 C 
BRANCH  21  22
ATOM     22  C   UNL     1       0.787   9.448  18.000  0.00  0.00    +0.000 C 
BRANCH  22  23
ATOM     23  C   UNL     1       0.438  10.695  18.795  0.00  0.00    +0.000 C 
BRANCH  23  24
ATOM     24  C   UNL     1      -0.690  10.394  19.765  0.00  0.00    +0.000 C 
BRANCH  24  25
ATOM     25  C   UNL     1      -0.168   9.571  20.931  0.00  0.00    +0.000 C 
BRANCH  25  26
ATOM     26  C   UNL     1       0.124  10.471  22.120  0.00  0.00    +0.000 C 
BRANCH  26  28
ATOM     27  C   UNL     1      -1.884  11.503  23.183  0.00  0.00    +0.000 C 
ATOM     28  C   UNL     1      -0.811  11.672  22.125  0.00  0.00    +0.000 C 
ENDBRANCH  26  28
ENDBRANCH  25  26
ENDBRANCH  24  25
ENDBRANCH  23  24
ENDBRANCH  22  23
ENDBRANCH  21  22
ENDBRANCH  20  21
ENDBRANCH  19  20
ENDBRANCH  18  19
ENDBRANCH  17  18
ENDBRANCH  16  17
ENDBRANCH   1  16
TORSDOF 18
ENDMDL
MODEL 5
REMARK VINA RESULT:      -5.9      4.914      8.066
REMARK  Name = 
REMARK  19 active torsions:
REMARK  status: ('A' for Active; 'I' for Inactive)
REMARK    1  A    between atoms: C_1  and  C_2
REMARK    2  A    between atoms: C_2  and  C_3
REMARK    3  A    between atoms: C_3  and  C_4
REMARK    4  A    between atoms: C_4  and  C_5
REMARK    5  A    between atoms: C_5  and  C_6
REMARK    6  A    between atoms: C_6  and  C_7
REMARK    7  A    between atoms: C_7  and  C_8
REMARK    8  A    between atoms: C_8  and  C_9
REMARK    9  A    between atoms: C_9  and  C_10
REMARK   10  A    between atoms: C_10  and  C_11
REMARK   11  A    between atoms: C_11  and  C_12
REMARK   12  A    between atoms: C_12  and  C_13
REMARK   13  A    between atoms: C_13  and  C_14
REMARK   14  A    between atoms: C_14  and  O_15
REMARK   15  A    between atoms: O_15  and  C_16
REMARK   16  A    between atoms: C_16  and  C_18
REMARK   17  A    between atoms: C_19  and  C_20
REMARK   18  A    between atoms: C_20  and  C_21
REMARK   19  A    between atoms: C_21  and  O_22
REMARK                            x       y       z     vdW  Elec       q    Type
REMARK                         _______ _______ _______ _____ _____    ______ ____
ROOT
ATOM      1  C   UNL     1       7.737   6.746  18.353  0.00  0.00    +0.000 C 
ENDROOT
BRANCH   1   2
ATOM      2  O   UNL     1       7.161   6.837  17.041  0.00  0.00    +0.000 OA
BRANCH   2   3
ATOM      3  C   UNL     1       6.684   5.648  16.578  0.00  0.00    +0.000 C 
ATOM      4  O   UNL     1       7.280   4.859  15.876  0.00  0.00    +0.000 OA
BRANCH   3   5
ATOM      5  C   UNL     1       5.287   5.459  17.034  0.00  0.00    +0.000 C 
ATOM      6  C   UNL     1       4.976   4.460  17.898  0.00  0.00    +0.000 C 
BRANCH   6   7
ATOM      7  C   UNL     1       3.579   4.136  18.388  0.00  0.00    +0.000 C 
ATOM      8  C   UNL     1       2.842   5.350  18.958  0.00  0.00    +0.000 C 
ATOM      9  C   UNL     1       2.075   4.811  20.143  0.00  0.00    +0.000 C 
ATOM     10  C   UNL     1       2.818   3.559  20.491  0.00  0.00    +0.000 C 
ATOM     11  O   UNL     1       2.678   2.908  21.507  0.00  0.00    +0.000 OA
ATOM     12  O   UNL     1       3.675   3.214  19.490  0.00  0.00    +0.000 OA
BRANCH   7  13
ATOM     13  C   UNL     1       2.738   3.450  17.283  0.00  0.00    +0.000 C 
BRANCH  13  14
ATOM     14  O   UNL     1       1.430   4.021  17.199  0.00  0.00    +0.000 OA
ATOM     15  H   UNL     1       1.300   4.564  18.001  0.00  0.00    +0.000 HD
ENDBRANCH  13  14
ENDBRANCH   7  13
ENDBRANCH   6   7
ENDBRANCH   3   5
ENDBRANCH   2   3
ENDBRANCH   1   2
BRANCH   1  16
ATOM     16  C   UNL     1       8.501   8.018  18.689  0.00  0.00    +0.000 C 
BRANCH  16  17
ATOM     17  C   UNL     1       8.139   9.153  17.736  0.00  0.00    +0.000 C 
BRANCH  17  18
ATOM     18  C   UNL     1       8.741  10.474  18.201  0.00  0.00    +0.000 C 
BRANCH  18  19
ATOM     19  C   UNL     1       9.415  10.319  19.558  0.00  0.00    +0.000 C 
BRANCH  19  20
ATOM     20  C   UNL     1      10.243  11.546  19.887  0.00  0.00    +0.000 C 
BRANCH  20  21
ATOM     21  C   UNL     1      11.583  11.477  19.175  0.00  0.00    +0.000 C 
BRANCH  21  22
ATOM     22  C   UNL     1      11.991  12.860  18.703  0.00  0.00    +0.000 C 
BRANCH  22  23
ATOM     23  C   UNL     1      11.749  12.993  17.209  0.00  0.00    +0.000 C 
BRANCH  23  24
ATOM     24  C   UNL     1      11.251  14.389  16.884  0.00  0.00    +0.000 C 
BRANCH  24  25
ATOM     25  C   UNL     1      10.689  15.046  18.134  0.00  0.00    +0.000 C 
BRANCH  25  26
ATOM     26  C   UNL     1       9.479  15.897  17.781  0.00  0.00    +0.000 C 
BRANCH  26  28
ATOM     27  C   UNL     1       7.966  14.304  18.965  0.00  0.00    +0.000 C 
ATOM     28  C   UNL     1       8.396  15.753  18.839  0.00  0.00    +0.000 C 
ENDBRANCH  26  28
ENDBRANCH  25  26
ENDBRANCH  24  25
ENDBRANCH  23  24
ENDBRANCH  22  23
ENDBRANCH  21  22
ENDBRANCH  20  21
ENDBRANCH  19  20
ENDBRANCH  18  19
ENDBRANCH  17  18
ENDBRANCH  16  17
ENDBRANCH   1  16
TORSDOF 18
ENDMDL
MODEL 6
REMARK VINA RESULT:      -5.9      3.677      7.395
REMARK  Name = 
REMARK  19 active torsions:
REMARK  status: ('A' for Active; 'I' for Inactive)
REMARK    1  A    between atoms: C_1  and  C_2
REMARK    2  A    between atoms: C_2  and  C_3
REMARK    3  A    between atoms: C_3  and  C_4
REMARK    4  A    between atoms: C_4  and  C_5
REMARK    5  A    between atoms: C_5  and  C_6
REMARK    6  A    between atoms: C_6  and  C_7
REMARK    7  A    between atoms: C_7  and  C_8
REMARK    8  A    between atoms: C_8  and  C_9
REMARK    9  A    between atoms: C_9  and  C_10
REMARK   10  A    between atoms: C_10  and  C_11
REMARK   11  A    between atoms: C_11  and  C_12
REMARK   12  A    between atoms: C_12  and  C_13
REMARK   13  A    between atoms: C_13  and  C_14
REMARK   14  A    between atoms: C_14  and  O_15
REMARK   15  A    between atoms: O_15  and  C_16
REMARK   16  A    between atoms: C_16  and  C_18
REMARK   17  A    between atoms: C_19  and  C_20
REMARK   18  A    between atoms: C_20  and  C_21
REMARK   19  A    between atoms: C_21  and  O_22
REMARK                            x       y       z     vdW  Elec       q    Type
REMARK                         _______ _______ _______ _____ _____    ______ ____
ROOT
ATOM      1  C   UNL     1       6.701   6.630  16.767  0.00  0.00    +0.000 C 
ENDROOT
BRANCH   1   2
ATOM      2  O   UNL     1       7.395   7.778  17.277  0.00  0.00    +0.000 OA
BRANCH   2   3
ATOM      3  C   UNL     1       8.134   7.512  18.390  0.00  0.00    +0.000 C 
ATOM      4  O   UNL     1       8.264   6.430  18.922  0.00  0.00    +0.000 OA
BRANCH   3   5
ATOM      5  C   UNL     1       8.746   8.763  18.895  0.00  0.00    +0.000 C 
ATOM      6  C   UNL     1       8.662   9.908  18.173  0.00  0.00    +0.000 C 
BRANCH   6   7
ATOM      7  C   UNL     1       9.295  11.230  18.559  0.00  0.00    +0.000 C 
ATOM      8  C   UNL     1       8.711  12.422  17.798  0.00  0.00    +0.000 C 
ATOM      9  C   UNL     1       9.898  13.318  17.523  0.00  0.00    +0.000 C 
ATOM     10  C   UNL     1      11.062  12.384  17.623  0.00  0.00    +0.000 C 
ATOM     11  O   UNL     1      12.201  12.625  17.273  0.00  0.00    +0.000 OA
ATOM     12  O   UNL     1      10.687  11.204  18.193  0.00  0.00    +0.000 OA
BRANCH   7  13
ATOM     13  C   UNL     1       9.223  11.464  20.089  0.00  0.00    +0.000 C 
BRANCH  13  14
ATOM     14  O   UNL     1      10.530  11.495  20.669  0.00  0.00    +0.000 OA
ATOM     15  H   UNL     1      10.998  10.692  20.368  0.00  0.00    +0.000 HD
ENDBRANCH  13  14
ENDBRANCH   7  13
ENDBRANCH   6   7
ENDBRANCH   3   5
ENDBRANCH   2   3
ENDBRANCH   1   2
BRANCH   1  16
ATOM     16  C   UNL     1       5.488   6.313  17.631  0.00  0.00    +0.000 C 
BRANCH  16  17
ATOM     17  C   UNL     1       4.218   6.931  17.056  0.00  0.00    +0.000 C 
BRANCH  17  18
ATOM     18  C   UNL     1       3.123   7.020  18.112  0.00  0.00    +0.000 C 
BRANCH  18  19
ATOM     19  C   UNL     1       3.013   5.719  18.897  0.00  0.00    +0.000 C 
BRANCH  19  20
ATOM     20  C   UNL     1       2.695   5.998  20.352  0.00  0.00    +0.000 C 
BRANCH  20  21
ATOM     21  C   UNL     1       1.981   4.807  20.968  0.00  0.00    +0.000 C 
BRANCH  21  22
ATOM     22  C   UNL     1       0.971   4.243  19.984  0.00  0.00    +0.000 C 
BRANCH  22  23
ATOM     23  C   UNL     1       1.031   2.725  19.990  0.00  0.00    +0.000 C 
BRANCH  23  24
ATOM     24  C   UNL     1       0.995   2.198  18.567  0.00  0.00    +0.000 C 
BRANCH  24  25
ATOM     25  C   UNL     1       2.324   2.464  17.879  0.00  0.00    +0.000 C 
BRANCH  25  26
ATOM     26  C   UNL     1       3.417   1.613  18.503  0.00  0.00    +0.000 C 
BRANCH  26  28
ATOM     27  C   UNL     1       4.480   1.998  20.728  0.00  0.00    +0.000 C 
ATOM     28  C   UNL     1       4.385   2.481  19.294  0.00  0.00    +0.000 C 
ENDBRANCH  26  28
ENDBRANCH  25  26
ENDBRANCH  24  25
ENDBRANCH  23  24
ENDBRANCH  22  23
ENDBRANCH  21  22
ENDBRANCH  20  21
ENDBRANCH  19  20
ENDBRANCH  18  19
ENDBRANCH  17  18
ENDBRANCH  16  17
ENDBRANCH   1  16
TORSDOF 18
ENDMDL
MODEL 7
REMARK VINA RESULT:      -5.8      1.917      3.040
REMARK  Name = 
REMARK  19 active torsions:
REMARK  status: ('A' for Active; 'I' for Inactive)
REMARK    1  A    between atoms: C_1  and  C_2
REMARK    2  A    between atoms: C_2  and  C_3
REMARK    3  A    between atoms: C_3  and  C_4
REMARK    4  A    between atoms: C_4  and  C_5
REMARK    5  A    between atoms: C_5  and  C_6
REMARK    6  A    between atoms: C_6  and  C_7
REMARK    7  A    between atoms: C_7  and  C_8
REMARK    8  A    between atoms: C_8  and  C_9
REMARK    9  A    between atoms: C_9  and  C_10
REMARK   10  A    between atoms: C_10  and  C_11
REMARK   11  A    between atoms: C_11  and  C_12
REMARK   12  A    between atoms: C_12  and  C_13
REMARK   13  A    between atoms: C_13  and  C_14
REMARK   14  A    between atoms: C_14  and  O_15
REMARK   15  A    between atoms: O_15  and  C_16
REMARK   16  A    between atoms: C_16  and  C_18
REMARK   17  A    between atoms: C_19  and  C_20
REMARK   18  A    between atoms: C_20  and  C_21
REMARK   19  A    between atoms: C_21  and  O_22
REMARK                            x       y       z     vdW  Elec       q    Type
REMARK                         _______ _______ _______ _____ _____    ______ ____
ROOT
ATOM      1  C   UNL     1       2.087   2.289  18.752  0.00  0.00    +0.000 C 
ENDROOT
BRANCH   1   2
ATOM      2  O   UNL     1       3.379   1.666  18.731  0.00  0.00    +0.000 OA
BRANCH   2   3
ATOM      3  C   UNL     1       4.320   2.353  19.437  0.00  0.00    +0.000 C 
ATOM      4  O   UNL     1       4.577   2.215  20.614  0.00  0.00    +0.000 OA
BRANCH   3   5
ATOM      5  C   UNL     1       4.983   3.343  18.555  0.00  0.00    +0.000 C 
ATOM      6  C   UNL     1       5.874   4.229  19.067  0.00  0.00    +0.000 C 
BRANCH   6   7
ATOM      7  C   UNL     1       6.569   5.320  18.277  0.00  0.00    +0.000 C 
ATOM      8  C   UNL     1       5.608   6.385  17.745  0.00  0.00    +0.000 C 
ATOM      9  C   UNL     1       6.139   6.728  16.372  0.00  0.00    +0.000 C 
ATOM     10  C   UNL     1       6.952   5.525  16.009  0.00  0.00    +0.000 C 
ATOM     11  O   UNL     1       7.397   5.272  14.907  0.00  0.00    +0.000 OA
ATOM     12  O   UNL     1       7.161   4.737  17.101  0.00  0.00    +0.000 OA
BRANCH   7  13
ATOM     13  C   UNL     1       7.712   5.970  19.097  0.00  0.00    +0.000 C 
BRANCH  13  14
ATOM     14  O   UNL     1       7.783   5.416  20.413  0.00  0.00    +0.000 OA
ATOM     15  H   UNL     1       8.386   4.649  20.371  0.00  0.00    +0.000 HD
ENDBRANCH  13  14
ENDBRANCH   7  13
ENDBRANCH   6   7
ENDBRANCH   3   5
ENDBRANCH   2   3
ENDBRANCH   1   2
BRANCH   1  16
ATOM     16  C   UNL     1       1.979   3.330  17.647  0.00  0.00    +0.000 C 
BRANCH  16  17
ATOM     17  C   UNL     1       1.673   4.714  18.212  0.00  0.00    +0.000 C 
BRANCH  17  18
ATOM     18  C   UNL     1       1.502   4.663  19.726  0.00  0.00    +0.000 C 
BRANCH  18  19
ATOM     19  C   UNL     1       2.496   5.586  20.419  0.00  0.00    +0.000 C 
BRANCH  19  20
ATOM     20  C   UNL     1       2.244   7.030  20.034  0.00  0.00    +0.000 C 
BRANCH  20  21
ATOM     21  C   UNL     1       1.015   7.556  20.754  0.00  0.00    +0.000 C 
BRANCH  21  22
ATOM     22  C   UNL     1       1.408   8.680  21.695  0.00  0.00    +0.000 C 
BRANCH  22  23
ATOM     23  C   UNL     1       0.594   9.925  21.387  0.00  0.00    +0.000 C 
BRANCH  23  24
ATOM     24  C   UNL     1      -0.020   9.816  20.003  0.00  0.00    +0.000 C 
BRANCH  24  25
ATOM     25  C   UNL     1      -0.302  11.202  19.447  0.00  0.00    +0.000 C 
BRANCH  25  26
ATOM     26  C   UNL     1      -1.781  11.347  19.127  0.00  0.00    +0.000 C 
BRANCH  26  28
ATOM     27  C   UNL     1      -2.874   9.765  17.537  0.00  0.00    +0.000 C 
ATOM     28  C   UNL     1      -2.045  11.028  17.663  0.00  0.00    +0.000 C 
ENDBRANCH  26  28
ENDBRANCH  25  26
ENDBRANCH  24  25
ENDBRANCH  23  24
ENDBRANCH  22  23
ENDBRANCH  21  22
ENDBRANCH  20  21
ENDBRANCH  19  20
ENDBRANCH  18  19
ENDBRANCH  17  18
ENDBRANCH  16  17
ENDBRANCH   1  16
TORSDOF 18
ENDMDL
MODEL 8
REMARK VINA RESULT:      -5.8      1.384      1.710
REMARK  Name = 
REMARK  19 active torsions:
REMARK  status: ('A' for Active; 'I' for Inactive)
REMARK    1  A    between atoms: C_1  and  C_2
REMARK    2  A    between atoms: C_2  and  C_3
REMARK    3  A    between atoms: C_3  and  C_4
REMARK    4  A    between atoms: C_4  and  C_5
REMARK    5  A    between atoms: C_5  and  C_6
REMARK    6  A    between atoms: C_6  and  C_7
REMARK    7  A    between atoms: C_7  and  C_8
REMARK    8  A    between atoms: C_8  and  C_9
REMARK    9  A    between atoms: C_9  and  C_10
REMARK   10  A    between atoms: C_10  and  C_11
REMARK   11  A    between atoms: C_11  and  C_12
REMARK   12  A    between atoms: C_12  and  C_13
REMARK   13  A    between atoms: C_13  and  C_14
REMARK   14  A    between atoms: C_14  and  O_15
REMARK   15  A    between atoms: O_15  and  C_16
REMARK   16  A    between atoms: C_16  and  C_18
REMARK   17  A    between atoms: C_19  and  C_20
REMARK   18  A    between atoms: C_20  and  C_21
REMARK   19  A    between atoms: C_21  and  O_22
REMARK                            x       y       z     vdW  Elec       q    Type
REMARK                         _______ _______ _______ _____ _____    ______ ____
ROOT
ATOM      1  C   UNL     1       3.496   2.569  20.156  0.00  0.00    +0.000 C 
ENDROOT
BRANCH   1   2
ATOM      2  O   UNL     1       2.971   1.846  19.033  0.00  0.00    +0.000 OA
BRANCH   2   3
ATOM      3  C   UNL     1       2.846   2.610  17.912  0.00  0.00    +0.000 C 
ATOM      4  O   UNL     1       1.836   2.769  17.261  0.00  0.00    +0.000 OA
BRANCH   3   5
ATOM      5  C   UNL     1       4.157   3.208  17.565  0.00  0.00    +0.000 C 
ATOM      6  C   UNL     1       4.224   4.280  16.738  0.00  0.00    +0.000 C 
BRANCH   6   7
ATOM      7  C   UNL     1       5.505   4.940  16.269  0.00  0.00    +0.000 C 
ATOM      8  C   UNL     1       6.739   4.485  17.051  0.00  0.00    +0.000 C 
ATOM      9  C   UNL     1       7.578   5.733  17.203  0.00  0.00    +0.000 C 
ATOM     10  C   UNL     1       6.585   6.837  17.023  0.00  0.00    +0.000 C 
ATOM     11  O   UNL     1       6.775   8.012  17.266  0.00  0.00    +0.000 OA
ATOM     12  O   UNL     1       5.416   6.356  16.514  0.00  0.00    +0.000 OA
BRANCH   7  13
ATOM     13  C   UNL     1       5.716   4.746  14.746  0.00  0.00    +0.000 C 
BRANCH  13  14
ATOM     14  O   UNL     1       6.377   3.508  14.470  0.00  0.00    +0.000 OA
ATOM     15  H   UNL     1       6.984   3.333  15.214  0.00  0.00    +0.000 HD
ENDBRANCH  13  14
ENDBRANCH   7  13
ENDBRANCH   6   7
ENDBRANCH   3   5
ENDBRANCH   2   3
ENDBRANCH   1   2
BRANCH   1  16
ATOM     16  C   UNL     1       2.399   3.386  20.824  0.00  0.00    +0.000 C 
BRANCH  16  17
ATOM     17  C   UNL     1       2.729   4.876  20.813  0.00  0.00    +0.000 C 
BRANCH  17  18
ATOM     18  C   UNL     1       1.884   5.618  19.784  0.00  0.00    +0.000 C 
BRANCH  18  19
ATOM     19  C   UNL     1       2.228   7.101  19.762  0.00  0.00    +0.000 C 
BRANCH  19  20
ATOM     20  C   UNL     1       2.844   7.488  18.432  0.00  0.00    +0.000 C 
BRANCH  20  21
ATOM     21  C   UNL     1       1.905   8.407  17.670  0.00  0.00    +0.000 C 
BRANCH  21  22
ATOM     22  C   UNL     1       1.324   9.448  18.609  0.00  0.00    +0.000 C 
BRANCH  22  23
ATOM     23  C   UNL     1       0.002   9.961  18.063  0.00  0.00    +0.000 C 
BRANCH  23  24
ATOM     24  C   UNL     1      -0.954  10.252  19.206  0.00  0.00    +0.000 C 
BRANCH  24  25
ATOM     25  C   UNL     1      -1.850  11.427  18.849  0.00  0.00    +0.000 C 
BRANCH  25  26
ATOM     26  C   UNL     1      -1.823  12.464  19.960  0.00  0.00    +0.000 C 
BRANCH  26  28
ATOM     27  C   UNL     1      -0.211  13.850  18.655  0.00  0.00    +0.000 C 
ATOM     28  C   UNL     1      -0.482  13.182  19.989  0.00  0.00    +0.000 C 
ENDBRANCH  26  28
ENDBRANCH  25  26
ENDBRANCH  24  25
ENDBRANCH  23  24
ENDBRANCH  22  23
ENDBRANCH  21  22
ENDBRANCH  20  21
ENDBRANCH  19  20
ENDBRANCH  18  19
ENDBRANCH  17  18
ENDBRANCH  16  17
ENDBRANCH   1  16
TORSDOF 18
ENDMDL
MODEL 9
REMARK VINA RESULT:      -5.8      4.488      7.303
REMARK  Name = 
REMARK  19 active torsions:
REMARK  status: ('A' for Active; 'I' for Inactive)
REMARK    1  A    between atoms: C_1  and  C_2
REMARK    2  A    between atoms: C_2  and  C_3
REMARK    3  A    between atoms: C_3  and  C_4
REMARK    4  A    between atoms: C_4  and  C_5
REMARK    5  A    between atoms: C_5  and  C_6
REMARK    6  A    between atoms: C_6  and  C_7
REMARK    7  A    between atoms: C_7  and  C_8
REMARK    8  A    between atoms: C_8  and  C_9
REMARK    9  A    between atoms: C_9  and  C_10
REMARK   10  A    between atoms: C_10  and  C_11
REMARK   11  A    between atoms: C_11  and  C_12
REMARK   12  A    between atoms: C_12  and  C_13
REMARK   13  A    between atoms: C_13  and  C_14
REMARK   14  A    between atoms: C_14  and  O_15
REMARK   15  A    between atoms: O_15  and  C_16
REMARK   16  A    between atoms: C_16  and  C_18
REMARK   17  A    between atoms: C_19  and  C_20
REMARK   18  A    between atoms: C_20  and  C_21
REMARK   19  A    between atoms: C_21  and  O_22
REMARK                            x       y       z     vdW  Elec       q    Type
REMARK                         _______ _______ _______ _____ _____    ______ ____
ROOT
ATOM      1  C   UNL     1       7.279   7.262  17.443  0.00  0.00    +0.000 C 
ENDROOT
BRANCH   1   2
ATOM      2  O   UNL     1       7.490   6.526  18.657  0.00  0.00    +0.000 OA
BRANCH   2   3
ATOM      3  C   UNL     1       7.080   5.229  18.579  0.00  0.00    +0.000 C 
ATOM      4  O   UNL     1       7.715   4.303  18.123  0.00  0.00    +0.000 OA
BRANCH   3   5
ATOM      5  C   UNL     1       5.703   5.107  19.111  0.00  0.00    +0.000 C 
ATOM      6  C   UNL     1       4.830   4.229  18.557  0.00  0.00    +0.000 C 
BRANCH   6   7
ATOM      7  C   UNL     1       3.383   4.057  18.977  0.00  0.00    +0.000 C 
ATOM      8  C   UNL     1       2.701   5.376  19.344  0.00  0.00    +0.000 C 
ATOM      9  C   UNL     1       1.820   5.036  20.525  0.00  0.00    +0.000 C 
ATOM     10  C   UNL     1       2.445   3.790  21.070  0.00  0.00    +0.000 C 
ATOM     11  O   UNL     1       2.192   3.277  22.142  0.00  0.00    +0.000 OA
ATOM     12  O   UNL     1       3.339   3.272  20.183  0.00  0.00    +0.000 OA
BRANCH   7  13
ATOM     13  C   UNL     1       2.569   3.297  17.900  0.00  0.00    +0.000 C 
BRANCH  13  14
ATOM     14  O   UNL     1       1.438   4.060  17.472  0.00  0.00    +0.000 OA
ATOM     15  H   UNL     1       1.769   4.751  16.866  0.00  0.00    +0.000 HD
ENDBRANCH  13  14
ENDBRANCH   7  13
ENDBRANCH   6   7
ENDBRANCH   3   5
ENDBRANCH   2   3
ENDBRANCH   1   2
BRANCH   1  16
ATOM     16  C   UNL     1       7.706   8.713  17.618  0.00  0.00    +0.000 C 
BRANCH  16  17
ATOM     17  C   UNL     1       8.648   8.876  18.807  0.00  0.00    +0.000 C 
BRANCH  17  18
ATOM     18  C   UNL     1       9.379  10.213  18.748  0.00  0.00    +0.000 C 
BRANCH  18  19
ATOM     19  C   UNL     1       9.632  10.758  20.148  0.00  0.00    +0.000 C 
BRANCH  19  20
ATOM     20  C   UNL     1      10.506  11.996  20.089  0.00  0.00    +0.000 C 
BRANCH  20  21
ATOM     21  C   UNL     1       9.978  13.053  21.043  0.00  0.00    +0.000 C 
BRANCH  21  22
ATOM     22  C   UNL     1       8.776  13.749  20.431  0.00  0.00    +0.000 C 
BRANCH  22  23
ATOM     23  C   UNL     1       9.095  14.187  19.012  0.00  0.00    +0.000 C 
BRANCH  23  24
ATOM     24  C   UNL     1       7.886  13.977  18.118  0.00  0.00    +0.000 C 
BRANCH  24  25
ATOM     25  C   UNL     1       6.842  15.047  18.396  0.00  0.00    +0.000 C 
BRANCH  25  26
ATOM     26  C   UNL     1       5.490  14.613  17.853  0.00  0.00    +0.000 C 
BRANCH  26  28
ATOM     27  C   UNL     1       3.537  16.066  17.305  0.00  0.00    +0.000 C 
ATOM     28  C   UNL     1       4.380  15.484  18.422  0.00  0.00    +0.000 C 
ENDBRANCH  26  28
ENDBRANCH  25  26
ENDBRANCH  24  25
ENDBRANCH  23  24
ENDBRANCH  22  23
ENDBRANCH  21  22
ENDBRANCH  20  21
ENDBRANCH  19  20
ENDBRANCH  18  19
ENDBRANCH  17  18
ENDBRANCH  16  17
ENDBRANCH   1  16
TORSDOF 18
ENDMDL
