MODEL 1
REMARK VINA RESULT:      -8.6      0.000      0.000
REMARK  Name = 
REMARK  8 active torsions:
REMARK  status: ('A' for Active; 'I' for Inactive)
REMARK    1  A    between atoms: C_1  and  O_2
REMARK    2  A    between atoms: O_2  and  C_3
REMARK    3  A    between atoms: C_5  and  C_6
REMARK    4  A    between atoms: C_10  and  C_11
REMARK    5  A    between atoms: N_13  and  C_14
REMARK    6  A    between atoms: C_20  and  C_21
REMARK    7  A    between atoms: C_21  and  C_22
REMARK    8  A    between atoms: C_24  and  C_25
REMARK                            x       y       z     vdW  Elec       q    Type
REMARK                         _______ _______ _______ _____ _____    ______ ____
ROOT
ATOM      1  C   UNL     1       1.629   6.829  20.351  0.00  0.00    +0.000 A 
ATOM      2  C   UNL     1       1.536   5.672  21.124  0.00  0.00    +0.000 A 
ATOM      3  C   UNL     1       2.386   4.598  20.885  0.00  0.00    +0.000 A 
ATOM      4  F   UNL     1       2.283   3.508  21.659  0.00  0.00    +0.000 F 
ATOM      5  C   UNL     1       3.342   4.648  19.879  0.00  0.00    +0.000 A 
ATOM      6  F   UNL     1       4.176   3.609  19.730  0.00  0.00    +0.000 F 
ATOM      7  C   UNL     1       3.458   5.773  19.051  0.00  0.00    +0.000 A 
ATOM      8  C   UNL     1       2.561   6.854  19.296  0.00  0.00    +0.000 A 
ENDROOT
BRANCH   7   9
ATOM      9  C   UNL     1       4.561   5.851  17.967  0.00  0.00    +0.000 C 
ATOM     10  C   UNL     1       4.386   7.132  17.128  0.00  0.00    +0.000 C 
ATOM     11  C   UNL     1       4.497   4.601  17.067  0.00  0.00    +0.000 C 
ATOM     12  C   UNL     1       5.842   4.141  16.517  0.00  0.00    +0.000 C 
ATOM     13  O   UNL     1       6.868   4.182  17.527  0.00  0.00    +0.000 OA
ATOM     14  C   UNL     1       6.823   5.171  18.432  0.00  0.00    +0.000 C 
ATOM     15  N   UNL     1       7.942   5.215  19.181  0.00  0.00    +0.000 N 
ATOM     16  N   UNL     1       5.859   5.977  18.624  0.00  0.00    +0.000 NA
ATOM     17  H   UNL     1       8.780   4.839  18.764  0.00  0.00    +0.000 HD
ATOM     18  H   UNL     1       8.054   6.064  19.719  0.00  0.00    +0.000 HD
BRANCH  12  19
ATOM     19  C   UNL     1       6.290   4.792  15.200  0.00  0.00    +0.000 C 
ATOM     20  F   UNL     1       5.291   5.437  14.565  0.00  0.00    +0.000 F 
ATOM     21  F   UNL     1       7.304   5.669  15.370  0.00  0.00    +0.000 F 
ATOM     22  F   UNL     1       6.739   3.836  14.345  0.00  0.00    +0.000 F 
ENDBRANCH  12  19
ENDBRANCH   7   9
BRANCH   1  25
ATOM     23  C   UNL     1       1.103   8.942  21.584  0.00  0.00    +0.000 C 
ATOM     24  O   UNL     1       2.069   8.911  22.338  0.00  0.00    +0.000 OA
ATOM     25  N   UNL     1       0.835   7.980  20.608  0.00  0.00    +0.000 N 
ATOM     26  H   UNL     1       0.067   8.195  19.977  0.00  0.00    +0.000 HD
BRANCH  23  32
ATOM     27  C   UNL     1      -0.331  10.749  20.492  0.00  0.00    +0.000 A 
ATOM     28  C   UNL     1      -1.232  11.804  20.654  0.00  0.00    +0.000 A 
ATOM     29  C   UNL     1      -1.632  12.186  21.937  0.00  0.00    +0.000 A 
ATOM     30  C   UNL     1      -1.121  11.490  23.022  0.00  0.00    +0.000 A 
ATOM     31  N   UNL     1      -0.259  10.450  22.920  0.00  0.00    +0.000 NA
ATOM     32  C   UNL     1       0.125  10.093  21.653  0.00  0.00    +0.000 A 
BRANCH  27  34
ATOM     33  C   UNL     1      -0.917  10.372  18.213  0.00  0.00    +0.000 C 
ATOM     34  O   UNL     1       0.048  10.305  19.256  0.00  0.00    +0.000 OA
ENDBRANCH  27  34
BRANCH  29  35
ATOM     35  C   UNL     1      -2.552  13.262  22.124  0.00  0.00    +0.000 C 
ATOM     36  N   UNL     1      -3.311  14.118  22.269  0.00  0.00    +0.000 NA
ENDBRANCH  29  35
ENDBRANCH  23  32
ENDBRANCH   1  25
TORSDOF 6
ENDMDL
MODEL 2
REMARK VINA RESULT:      -8.3      1.190      1.366
REMARK  Name = 
REMARK  8 active torsions:
REMARK  status: ('A' for Active; 'I' for Inactive)
REMARK    1  A    between atoms: C_1  and  O_2
REMARK    2  A    between atoms: O_2  and  C_3
REMARK    3  A    between atoms: C_5  and  C_6
REMARK    4  A    between atoms: C_10  and  C_11
REMARK    5  A    between atoms: N_13  and  C_14
REMARK    6  A    between atoms: C_20  and  C_21
REMARK    7  A    between atoms: C_21  and  C_22
REMARK    8  A    between atoms: C_24  and  C_25
REMARK                            x       y       z     vdW  Elec       q    Type
REMARK                         _______ _______ _______ _____ _____    ______ ____
ROOT
ATOM      1  C   UNL     1       1.867   7.595  19.656  0.00  0.00    +0.000 A 
ATOM      2  C   UNL     1       1.645   6.577  20.582  0.00  0.00    +0.000 A 
ATOM      3  C   UNL     1       2.360   5.387  20.504  0.00  0.00    +0.000 A 
ATOM      4  F   UNL     1       2.135   4.436  21.422  0.00  0.00    +0.000 F 
ATOM      5  C   UNL     1       3.307   5.182  19.510  0.00  0.00    +0.000 A 
ATOM      6  F   UNL     1       4.011   4.042  19.515  0.00  0.00    +0.000 F 
ATOM      7  C   UNL     1       3.549   6.159  18.533  0.00  0.00    +0.000 A 
ATOM      8  C   UNL     1       2.788   7.362  18.616  0.00  0.00    +0.000 A 
ENDROOT
BRANCH   7   9
ATOM      9  C   UNL     1       4.645   5.953  17.458  0.00  0.00    +0.000 C 
ATOM     10  C   UNL     1       4.639   7.135  16.468  0.00  0.00    +0.000 C 
ATOM     11  C   UNL     1       4.404   4.623  16.716  0.00  0.00    +0.000 C 
ATOM     12  C   UNL     1       5.670   3.921  16.239  0.00  0.00    +0.000 C 
ATOM     13  O   UNL     1       6.699   3.945  17.247  0.00  0.00    +0.000 OA
ATOM     14  C   UNL     1       6.796   5.034  18.025  0.00  0.00    +0.000 C 
ATOM     15  N   UNL     1       7.915   5.016  18.774  0.00  0.00    +0.000 N 
ATOM     16  N   UNL     1       5.952   5.980  18.108  0.00  0.00    +0.000 NA
ATOM     17  H   UNL     1       8.692   4.481  18.414  0.00  0.00    +0.000 HD
ATOM     18  H   UNL     1       8.146   5.901  19.206  0.00  0.00    +0.000 HD
BRANCH  12  19
ATOM     19  C   UNL     1       6.193   4.340  14.858  0.00  0.00    +0.000 C 
ATOM     20  F   UNL     1       6.489   3.289  14.066  0.00  0.00    +0.000 F 
ATOM     21  F   UNL     1       5.325   5.128  14.187  0.00  0.00    +0.000 F 
ATOM     22  F   UNL     1       7.341   5.054  14.999  0.00  0.00    +0.000 F 
ENDBRANCH  12  19
ENDBRANCH   7   9
BRANCH   1  25
ATOM     23  C   UNL     1       0.982   9.562  20.925  0.00  0.00    +0.000 C 
ATOM     24  O   UNL     1       1.319   9.177  22.038  0.00  0.00    +0.000 OA
ATOM     25  N   UNL     1       1.216   8.856  19.742  0.00  0.00    +0.000 N 
ATOM     26  H   UNL     1       0.989   9.350  18.883  0.00  0.00    +0.000 HD
BRANCH  23  32
ATOM     27  C   UNL     1      -0.773  11.078  19.858  0.00  0.00    +0.000 A 
ATOM     28  C   UNL     1      -1.346  12.349  19.775  0.00  0.00    +0.000 A 
ATOM     29  C   UNL     1      -0.843  13.392  20.557  0.00  0.00    +0.000 A 
ATOM     30  C   UNL     1       0.218  13.124  21.410  0.00  0.00    +0.000 A 
ATOM     31  N   UNL     1       0.798  11.907  21.541  0.00  0.00    +0.000 NA
ATOM     32  C   UNL     1       0.293  10.898  20.761  0.00  0.00    +0.000 A 
BRANCH  27  34
ATOM     33  C   UNL     1      -1.593  10.232  17.787  0.00  0.00    +0.000 C 
ATOM     34  O   UNL     1      -1.265  10.015  19.154  0.00  0.00    +0.000 OA
ENDBRANCH  27  34
BRANCH  29  35
ATOM     35  C   UNL     1      -1.414  14.699  20.486  0.00  0.00    +0.000 C 
ATOM     36  N   UNL     1      -1.856  15.762  20.436  0.00  0.00    +0.000 NA
ENDBRANCH  29  35
ENDBRANCH  23  32
ENDBRANCH   1  25
TORSDOF 6
ENDMDL
MODEL 3
REMARK VINA RESULT:      -8.2      1.141      1.890
REMARK  Name = 
REMARK  8 active torsions:
REMARK  status: ('A' for Active; 'I' for Inactive)
REMARK    1  A    between atoms: C_1  and  O_2
REMARK    2  A    between atoms: O_2  and  C_3
REMARK    3  A    between atoms: C_5  and  C_6
REMARK    4  A    between atoms: C_10  and  C_11
REMARK    5  A    between atoms: N_13  and  C_14
REMARK    6  A    between atoms: C_20  and  C_21
REMARK    7  A    between atoms: C_21  and  C_22
REMARK    8  A    between atoms: C_24  and  C_25
REMARK                            x       y       z     vdW  Elec       q    Type
REMARK                         _______ _______ _______ _____ _____    ______ ____
ROOT
ATOM      1  C   UNL     1       1.838   6.975  20.041  0.00  0.00    +0.000 A 
ATOM      2  C   UNL     1       1.711   5.856  20.862  0.00  0.00    +0.000 A 
ATOM      3  C   UNL     1       2.511   4.738  20.655  0.00  0.00    +0.000 A 
ATOM      4  F   UNL     1       2.378   3.686  21.476  0.00  0.00    +0.000 F 
ATOM      5  C   UNL     1       3.450   4.706  19.632  0.00  0.00    +0.000 A 
ATOM      6  F   UNL     1       4.238   3.627  19.513  0.00  0.00    +0.000 F 
ATOM      7  C   UNL     1       3.598   5.790  18.756  0.00  0.00    +0.000 A 
ATOM      8  C   UNL     1       2.751   6.917  18.970  0.00  0.00    +0.000 A 
ENDROOT
BRANCH   7   9
ATOM      9  C   UNL     1       4.683   5.777  17.651  0.00  0.00    +0.000 C 
ATOM     10  C   UNL     1       4.562   7.041  16.779  0.00  0.00    +0.000 C 
ATOM     11  C   UNL     1       4.535   4.507  16.790  0.00  0.00    +0.000 C 
ATOM     12  C   UNL     1       5.842   3.959  16.230  0.00  0.00    +0.000 C 
ATOM     13  O   UNL     1       6.888   3.973  17.221  0.00  0.00    +0.000 OA
ATOM     14  C   UNL     1       6.913   4.988  18.098  0.00  0.00    +0.000 C 
ATOM     15  N   UNL     1       8.046   4.992  18.827  0.00  0.00    +0.000 N 
ATOM     16  N   UNL     1       5.998   5.850  18.282  0.00  0.00    +0.000 NA
ATOM     17  H   UNL     1       8.855   4.559  18.407  0.00  0.00    +0.000 HD
ATOM     18  H   UNL     1       8.214   5.849  19.337  0.00  0.00    +0.000 HD
BRANCH  12  19
ATOM     19  C   UNL     1       6.300   4.547  14.888  0.00  0.00    +0.000 C 
ATOM     20  F   UNL     1       7.450   5.246  14.984  0.00  0.00    +0.000 F 
ATOM     21  F   UNL     1       6.471   3.603  13.936  0.00  0.00    +0.000 F 
ATOM     22  F   UNL     1       5.360   5.409  14.419  0.00  0.00    +0.000 F 
ENDBRANCH  12  19
ENDBRANCH   7   9
BRANCH   1  25
ATOM     23  C   UNL     1       1.180   9.324  19.484  0.00  0.00    +0.000 C 
ATOM     24  O   UNL     1       1.904   9.446  18.503  0.00  0.00    +0.000 OA
ATOM     25  N   UNL     1       1.097   8.168  20.263  0.00  0.00    +0.000 N 
ATOM     26  H   UNL     1       0.368   8.167  20.972  0.00  0.00    +0.000 HD
BRANCH  23  32
ATOM     27  C   UNL     1       0.070  10.787  21.257  0.00  0.00    +0.000 A 
ATOM     28  C   UNL     1      -0.788  11.851  21.546  0.00  0.00    +0.000 A 
ATOM     29  C   UNL     1      -1.425  12.534  20.506  0.00  0.00    +0.000 A 
ATOM     30  C   UNL     1      -1.174  12.132  19.202  0.00  0.00    +0.000 A 
ATOM     31  N   UNL     1      -0.339  11.120  18.867  0.00  0.00    +0.000 NA
ATOM     32  C   UNL     1       0.273  10.459  19.901  0.00  0.00    +0.000 A 
BRANCH  27  34
ATOM     33  C   UNL     1      -0.001   9.557  23.296  0.00  0.00    +0.000 C 
ATOM     34  O   UNL     1       0.757  10.126  22.236  0.00  0.00    +0.000 OA
ENDBRANCH  27  34
BRANCH  29  35
ATOM     35  C   UNL     1      -2.307  13.623  20.781  0.00  0.00    +0.000 C 
ATOM     36  N   UNL     1      -3.034  14.493  20.990  0.00  0.00    +0.000 NA
ENDBRANCH  29  35
ENDBRANCH  23  32
ENDBRANCH   1  25
TORSDOF 6
ENDMDL
MODEL 4
REMARK VINA RESULT:      -8.2      0.966      1.178
REMARK  Name = 
REMARK  8 active torsions:
REMARK  status: ('A' for Active; 'I' for Inactive)
REMARK    1  A    between atoms: C_1  and  O_2
REMARK    2  A    between atoms: O_2  and  C_3
REMARK    3  A    between atoms: C_5  and  C_6
REMARK    4  A    between atoms: C_10  and  C_11
REMARK    5  A    between atoms: N_13  and  C_14
REMARK    6  A    between atoms: C_20  and  C_21
REMARK    7  A    between atoms: C_21  and  C_22
REMARK    8  A    between atoms: C_24  and  C_25
REMARK                            x       y       z     vdW  Elec       q    Type
REMARK                         _______ _______ _______ _____ _____    ______ ____
ROOT
ATOM      1  C   UNL     1       1.865   7.304  20.240  0.00  0.00    +0.000 A 
ATOM      2  C   UNL     1       1.559   6.153  20.964  0.00  0.00    +0.000 A 
ATOM      3  C   UNL     1       2.183   4.947  20.664  0.00  0.00    +0.000 A 
ATOM      4  F   UNL     1       1.881   3.863  21.393  0.00  0.00    +0.000 F 
ATOM      5  C   UNL     1       3.120   4.858  19.644  0.00  0.00    +0.000 A 
ATOM      6  F   UNL     1       3.738   3.686  19.435  0.00  0.00    +0.000 F 
ATOM      7  C   UNL     1       3.444   5.977  18.862  0.00  0.00    +0.000 A 
ATOM      8  C   UNL     1       2.774   7.198  19.169  0.00  0.00    +0.000 A 
ENDROOT
BRANCH   7   9
ATOM      9  C   UNL     1       4.530   5.890  17.762  0.00  0.00    +0.000 C 
ATOM     10  C   UNL     1       4.463   7.137  16.857  0.00  0.00    +0.000 C 
ATOM     11  C   UNL     1       4.330   4.607  16.931  0.00  0.00    +0.000 C 
ATOM     12  C   UNL     1       5.615   3.991  16.390  0.00  0.00    +0.000 C 
ATOM     13  O   UNL     1       6.658   3.985  17.384  0.00  0.00    +0.000 OA
ATOM     14  C   UNL     1       6.723   5.021  18.235  0.00  0.00    +0.000 C 
ATOM     15  N   UNL     1       7.854   4.996  18.967  0.00  0.00    +0.000 N 
ATOM     16  N   UNL     1       5.845   5.925  18.395  0.00  0.00    +0.000 NA
ATOM     17  H   UNL     1       8.645   4.519  18.561  0.00  0.00    +0.000 HD
ATOM     18  H   UNL     1       8.057   5.857  19.457  0.00  0.00    +0.000 HD
BRANCH  12  19
ATOM     19  C   UNL     1       6.100   4.525  15.036  0.00  0.00    +0.000 C 
ATOM     20  F   UNL     1       7.117   5.403  15.149  0.00  0.00    +0.000 F 
ATOM     21  F   UNL     1       6.499   3.541  14.198  0.00  0.00    +0.000 F 
ATOM     22  F   UNL     1       5.087   5.183  14.411  0.00  0.00    +0.000 F 
ENDBRANCH  12  19
ENDBRANCH   7   9
BRANCH   1  25
ATOM     23  C   UNL     1       0.091   8.778  21.211  0.00  0.00    +0.000 C 
ATOM     24  O   UNL     1      -0.649   7.878  21.593  0.00  0.00    +0.000 OA
ATOM     25  N   UNL     1       1.310   8.573  20.560  0.00  0.00    +0.000 N 
ATOM     26  H   UNL     1       1.873   9.406  20.408  0.00  0.00    +0.000 HD
BRANCH  23  32
ATOM     27  C   UNL     1      -0.053  11.227  20.505  0.00  0.00    +0.000 A 
ATOM     28  C   UNL     1      -0.425  12.533  20.831  0.00  0.00    +0.000 A 
ATOM     29  C   UNL     1      -0.980  12.806  22.084  0.00  0.00    +0.000 A 
ATOM     30  C   UNL     1      -1.154  11.754  22.972  0.00  0.00    +0.000 A 
ATOM     31  N   UNL     1      -0.826  10.468  22.699  0.00  0.00    +0.000 NA
ATOM     32  C   UNL     1      -0.278  10.222  21.466  0.00  0.00    +0.000 A 
BRANCH  27  34
ATOM     33  C   UNL     1       1.504  11.702  18.764  0.00  0.00    +0.000 C 
ATOM     34  O   UNL     1       0.444  10.902  19.274  0.00  0.00    +0.000 OA
ENDBRANCH  27  34
BRANCH  29  35
ATOM     35  C   UNL     1      -1.366  14.134  22.437  0.00  0.00    +0.000 C 
ATOM     36  N   UNL     1      -1.691  15.208  22.705  0.00  0.00    +0.000 NA
ENDBRANCH  29  35
ENDBRANCH  23  32
ENDBRANCH   1  25
TORSDOF 6
ENDMDL
MODEL 5
REMARK VINA RESULT:      -8.2      0.952      1.148
REMARK  Name = 
REMARK  8 active torsions:
REMARK  status: ('A' for Active; 'I' for Inactive)
REMARK    1  A    between atoms: C_1  and  O_2
REMARK    2  A    between atoms: O_2  and  C_3
REMARK    3  A    between atoms: C_5  and  C_6
REMARK    4  A    between atoms: C_10  and  C_11
REMARK    5  A    between atoms: N_13  and  C_14
REMARK    6  A    between atoms: C_20  and  C_21
REMARK    7  A    between atoms: C_21  and  C_22
REMARK    8  A    between atoms: C_24  and  C_25
REMARK                            x       y       z     vdW  Elec       q    Type
REMARK                         _______ _______ _______ _____ _____    ______ ____
ROOT
ATOM      1  C   UNL     1       1.974   6.210  20.479  0.00  0.00    +0.000 A 
ATOM      2  C   UNL     1       1.899   4.956  21.083  0.00  0.00    +0.000 A 
ATOM      3  C   UNL     1       2.697   3.910  20.632  0.00  0.00    +0.000 A 
ATOM      4  F   UNL     1       2.614   2.722  21.247  0.00  0.00    +0.000 F 
ATOM      5  C   UNL     1       3.582   4.086  19.577  0.00  0.00    +0.000 A 
ATOM      6  F   UNL     1       4.372   3.063  19.220  0.00  0.00    +0.000 F 
ATOM      7  C   UNL     1       3.676   5.317  18.912  0.00  0.00    +0.000 A 
ATOM      8  C   UNL     1       2.832   6.369  19.374  0.00  0.00    +0.000 A 
ENDROOT
BRANCH   7   9
ATOM      9  C   UNL     1       4.704   5.529  17.773  0.00  0.00    +0.000 C 
ATOM     10  C   UNL     1       4.443   6.876  17.072  0.00  0.00    +0.000 C 
ATOM     11  C   UNL     1       4.612   4.366  16.765  0.00  0.00    +0.000 C 
ATOM     12  C   UNL     1       5.929   4.001  16.091  0.00  0.00    +0.000 C 
ATOM     13  O   UNL     1       7.017   3.979  17.034  0.00  0.00    +0.000 OA
ATOM     14  C   UNL     1       7.007   4.878  18.030  0.00  0.00    +0.000 C 
ATOM     15  N   UNL     1       8.171   4.886  18.709  0.00  0.00    +0.000 N 
ATOM     16  N   UNL     1       6.038   5.632  18.357  0.00  0.00    +0.000 NA
ATOM     17  H   UNL     1       8.989   4.576  18.206  0.00  0.00    +0.000 HD
ATOM     18  H   UNL     1       8.297   5.685  19.316  0.00  0.00    +0.000 HD
BRANCH  12  19
ATOM     19  C   UNL     1       6.274   4.784  14.817  0.00  0.00    +0.000 C 
ATOM     20  F   UNL     1       6.492   3.987  13.751  0.00  0.00    +0.000 F 
ATOM     21  F   UNL     1       5.316   5.674  14.474  0.00  0.00    +0.000 F 
ATOM     22  F   UNL     1       7.416   5.495  15.009  0.00  0.00    +0.000 F 
ENDBRANCH  12  19
ENDBRANCH   7   9
BRANCH   1  25
ATOM     23  C   UNL     1       1.152   8.568  20.320  0.00  0.00    +0.000 C 
ATOM     24  O   UNL     1       1.707   8.842  19.262  0.00  0.00    +0.000 OA
ATOM     25  N   UNL     1       1.234   7.327  20.955  0.00  0.00    +0.000 N 
ATOM     26  H   UNL     1       0.628   7.205  21.762  0.00  0.00    +0.000 HD
BRANCH  23  32
ATOM     27  C   UNL     1      -0.366  10.621  20.286  0.00  0.00    +0.000 A 
ATOM     28  C   UNL     1      -1.148  11.526  21.006  0.00  0.00    +0.000 A 
ATOM     29  C   UNL     1      -1.249  11.408  22.395  0.00  0.00    +0.000 A 
ATOM     30  C   UNL     1      -0.566  10.375  23.020  0.00  0.00    +0.000 A 
ATOM     31  N   UNL     1       0.191   9.461  22.368  0.00  0.00    +0.000 NA
ATOM     32  C   UNL     1       0.281   9.597  21.006  0.00  0.00    +0.000 A 
BRANCH  27  34
ATOM     33  C   UNL     1      -1.256  11.432  18.230  0.00  0.00    +0.000 C 
ATOM     34  O   UNL     1      -0.280  10.663  18.923  0.00  0.00    +0.000 OA
ENDBRANCH  27  34
BRANCH  29  35
ATOM     35  C   UNL     1      -2.042  12.324  23.149  0.00  0.00    +0.000 C 
ATOM     36  N   UNL     1      -2.678  13.053  23.777  0.00  0.00    +0.000 NA
ENDBRANCH  29  35
ENDBRANCH  23  32
ENDBRANCH   1  25
TORSDOF 6
ENDMDL
MODEL 6
REMARK VINA RESULT:      -8.1      1.747      1.933
REMARK  Name = 
REMARK  8 active torsions:
REMARK  status: ('A' for Active; 'I' for Inactive)
REMARK    1  A    between atoms: C_1  and  O_2
REMARK    2  A    between atoms: O_2  and  C_3
REMARK    3  A    between atoms: C_5  and  C_6
REMARK    4  A    between atoms: C_10  and  C_11
REMARK    5  A    between atoms: N_13  and  C_14
REMARK    6  A    between atoms: C_20  and  C_21
REMARK    7  A    between atoms: C_21  and  C_22
REMARK    8  A    between atoms: C_24  and  C_25
REMARK                            x       y       z     vdW  Elec       q    Type
REMARK                         _______ _______ _______ _____ _____    ______ ____
ROOT
ATOM      1  C   UNL     1       2.088   7.247  19.568  0.00  0.00    +0.000 A 
ATOM      2  C   UNL     1       1.933   6.201  20.476  0.00  0.00    +0.000 A 
ATOM      3  C   UNL     1       2.682   5.037  20.342  0.00  0.00    +0.000 A 
ATOM      4  F   UNL     1       2.522   4.058  21.245  0.00  0.00    +0.000 F 
ATOM      5  C   UNL     1       3.597   4.887  19.310  0.00  0.00    +0.000 A 
ATOM      6  F   UNL     1       4.337   3.770  19.260  0.00  0.00    +0.000 F 
ATOM      7  C   UNL     1       3.771   5.893  18.349  0.00  0.00    +0.000 A 
ATOM      8  C   UNL     1       2.976   7.069  18.490  0.00  0.00    +0.000 A 
ENDROOT
BRANCH   7   9
ATOM      9  C   UNL     1       4.832   5.749  17.230  0.00  0.00    +0.000 C 
ATOM     10  C   UNL     1       4.820   6.999  16.329  0.00  0.00    +0.000 C 
ATOM     11  C   UNL     1       4.548   4.480  16.402  0.00  0.00    +0.000 C 
ATOM     12  C   UNL     1       5.787   3.795  15.838  0.00  0.00    +0.000 C 
ATOM     13  O   UNL     1       6.844   3.729  16.814  0.00  0.00    +0.000 OA
ATOM     14  C   UNL     1       6.982   4.758  17.666  0.00  0.00    +0.000 C 
ATOM     15  N   UNL     1       8.122   4.668  18.378  0.00  0.00    +0.000 N 
ATOM     16  N   UNL     1       6.158   5.709  17.841  0.00  0.00    +0.000 NA
ATOM     17  H   UNL     1       8.878   4.149  17.958  0.00  0.00    +0.000 HD
ATOM     18  H   UNL     1       8.380   5.516  18.865  0.00  0.00    +0.000 HD
BRANCH  12  19
ATOM     19  C   UNL     1       6.278   4.304  14.476  0.00  0.00    +0.000 C 
ATOM     20  F   UNL     1       7.376   5.081  14.569  0.00  0.00    +0.000 F 
ATOM     21  F   UNL     1       6.556   3.302  13.613  0.00  0.00    +0.000 F 
ATOM     22  F   UNL     1       5.313   5.065  13.895  0.00  0.00    +0.000 F 
ENDBRANCH  12  19
ENDBRANCH   7   9
BRANCH   1  25
ATOM     23  C   UNL     1       1.263   9.447  18.708  0.00  0.00    +0.000 C 
ATOM     24  O   UNL     1       1.717   9.336  17.575  0.00  0.00    +0.000 OA
ATOM     25  N   UNL     1       1.401   8.484  19.710  0.00  0.00    +0.000 N 
ATOM     26  H   UNL     1       0.873   8.656  20.561  0.00  0.00    +0.000 HD
BRANCH  23  32
ATOM     27  C   UNL     1      -0.809  10.929  18.542  0.00  0.00    +0.000 A 
ATOM     28  C   UNL     1      -1.470  12.089  18.952  0.00  0.00    +0.000 A 
ATOM     29  C   UNL     1      -0.855  12.959  19.855  0.00  0.00    +0.000 A 
ATOM     30  C   UNL     1       0.407  12.632  20.330  0.00  0.00    +0.000 A 
ATOM     31  N   UNL     1       1.084  11.513  19.979  0.00  0.00    +0.000 NA
ATOM     32  C   UNL     1       0.465  10.674  19.087  0.00  0.00    +0.000 A 
BRANCH  27  34
ATOM     33  C   UNL     1      -2.813  10.001  17.647  0.00  0.00    +0.000 C 
ATOM     34  O   UNL     1      -1.392  10.022  17.703  0.00  0.00    +0.000 OA
ENDBRANCH  27  34
BRANCH  29  35
ATOM     35  C   UNL     1      -1.513  14.151  20.285  0.00  0.00    +0.000 C 
ATOM     36  N   UNL     1      -2.063  15.107  20.621  0.00  0.00    +0.000 NA
ENDBRANCH  29  35
ENDBRANCH  23  32
ENDBRANCH   1  25
TORSDOF 6
ENDMDL
MODEL 7
REMARK VINA RESULT:      -8.0      1.595      2.029
REMARK  Name = 
REMARK  8 active torsions:
REMARK  status: ('A' for Active; 'I' for Inactive)
REMARK    1  A    between atoms: C_1  and  O_2
REMARK    2  A    between atoms: O_2  and  C_3
REMARK    3  A    between atoms: C_5  and  C_6
REMARK    4  A    between atoms: C_10  and  C_11
REMARK    5  A    between atoms: N_13  and  C_14
REMARK    6  A    between atoms: C_20  and  C_21
REMARK    7  A    between atoms: C_21  and  C_22
REMARK    8  A    between atoms: C_24  and  C_25
REMARK                            x       y       z     vdW  Elec       q    Type
REMARK                         _______ _______ _______ _____ _____    ______ ____
ROOT
ATOM      1  C   UNL     1       2.004   7.484  19.767  0.00  0.00    +0.000 A 
ATOM      2  C   UNL     1       1.777   6.432  20.652  0.00  0.00    +0.000 A 
ATOM      3  C   UNL     1       2.464   5.232  20.510  0.00  0.00    +0.000 A 
ATOM      4  F   UNL     1       2.236   4.247  21.391  0.00  0.00    +0.000 F 
ATOM      5  C   UNL     1       3.389   5.051  19.490  0.00  0.00    +0.000 A 
ATOM      6  F   UNL     1       4.069   3.897  19.432  0.00  0.00    +0.000 F 
ATOM      7  C   UNL     1       3.634   6.063  18.551  0.00  0.00    +0.000 A 
ATOM      8  C   UNL     1       2.901   7.277  18.700  0.00  0.00    +0.000 A 
ENDROOT
BRANCH   7   9
ATOM      9  C   UNL     1       4.706   5.882  17.448  0.00  0.00    +0.000 C 
ATOM     10  C   UNL     1       4.692   7.094  16.496  0.00  0.00    +0.000 C 
ATOM     11  C   UNL     1       4.437   4.578  16.670  0.00  0.00    +0.000 C 
ATOM     12  C   UNL     1       5.686   3.880  16.145  0.00  0.00    +0.000 C 
ATOM     13  O   UNL     1       6.736   3.862  17.131  0.00  0.00    +0.000 OA
ATOM     14  C   UNL     1       6.859   4.925  17.942  0.00  0.00    +0.000 C 
ATOM     15  N   UNL     1       7.993   4.874  18.666  0.00  0.00    +0.000 N 
ATOM     16  N   UNL     1       6.026   5.876  18.071  0.00  0.00    +0.000 NA
ATOM     17  H   UNL     1       8.757   4.343  18.274  0.00  0.00    +0.000 HD
ATOM     18  H   UNL     1       8.241   5.742  19.121  0.00  0.00    +0.000 HD
BRANCH  12  19
ATOM     19  C   UNL     1       6.185   4.337  14.767  0.00  0.00    +0.000 C 
ATOM     20  F   UNL     1       7.291   5.107  14.836  0.00  0.00    +0.000 F 
ATOM     21  F   UNL     1       6.456   3.303  13.940  0.00  0.00    +0.000 F 
ATOM     22  F   UNL     1       5.229   5.086  14.157  0.00  0.00    +0.000 F 
ENDBRANCH  12  19
ENDBRANCH   7   9
BRANCH   1  25
ATOM     23  C   UNL     1       0.962   9.575  18.872  0.00  0.00    +0.000 C 
ATOM     24  O   UNL     1       1.075   9.294  17.684  0.00  0.00    +0.000 OA
ATOM     25  N   UNL     1       1.382   8.753  19.920  0.00  0.00    +0.000 N 
ATOM     26  H   UNL     1       1.118   9.060  20.853  0.00  0.00    +0.000 HD
BRANCH  23  32
ATOM     27  C   UNL     1       0.939  12.116  19.113  0.00  0.00    +0.000 A 
ATOM     28  C   UNL     1       0.251  13.260  19.525  0.00  0.00    +0.000 A 
ATOM     29  C   UNL     1      -1.015  13.140  20.102  0.00  0.00    +0.000 A 
ATOM     30  C   UNL     1      -1.560  11.872  20.241  0.00  0.00    +0.000 A 
ATOM     31  N   UNL     1      -0.943  10.733  19.843  0.00  0.00    +0.000 NA
ATOM     32  C   UNL     1       0.302  10.871  19.283  0.00  0.00    +0.000 A 
BRANCH  27  34
ATOM     33  C   UNL     1       2.758  13.471  18.382  0.00  0.00    +0.000 C 
ATOM     34  O   UNL     1       2.156  12.188  18.495  0.00  0.00    +0.000 OA
ENDBRANCH  27  34
BRANCH  29  35
ATOM     35  C   UNL     1      -1.734  14.297  20.531  0.00  0.00    +0.000 C 
ATOM     36  N   UNL     1      -2.318  15.237  20.856  0.00  0.00    +0.000 NA
ENDBRANCH  29  35
ENDBRANCH  23  32
ENDBRANCH   1  25
TORSDOF 6
ENDMDL
MODEL 8
REMARK VINA RESULT:      -7.9      1.430      2.082
REMARK  Name = 
REMARK  8 active torsions:
REMARK  status: ('A' for Active; 'I' for Inactive)
REMARK    1  A    between atoms: C_1  and  O_2
REMARK    2  A    between atoms: O_2  and  C_3
REMARK    3  A    between atoms: C_5  and  C_6
REMARK    4  A    between atoms: C_10  and  C_11
REMARK    5  A    between atoms: N_13  and  C_14
REMARK    6  A    between atoms: C_20  and  C_21
REMARK    7  A    between atoms: C_21  and  C_22
REMARK    8  A    between atoms: C_24  and  C_25
REMARK                            x       y       z     vdW  Elec       q    Type
REMARK                         _______ _______ _______ _____ _____    ______ ____
ROOT
ATOM      1  C   UNL     1       1.924   7.625  19.984  0.00  0.00    +0.000 A 
ATOM      2  C   UNL     1       1.531   6.518  20.735  0.00  0.00    +0.000 A 
ATOM      3  C   UNL     1       2.083   5.267  20.483  0.00  0.00    +0.000 A 
ATOM      4  F   UNL     1       1.697   4.226  21.236  0.00  0.00    +0.000 F 
ATOM      5  C   UNL     1       3.031   5.088  19.485  0.00  0.00    +0.000 A 
ATOM      6  F   UNL     1       3.576   3.873  19.323  0.00  0.00    +0.000 F 
ATOM      7  C   UNL     1       3.440   6.159  18.678  0.00  0.00    +0.000 A 
ATOM      8  C   UNL     1       2.844   7.429  18.936  0.00  0.00    +0.000 A 
ENDROOT
BRANCH   7   9
ATOM      9  C   UNL     1       4.539   5.971  17.604  0.00  0.00    +0.000 C 
ATOM     10  C   UNL     1       4.548   7.177  16.643  0.00  0.00    +0.000 C 
ATOM     11  C   UNL     1       4.291   4.662  16.828  0.00  0.00    +0.000 C 
ATOM     12  C   UNL     1       5.553   3.962  16.339  0.00  0.00    +0.000 C 
ATOM     13  O   UNL     1       6.578   3.951  17.351  0.00  0.00    +0.000 OA
ATOM     14  C   UNL     1       6.679   5.020  18.157  0.00  0.00    +0.000 C 
ATOM     15  N   UNL     1       7.795   4.974  18.910  0.00  0.00    +0.000 N 
ATOM     16  N   UNL     1       5.843   5.971  18.259  0.00  0.00    +0.000 NA
ATOM     17  H   UNL     1       8.569   4.442  18.541  0.00  0.00    +0.000 HD
ATOM     18  H   UNL     1       8.031   5.846  19.365  0.00  0.00    +0.000 HD
BRANCH  12  19
ATOM     19  C   UNL     1       6.086   4.410  14.971  0.00  0.00    +0.000 C 
ATOM     20  F   UNL     1       6.270   3.384  14.115  0.00  0.00    +0.000 F 
ATOM     21  F   UNL     1       5.280   5.310  14.366  0.00  0.00    +0.000 F 
ATOM     22  F   UNL     1       7.297   5.009  15.123  0.00  0.00    +0.000 F 
ENDBRANCH  12  19
ENDBRANCH   7   9
BRANCH   1  25
ATOM     23  C   UNL     1       0.749   9.742  19.354  0.00  0.00    +0.000 C 
ATOM     24  O   UNL     1       0.458   9.410  18.211  0.00  0.00    +0.000 OA
ATOM     25  N   UNL     1       1.445   8.936  20.257  0.00  0.00    +0.000 N 
ATOM     26  H   UNL     1       1.511   9.294  21.207  0.00  0.00    +0.000 HD
BRANCH  23  32
ATOM     27  C   UNL     1       0.170  11.337  21.262  0.00  0.00    +0.000 A 
ATOM     28  C   UNL     1      -0.233  12.615  21.655  0.00  0.00    +0.000 A 
ATOM     29  C   UNL     1      -0.494  13.590  20.690  0.00  0.00    +0.000 A 
ATOM     30  C   UNL     1      -0.333  13.255  19.353  0.00  0.00    +0.000 A 
ATOM     31  N   UNL     1       0.072  12.038  18.919  0.00  0.00    +0.000 NA
ATOM     32  C   UNL     1       0.318  11.092  19.882  0.00  0.00    +0.000 A 
BRANCH  27  34
ATOM     33  C   UNL     1      -0.526   9.970  23.086  0.00  0.00    +0.000 C 
ATOM     34  O   UNL     1       0.488  10.367  22.171  0.00  0.00    +0.000 OA
ENDBRANCH  27  34
BRANCH  29  35
ATOM     35  C   UNL     1      -0.909  14.902  21.071  0.00  0.00    +0.000 C 
ATOM     36  N   UNL     1      -1.260  15.960  21.365  0.00  0.00    +0.000 NA
ENDBRANCH  29  35
ENDBRANCH  23  32
ENDBRANCH   1  25
TORSDOF 6
ENDMDL
MODEL 9
REMARK VINA RESULT:      -7.5      1.780      2.343
REMARK  Name = 
REMARK  8 active torsions:
REMARK  status: ('A' for Active; 'I' for Inactive)
REMARK    1  A    between atoms: C_1  and  O_2
REMARK    2  A    between atoms: O_2  and  C_3
REMARK    3  A    between atoms: C_5  and  C_6
REMARK    4  A    between atoms: C_10  and  C_11
REMARK    5  A    between atoms: N_13  and  C_14
REMARK    6  A    between atoms: C_20  and  C_21
REMARK    7  A    between atoms: C_21  and  C_22
REMARK    8  A    between atoms: C_24  and  C_25
REMARK                            x       y       z     vdW  Elec       q    Type
REMARK                         _______ _______ _______ _____ _____    ______ ____
ROOT
ATOM      1  C   UNL     1       2.020   8.056  19.359  0.00  0.00    +0.000 A 
ATOM      2  C   UNL     1       1.646   7.082  20.283  0.00  0.00    +0.000 A 
ATOM      3  C   UNL     1       2.213   5.813  20.234  0.00  0.00    +0.000 A 
ATOM      4  F   UNL     1       1.845   4.905  21.150  0.00  0.00    +0.000 F 
ATOM      5  C   UNL     1       3.158   5.485  19.272  0.00  0.00    +0.000 A 
ATOM      6  F   UNL     1       3.718   4.267  19.306  0.00  0.00    +0.000 F 
ATOM      7  C   UNL     1       3.548   6.415  18.297  0.00  0.00    +0.000 A 
ATOM      8  C   UNL     1       2.937   7.703  18.349  0.00  0.00    +0.000 A 
ENDROOT
BRANCH   7   9
ATOM      9  C   UNL     1       4.643   6.067  17.260  0.00  0.00    +0.000 C 
ATOM     10  C   UNL     1       4.750   7.191  16.210  0.00  0.00    +0.000 C 
ATOM     11  C   UNL     1       4.311   4.722  16.582  0.00  0.00    +0.000 C 
ATOM     12  C   UNL     1       5.526   3.899  16.171  0.00  0.00    +0.000 C 
ATOM     13  O   UNL     1       6.535   3.895  17.199  0.00  0.00    +0.000 OA
ATOM     14  C   UNL     1       6.703   5.013  17.921  0.00  0.00    +0.000 C 
ATOM     15  N   UNL     1       7.804   4.948  18.695  0.00  0.00    +0.000 N 
ATOM     16  N   UNL     1       5.937   6.026  17.936  0.00  0.00    +0.000 NA
ATOM     17  H   UNL     1       8.542   4.335  18.381  0.00  0.00    +0.000 HD
ATOM     18  H   UNL     1       8.097   5.834  19.085  0.00  0.00    +0.000 HD
BRANCH  12  19
ATOM     19  C   UNL     1       6.106   4.200  14.782  0.00  0.00    +0.000 C 
ATOM     20  F   UNL     1       7.232   4.941  14.830  0.00  0.00    +0.000 F 
ATOM     21  F   UNL     1       6.380   3.081  14.076  0.00  0.00    +0.000 F 
ATOM     22  F   UNL     1       5.206   4.911  14.053  0.00  0.00    +0.000 F 
ENDBRANCH  12  19
ENDBRANCH   7   9
BRANCH   1  25
ATOM     23  C   UNL     1       0.331   9.778  20.026  0.00  0.00    +0.000 C 
ATOM     24  O   UNL     1      -0.437   9.011  20.595  0.00  0.00    +0.000 OA
ATOM     25  N   UNL     1       1.526   9.388  19.417  0.00  0.00    +0.000 N 
ATOM     26  H   UNL     1       2.120  10.146  19.089  0.00  0.00    +0.000 HD
BRANCH  23  32
ATOM     27  C   UNL     1      -0.214  12.002  21.154  0.00  0.00    +0.000 A 
ATOM     28  C   UNL     1      -0.487  13.365  21.015  0.00  0.00    +0.000 A 
ATOM     29  C   UNL     1      -0.532  13.938  19.741  0.00  0.00    +0.000 A 
ATOM     30  C   UNL     1      -0.292  13.125  18.643  0.00  0.00    +0.000 A 
ATOM     31  N   UNL     1      -0.006  11.804  18.724  0.00  0.00    +0.000 NA
ATOM     32  C   UNL     1       0.029  11.258  19.982  0.00  0.00    +0.000 A 
BRANCH  27  34
ATOM     33  C   UNL     1      -1.302  11.237  23.132  0.00  0.00    +0.000 C 
ATOM     34  O   UNL     1      -0.106  11.408  22.381  0.00  0.00    +0.000 OA
ENDBRANCH  27  34
BRANCH  29  35
ATOM     35  C   UNL     1      -0.810  15.329  19.577  0.00  0.00    +0.000 C 
ATOM     36  N   UNL     1      -1.053  16.446  19.432  0.00  0.00    +0.000 NA
ENDBRANCH  29  35
ENDBRANCH  23  32
ENDBRANCH   1  25
TORSDOF 6
ENDMDL
