MODEL 1
REMARK VINA RESULT:      -8.1      0.000      0.000
REMARK  Name = 
REMARK  7 active torsions:
REMARK  status: ('A' for Active; 'I' for Inactive)
REMARK    1  A    between atoms: C_2  and  C_3
REMARK    2  A    between atoms: C_3  and  C_4
REMARK    3  A    between atoms: C_4  and  C_5
REMARK    4  A    between atoms: C_5  and  N_6
REMARK    5  A    between atoms: N_21  and  C_22
REMARK    6  A    between atoms: C_22  and  C_23
REMARK    7  A    between atoms: C_23  and  N_24
REMARK                            x       y       z     vdW  Elec       q    Type
REMARK                         _______ _______ _______ _____ _____    ______ ____
ROOT
ATOM      1  C   UNL     1       5.419   4.818  16.243  0.00  0.00    +0.000 C 
ENDROOT
BRANCH   1   2
ATOM      2  N   UNL     1       4.395   4.856  17.283  0.00  0.00    +0.000 N 
ATOM      3  C   UNL     1       3.937   3.640  17.788  0.00  0.00    +0.000 C 
ATOM      4  O   UNL     1       4.321   2.545  17.381  0.00  0.00    +0.000 OA
ATOM      5  C   UNL     1       2.948   3.697  18.887  0.00  0.00    +0.000 A 
ATOM      6  C   UNL     1       2.439   2.504  19.420  0.00  0.00    +0.000 A 
ATOM      7  C   UNL     1       1.536   2.542  20.479  0.00  0.00    +0.000 A 
ATOM      8  C   UNL     1       1.135   3.771  21.003  0.00  0.00    +0.000 A 
ATOM      9  C   UNL     1       1.622   4.974  20.468  0.00  0.00    +0.000 A 
ATOM     10  C   UNL     1       1.215   6.216  20.983  0.00  0.00    +0.000 A 
ATOM     11  C   UNL     1       1.705   7.406  20.446  0.00  0.00    +0.000 A 
ATOM     12  C   UNL     1       2.612   7.370  19.390  0.00  0.00    +0.000 A 
ATOM     13  C   UNL     1       3.033   6.139  18.871  0.00  0.00    +0.000 A 
ATOM     14  C   UNL     1       2.543   4.936  19.394  0.00  0.00    +0.000 A 
ATOM     15  C   UNL     1       4.020   6.108  17.763  0.00  0.00    +0.000 C 
ATOM     16  O   UNL     1       4.473   7.169  17.337  0.00  0.00    +0.000 OA
ENDBRANCH   1   2
BRANCH   1  17
ATOM     17  C   UNL     1       6.768   4.372  16.813  0.00  0.00    +0.000 C 
BRANCH  17  18
ATOM     18  C   UNL     1       7.243   5.305  17.918  0.00  0.00    +0.000 C 
BRANCH  18  20
ATOM     19  O   UNL     1       7.883   6.790  16.139  0.00  0.00    +0.000 OA
ATOM     20  C   UNL     1       7.631   6.641  17.329  0.00  0.00    +0.000 C 
ATOM     21  N   UNL     1       7.711   7.648  18.261  0.00  0.00    +0.000 N 
ATOM     22  H   UNL     1       7.466   7.456  19.224  0.00  0.00    +0.000 HD
BRANCH  21  23
ATOM     23  C   UNL     1       8.065   9.000  17.871  0.00  0.00    +0.000 C 
BRANCH  23  24
ATOM     24  C   UNL     1       9.053   9.630  18.863  0.00  0.00    +0.000 C 
BRANCH  24  25
ATOM     25  N   UNL     1       8.842  11.066  19.117  0.00  0.00    +0.000 NA
ATOM     26  C   UNL     1       9.187  11.868  17.917  0.00  0.00    +0.000 C 
ATOM     27  C   UNL     1      10.699  11.925  17.631  0.00  0.00    +0.000 C 
ATOM     28  O   UNL     1      11.430  12.419  18.762  0.00  0.00    +0.000 OA
ATOM     29  C   UNL     1      11.162  11.641  19.936  0.00  0.00    +0.000 C 
ATOM     30  C   UNL     1       9.655  11.587  20.240  0.00  0.00    +0.000 C 
ENDBRANCH  24  25
ENDBRANCH  23  24
ENDBRANCH  21  23
ENDBRANCH  18  20
ENDBRANCH  17  18
ENDBRANCH   1  17
TORSDOF 7
ENDMDL
MODEL 2
REMARK VINA RESULT:      -8.0      1.205      1.543
REMARK  Name = 
REMARK  7 active torsions:
REMARK  status: ('A' for Active; 'I' for Inactive)
REMARK    1  A    between atoms: C_2  and  C_3
REMARK    2  A    between atoms: C_3  and  C_4
REMARK    3  A    between atoms: C_4  and  C_5
REMARK    4  A    between atoms: C_5  and  N_6
REMARK    5  A    between atoms: N_21  and  C_22
REMARK    6  A    between atoms: C_22  and  C_23
REMARK    7  A    between atoms: C_23  and  N_24
REMARK                            x       y       z     vdW  Elec       q    Type
REMARK                         _______ _______ _______ _____ _____    ______ ____
ROOT
ATOM      1  C   UNL     1       5.084   6.433  15.830  0.00  0.00    +0.000 C 
ENDROOT
BRANCH   1   2
ATOM      2  N   UNL     1       4.290   5.714  16.823  0.00  0.00    +0.000 N 
ATOM      3  C   UNL     1       4.356   4.322  16.823  0.00  0.00    +0.000 C 
ATOM      4  O   UNL     1       5.014   3.670  16.013  0.00  0.00    +0.000 OA
ATOM      5  C   UNL     1       3.599   3.612  17.877  0.00  0.00    +0.000 A 
ATOM      6  C   UNL     1       3.614   2.211  17.913  0.00  0.00    +0.000 A 
ATOM      7  C   UNL     1       2.936   1.531  18.920  0.00  0.00    +0.000 A 
ATOM      8  C   UNL     1       2.236   2.249  19.891  0.00  0.00    +0.000 A 
ATOM      9  C   UNL     1       2.197   3.652  19.858  0.00  0.00    +0.000 A 
ATOM     10  C   UNL     1       1.487   4.382  20.825  0.00  0.00    +0.000 A 
ATOM     11  C   UNL     1       1.454   5.775  20.784  0.00  0.00    +0.000 A 
ATOM     12  C   UNL     1       2.136   6.457  19.780  0.00  0.00    +0.000 A 
ATOM     13  C   UNL     1       2.855   5.743  18.813  0.00  0.00    +0.000 A 
ATOM     14  C   UNL     1       2.890   4.343  18.835  0.00  0.00    +0.000 A 
ATOM     15  C   UNL     1       3.600   6.478  17.761  0.00  0.00    +0.000 C 
ATOM     16  O   UNL     1       3.595   7.708  17.774  0.00  0.00    +0.000 OA
ENDBRANCH   1   2
BRANCH   1  17
ATOM     17  C   UNL     1       6.200   7.242  16.495  0.00  0.00    +0.000 C 
BRANCH  17  18
ATOM     18  C   UNL     1       7.249   6.335  17.123  0.00  0.00    +0.000 C 
BRANCH  18  20
ATOM     19  O   UNL     1       8.287   6.528  19.283  0.00  0.00    +0.000 OA
ATOM     20  C   UNL     1       7.965   7.070  18.232  0.00  0.00    +0.000 C 
ATOM     21  N   UNL     1       8.178   8.400  17.959  0.00  0.00    +0.000 N 
ATOM     22  H   UNL     1       7.905   8.773  17.059  0.00  0.00    +0.000 HD
BRANCH  21  23
ATOM     23  C   UNL     1       8.858   9.257  18.911  0.00  0.00    +0.000 C 
BRANCH  23  24
ATOM     24  C   UNL     1       9.205  10.620  18.293  0.00  0.00    +0.000 C 
BRANCH  24  25
ATOM     25  N   UNL     1       9.289  11.732  19.255  0.00  0.00    +0.000 NA
ATOM     26  C   UNL     1       9.337  13.036  18.548  0.00  0.00    +0.000 C 
ATOM     27  C   UNL     1      10.669  13.290  17.818  0.00  0.00    +0.000 C 
ATOM     28  O   UNL     1      11.786  13.189  18.711  0.00  0.00    +0.000 OA
ATOM     29  C   UNL     1      11.805  11.922  19.382  0.00  0.00    +0.000 C 
ATOM     30  C   UNL     1      10.484  11.662  20.127  0.00  0.00    +0.000 C 
ENDBRANCH  24  25
ENDBRANCH  23  24
ENDBRANCH  21  23
ENDBRANCH  18  20
ENDBRANCH  17  18
ENDBRANCH   1  17
TORSDOF 7
ENDMDL
MODEL 3
REMARK VINA RESULT:      -8.0      1.453      2.989
REMARK  Name = 
REMARK  7 active torsions:
REMARK  status: ('A' for Active; 'I' for Inactive)
REMARK    1  A    between atoms: C_2  and  C_3
REMARK    2  A    between atoms: C_3  and  C_4
REMARK    3  A    between atoms: C_4  and  C_5
REMARK    4  A    between atoms: C_5  and  N_6
REMARK    5  A    between atoms: N_21  and  C_22
REMARK    6  A    between atoms: C_22  and  C_23
REMARK    7  A    between atoms: C_23  and  N_24
REMARK                            x       y       z     vdW  Elec       q    Type
REMARK                         _______ _______ _______ _____ _____    ______ ____
ROOT
ATOM      1  C   UNL     1       5.583   6.298  16.267  0.00  0.00    +0.000 C 
ENDROOT
BRANCH   1   2
ATOM      2  N   UNL     1       4.681   5.600  17.179  0.00  0.00    +0.000 N 
ATOM      3  C   UNL     1       3.895   6.373  18.032  0.00  0.00    +0.000 C 
ATOM      4  O   UNL     1       3.946   7.601  18.082  0.00  0.00    +0.000 OA
ATOM      5  C   UNL     1       2.939   5.654  18.903  0.00  0.00    +0.000 A 
ATOM      6  C   UNL     1       2.137   6.380  19.795  0.00  0.00    +0.000 A 
ATOM      7  C   UNL     1       1.208   5.719  20.593  0.00  0.00    +0.000 A 
ATOM      8  C   UNL     1       1.083   4.333  20.508  0.00  0.00    +0.000 A 
ATOM      9  C   UNL     1       1.892   3.590  19.634  0.00  0.00    +0.000 A 
ATOM     10  C   UNL     1       1.779   2.193  19.550  0.00  0.00    +0.000 A 
ATOM     11  C   UNL     1       2.587   1.464  18.677  0.00  0.00    +0.000 A 
ATOM     12  C   UNL     1       3.513   2.123  17.873  0.00  0.00    +0.000 A 
ATOM     13  C   UNL     1       3.632   3.517  17.941  0.00  0.00    +0.000 A 
ATOM     14  C   UNL     1       2.834   4.262  18.818  0.00  0.00    +0.000 A 
ATOM     15  C   UNL     1       4.603   4.215  17.063  0.00  0.00    +0.000 C 
ATOM     16  O   UNL     1       5.271   3.555  16.268  0.00  0.00    +0.000 OA
ENDBRANCH   1   2
BRANCH   1  17
ATOM     17  C   UNL     1       6.945   6.546  16.919  0.00  0.00    +0.000 C 
BRANCH  17  18
ATOM     18  C   UNL     1       7.297   8.027  16.929  0.00  0.00    +0.000 C 
BRANCH  18  20
ATOM     19  O   UNL     1       8.520   7.481  18.926  0.00  0.00    +0.000 OA
ATOM     20  C   UNL     1       8.172   8.337  18.122  0.00  0.00    +0.000 C 
ATOM     21  N   UNL     1       8.498   9.668  18.231  0.00  0.00    +0.000 N 
ATOM     22  H   UNL     1       8.194  10.315  17.515  0.00  0.00    +0.000 HD
BRANCH  21  23
ATOM     23  C   UNL     1       9.337  10.144  19.314  0.00  0.00    +0.000 C 
BRANCH  23  24
ATOM     24  C   UNL     1      10.333  11.207  18.827  0.00  0.00    +0.000 C 
BRANCH  24  25
ATOM     25  N   UNL     1       9.755  12.240  17.951  0.00  0.00    +0.000 NA
ATOM     26  C   UNL     1      10.825  13.009  17.268  0.00  0.00    +0.000 C 
ATOM     27  C   UNL     1      11.604  13.946  18.209  0.00  0.00    +0.000 C 
ATOM     28  O   UNL     1      10.728  14.851  18.894  0.00  0.00    +0.000 OA
ATOM     29  C   UNL     1       9.704  14.146  19.608  0.00  0.00    +0.000 C 
ATOM     30  C   UNL     1       8.909  13.216  18.675  0.00  0.00    +0.000 C 
ENDBRANCH  24  25
ENDBRANCH  23  24
ENDBRANCH  21  23
ENDBRANCH  18  20
ENDBRANCH  17  18
ENDBRANCH   1  17
TORSDOF 7
ENDMDL
MODEL 4
REMARK VINA RESULT:      -7.9      1.318      2.947
REMARK  Name = 
REMARK  7 active torsions:
REMARK  status: ('A' for Active; 'I' for Inactive)
REMARK    1  A    between atoms: C_2  and  C_3
REMARK    2  A    between atoms: C_3  and  C_4
REMARK    3  A    between atoms: C_4  and  C_5
REMARK    4  A    between atoms: C_5  and  N_6
REMARK    5  A    between atoms: N_21  and  C_22
REMARK    6  A    between atoms: C_22  and  C_23
REMARK    7  A    between atoms: C_23  and  N_24
REMARK                            x       y       z     vdW  Elec       q    Type
REMARK                         _______ _______ _______ _____ _____    ______ ____
ROOT
ATOM      1  C   UNL     1       5.102   6.476  15.858  0.00  0.00    +0.000 C 
ENDROOT
BRANCH   1   2
ATOM      2  N   UNL     1       4.392   5.748  16.905  0.00  0.00    +0.000 N 
ATOM      3  C   UNL     1       3.667   6.490  17.835  0.00  0.00    +0.000 C 
ATOM      4  O   UNL     1       3.623   7.719  17.842  0.00  0.00    +0.000 OA
ATOM      5  C   UNL     1       2.900   5.734  18.849  0.00  0.00    +0.000 A 
ATOM      6  C   UNL     1       2.167   6.430  19.821  0.00  0.00    +0.000 A 
ATOM      7  C   UNL     1       1.411   5.732  20.758  0.00  0.00    +0.000 A 
ATOM      8  C   UNL     1       1.391   4.337  20.731  0.00  0.00    +0.000 A 
ATOM      9  C   UNL     1       2.134   3.626  19.776  0.00  0.00    +0.000 A 
ATOM     10  C   UNL     1       2.126   2.222  19.748  0.00  0.00    +0.000 A 
ATOM     11  C   UNL     1       2.867   1.524  18.795  0.00  0.00    +0.000 A 
ATOM     12  C   UNL     1       3.619   2.220  17.853  0.00  0.00    +0.000 A 
ATOM     13  C   UNL     1       3.630   3.621  17.863  0.00  0.00    +0.000 A 
ATOM     14  C   UNL     1       2.899   4.336  18.820  0.00  0.00    +0.000 A 
ATOM     15  C   UNL     1       4.414   4.356  16.840  0.00  0.00    +0.000 C 
ATOM     16  O   UNL     1       5.021   3.720  15.981  0.00  0.00    +0.000 OA
ENDBRANCH   1   2
BRANCH   1  17
ATOM     17  C   UNL     1       6.410   7.069  16.387  0.00  0.00    +0.000 C 
BRANCH  17  18
ATOM     18  C   UNL     1       7.110   6.113  17.343  0.00  0.00    +0.000 C 
BRANCH  18  20
ATOM     19  O   UNL     1       8.259   6.411  19.433  0.00  0.00    +0.000 OA
ATOM     20  C   UNL     1       7.896   6.896  18.368  0.00  0.00    +0.000 C 
ATOM     21  N   UNL     1       8.123   8.202  18.004  0.00  0.00    +0.000 N 
ATOM     22  H   UNL     1       7.812   8.527  17.097  0.00  0.00    +0.000 HD
BRANCH  21  23
ATOM     23  C   UNL     1       8.867   9.099  18.868  0.00  0.00    +0.000 C 
BRANCH  23  24
ATOM     24  C   UNL     1       8.984  10.502  18.253  0.00  0.00    +0.000 C 
BRANCH  24  25
ATOM     25  N   UNL     1      10.245  11.203  18.550  0.00  0.00    +0.000 NA
ATOM     26  C   UNL     1      10.273  11.660  19.961  0.00  0.00    +0.000 C 
ATOM     27  C   UNL     1       9.312  12.828  20.247  0.00  0.00    +0.000 C 
ATOM     28  O   UNL     1       9.564  13.942  19.379  0.00  0.00    +0.000 OA
ATOM     29  C   UNL     1       9.500  13.553  18.000  0.00  0.00    +0.000 C 
ATOM     30  C   UNL     1      10.466  12.394  17.699  0.00  0.00    +0.000 C 
ENDBRANCH  24  25
ENDBRANCH  23  24
ENDBRANCH  21  23
ENDBRANCH  18  20
ENDBRANCH  17  18
ENDBRANCH   1  17
TORSDOF 7
ENDMDL
MODEL 5
REMARK VINA RESULT:      -7.9      3.294      6.502
REMARK  Name = 
REMARK  7 active torsions:
REMARK  status: ('A' for Active; 'I' for Inactive)
REMARK    1  A    between atoms: C_2  and  C_3
REMARK    2  A    between atoms: C_3  and  C_4
REMARK    3  A    between atoms: C_4  and  C_5
REMARK    4  A    between atoms: C_5  and  N_6
REMARK    5  A    between atoms: N_21  and  C_22
REMARK    6  A    between atoms: C_22  and  C_23
REMARK    7  A    between atoms: C_23  and  N_24
REMARK                            x       y       z     vdW  Elec       q    Type
REMARK                         _______ _______ _______ _____ _____    ______ ____
ROOT
ATOM      1  C   UNL     1       2.660   7.404  18.855  0.00  0.00    +0.000 C 
ENDROOT
BRANCH   1   2
ATOM      2  N   UNL     1       1.859   8.476  19.440  0.00  0.00    +0.000 N 
ATOM      3  C   UNL     1       1.557   9.574  18.637  0.00  0.00    +0.000 C 
ATOM      4  O   UNL     1       1.957   9.703  17.481  0.00  0.00    +0.000 OA
ATOM      5  C   UNL     1       0.689  10.618  19.223  0.00  0.00    +0.000 A 
ATOM      6  C   UNL     1       0.369  11.755  18.466  0.00  0.00    +0.000 A 
ATOM      7  C   UNL     1      -0.476  12.728  18.991  0.00  0.00    +0.000 A 
ATOM      8  C   UNL     1      -0.997  12.572  20.276  0.00  0.00    +0.000 A 
ATOM      9  C   UNL     1      -0.671  11.450  21.053  0.00  0.00    +0.000 A 
ATOM     10  C   UNL     1      -1.183  11.291  22.351  0.00  0.00    +0.000 A 
ATOM     11  C   UNL     1      -0.854  10.172  23.115  0.00  0.00    +0.000 A 
ATOM     12  C   UNL     1      -0.014   9.194  22.589  0.00  0.00    +0.000 A 
ATOM     13  C   UNL     1       0.499   9.335  21.294  0.00  0.00    +0.000 A 
ATOM     14  C   UNL     1       0.185  10.458  20.517  0.00  0.00    +0.000 A 
ATOM     15  C   UNL     1       1.374   8.277  20.731  0.00  0.00    +0.000 C 
ATOM     16  O   UNL     1       1.611   7.277  21.406  0.00  0.00    +0.000 OA
ENDBRANCH   1   2
BRANCH   1  17
ATOM     17  C   UNL     1       1.797   6.474  18.000  0.00  0.00    +0.000 C 
BRANCH  17  18
ATOM     18  C   UNL     1       1.546   5.145  18.699  0.00  0.00    +0.000 C 
BRANCH  18  20
ATOM     19  O   UNL     1       2.941   4.440  20.525  0.00  0.00    +0.000 OA
ATOM     20  C   UNL     1       2.827   4.643  19.322  0.00  0.00    +0.000 C 
ATOM     21  N   UNL     1       3.850   4.481  18.418  0.00  0.00    +0.000 N 
ATOM     22  H   UNL     1       3.675   4.647  17.435  0.00  0.00    +0.000 HD
BRANCH  21  23
ATOM     23  C   UNL     1       5.151   4.001  18.841  0.00  0.00    +0.000 C 
BRANCH  23  24
ATOM     24  C   UNL     1       6.055   5.156  19.297  0.00  0.00    +0.000 C 
BRANCH  24  25
ATOM     25  N   UNL     1       7.438   5.094  18.793  0.00  0.00    +0.000 NA
ATOM     26  C   UNL     1       8.040   6.449  18.743  0.00  0.00    +0.000 C 
ATOM     27  C   UNL     1       7.453   7.341  17.633  0.00  0.00    +0.000 C 
ATOM     28  O   UNL     1       7.564   6.721  16.345  0.00  0.00    +0.000 OA
ATOM     29  C   UNL     1       6.951   5.425  16.336  0.00  0.00    +0.000 C 
ATOM     30  C   UNL     1       7.539   4.519  17.432  0.00  0.00    +0.000 C 
ENDBRANCH  24  25
ENDBRANCH  23  24
ENDBRANCH  21  23
ENDBRANCH  18  20
ENDBRANCH  17  18
ENDBRANCH   1  17
TORSDOF 7
ENDMDL
MODEL 6
REMARK VINA RESULT:      -7.8      1.297      1.840
REMARK  Name = 
REMARK  7 active torsions:
REMARK  status: ('A' for Active; 'I' for Inactive)
REMARK    1  A    between atoms: C_2  and  C_3
REMARK    2  A    between atoms: C_3  and  C_4
REMARK    3  A    between atoms: C_4  and  C_5
REMARK    4  A    between atoms: C_5  and  N_6
REMARK    5  A    between atoms: N_21  and  C_22
REMARK    6  A    between atoms: C_22  and  C_23
REMARK    7  A    between atoms: C_23  and  N_24
REMARK                            x       y       z     vdW  Elec       q    Type
REMARK                         _______ _______ _______ _____ _____    ______ ____
ROOT
ATOM      1  C   UNL     1       5.155   6.411  15.761  0.00  0.00    +0.000 C 
ENDROOT
BRANCH   1   2
ATOM      2  N   UNL     1       4.352   5.712  16.760  0.00  0.00    +0.000 N 
ATOM      3  C   UNL     1       4.399   4.319  16.773  0.00  0.00    +0.000 C 
ATOM      4  O   UNL     1       5.049   3.652  15.970  0.00  0.00    +0.000 OA
ATOM      5  C   UNL     1       3.632   3.629  17.833  0.00  0.00    +0.000 A 
ATOM      6  C   UNL     1       3.628   2.228  17.882  0.00  0.00    +0.000 A 
ATOM      7  C   UNL     1       2.941   1.567  18.896  0.00  0.00    +0.000 A 
ATOM      8  C   UNL     1       2.251   2.303  19.859  0.00  0.00    +0.000 A 
ATOM      9  C   UNL     1       2.229   3.705  19.813  0.00  0.00    +0.000 A 
ATOM     10  C   UNL     1       1.528   4.453  20.772  0.00  0.00    +0.000 A 
ATOM     11  C   UNL     1       1.513   5.847  20.718  0.00  0.00    +0.000 A 
ATOM     12  C   UNL     1       2.205   6.511  19.709  0.00  0.00    +0.000 A 
ATOM     13  C   UNL     1       2.915   5.778  18.749  0.00  0.00    +0.000 A 
ATOM     14  C   UNL     1       2.932   4.378  18.784  0.00  0.00    +0.000 A 
ATOM     15  C   UNL     1       3.671   6.494  17.691  0.00  0.00    +0.000 C 
ATOM     16  O   UNL     1       3.682   7.723  17.692  0.00  0.00    +0.000 OA
ENDBRANCH   1   2
BRANCH   1  17
ATOM     17  C   UNL     1       6.360   7.100  16.406  0.00  0.00    +0.000 C 
BRANCH  17  18
ATOM     18  C   UNL     1       7.092   6.168  17.361  0.00  0.00    +0.000 C 
BRANCH  18  20
ATOM     19  O   UNL     1       8.415   6.497  19.341  0.00  0.00    +0.000 OA
ATOM     20  C   UNL     1       7.933   6.976  18.322  0.00  0.00    +0.000 C 
ATOM     21  N   UNL     1       8.064   8.295  17.960  0.00  0.00    +0.000 N 
ATOM     22  H   UNL     1       7.656   8.616  17.091  0.00  0.00    +0.000 HD
BRANCH  21  23
ATOM     23  C   UNL     1       8.842   9.217  18.766  0.00  0.00    +0.000 C 
BRANCH  23  24
ATOM     24  C   UNL     1       8.784  10.644  18.202  0.00  0.00    +0.000 C 
BRANCH  24  25
ATOM     25  N   UNL     1      10.092  11.302  18.049  0.00  0.00    +0.000 NA
ATOM     26  C   UNL     1      10.817  11.338  19.343  0.00  0.00    +0.000 C 
ATOM     27  C   UNL     1      10.208  12.319  20.361  0.00  0.00    +0.000 C 
ATOM     28  O   UNL     1      10.120  13.646  19.826  0.00  0.00    +0.000 OA
ATOM     29  C   UNL     1       9.385  13.665  18.596  0.00  0.00    +0.000 C 
ATOM     30  C   UNL     1       9.992  12.698  17.565  0.00  0.00    +0.000 C 
ENDBRANCH  24  25
ENDBRANCH  23  24
ENDBRANCH  21  23
ENDBRANCH  18  20
ENDBRANCH  17  18
ENDBRANCH   1  17
TORSDOF 7
ENDMDL
MODEL 7
REMARK VINA RESULT:      -7.8      1.266      1.899
REMARK  Name = 
REMARK  7 active torsions:
REMARK  status: ('A' for Active; 'I' for Inactive)
REMARK    1  A    between atoms: C_2  and  C_3
REMARK    2  A    between atoms: C_3  and  C_4
REMARK    3  A    between atoms: C_4  and  C_5
REMARK    4  A    between atoms: C_5  and  N_6
REMARK    5  A    between atoms: N_21  and  C_22
REMARK    6  A    between atoms: C_22  and  C_23
REMARK    7  A    between atoms: C_23  and  N_24
REMARK                            x       y       z     vdW  Elec       q    Type
REMARK                         _______ _______ _______ _____ _____    ______ ____
ROOT
ATOM      1  C   UNL     1       6.299   4.414  16.844  0.00  0.00    +0.000 C 
ENDROOT
BRANCH   1   2
ATOM      2  N   UNL     1       5.155   4.986  17.549  0.00  0.00    +0.000 N 
ATOM      3  C   UNL     1       4.681   4.311  18.673  0.00  0.00    +0.000 C 
ATOM      4  O   UNL     1       5.150   3.248  19.077  0.00  0.00    +0.000 OA
ATOM      5  C   UNL     1       3.565   4.938  19.413  0.00  0.00    +0.000 A 
ATOM      6  C   UNL     1       3.036   4.292  20.541  0.00  0.00    +0.000 A 
ATOM      7  C   UNL     1       2.010   4.888  21.268  0.00  0.00    +0.000 A 
ATOM      8  C   UNL     1       1.506   6.126  20.869  0.00  0.00    +0.000 A 
ATOM      9  C   UNL     1       2.013   6.776  19.732  0.00  0.00    +0.000 A 
ATOM     10  C   UNL     1       1.503   8.017  19.317  0.00  0.00    +0.000 A 
ATOM     11  C   UNL     1       2.013   8.655  18.186  0.00  0.00    +0.000 A 
ATOM     12  C   UNL     1       3.044   8.063  17.460  0.00  0.00    +0.000 A 
ATOM     13  C   UNL     1       3.566   6.829  17.866  0.00  0.00    +0.000 A 
ATOM     14  C   UNL     1       3.058   6.172  18.994  0.00  0.00    +0.000 A 
ATOM     15  C   UNL     1       4.681   6.217  17.102  0.00  0.00    +0.000 C 
ATOM     16  O   UNL     1       5.146   6.820  16.137  0.00  0.00    +0.000 OA
ENDBRANCH   1   2
BRANCH   1  17
ATOM     17  C   UNL     1       7.603   4.681  17.601  0.00  0.00    +0.000 C 
BRANCH  17  18
ATOM     18  C   UNL     1       7.459   5.848  18.568  0.00  0.00    +0.000 C 
BRANCH  18  20
ATOM     19  O   UNL     1       7.998   7.257  16.697  0.00  0.00    +0.000 OA
ATOM     20  C   UNL     1       7.946   7.119  17.913  0.00  0.00    +0.000 C 
ATOM     21  N   UNL     1       8.357   8.075  18.810  0.00  0.00    +0.000 N 
ATOM     22  H   UNL     1       8.263   7.899  19.803  0.00  0.00    +0.000 HD
BRANCH  21  23
ATOM     23  C   UNL     1       8.850   9.362  18.357  0.00  0.00    +0.000 C 
BRANCH  23  24
ATOM     24  C   UNL     1       9.314  10.232  19.535  0.00  0.00    +0.000 C 
BRANCH  24  25
ATOM     25  N   UNL     1      10.357  11.217  19.201  0.00  0.00    +0.000 NA
ATOM     26  C   UNL     1      10.370  12.324  20.189  0.00  0.00    +0.000 C 
ATOM     27  C   UNL     1       9.154  13.262  20.076  0.00  0.00    +0.000 C 
ATOM     28  O   UNL     1       9.028  13.802  18.754  0.00  0.00    +0.000 OA
ATOM     29  C   UNL     1       8.964  12.763  17.769  0.00  0.00    +0.000 C 
ATOM     30  C   UNL     1      10.181  11.826  17.864  0.00  0.00    +0.000 C 
ENDBRANCH  24  25
ENDBRANCH  23  24
ENDBRANCH  21  23
ENDBRANCH  18  20
ENDBRANCH  17  18
ENDBRANCH   1  17
TORSDOF 7
ENDMDL
MODEL 8
REMARK VINA RESULT:      -7.6      3.146      5.852
REMARK  Name = 
REMARK  7 active torsions:
REMARK  status: ('A' for Active; 'I' for Inactive)
REMARK    1  A    between atoms: C_2  and  C_3
REMARK    2  A    between atoms: C_3  and  C_4
REMARK    3  A    between atoms: C_4  and  C_5
REMARK    4  A    between atoms: C_5  and  N_6
REMARK    5  A    between atoms: N_21  and  C_22
REMARK    6  A    between atoms: C_22  and  C_23
REMARK    7  A    between atoms: C_23  and  N_24
REMARK                            x       y       z     vdW  Elec       q    Type
REMARK                         _______ _______ _______ _____ _____    ______ ____
ROOT
ATOM      1  C   UNL     1       2.610   6.312  18.500  0.00  0.00    +0.000 C 
ENDROOT
BRANCH   1   2
ATOM      2  N   UNL     1       1.992   7.515  19.050  0.00  0.00    +0.000 N 
ATOM      3  C   UNL     1       1.402   7.424  20.310  0.00  0.00    +0.000 C 
ATOM      4  O   UNL     1       1.344   6.382  20.962  0.00  0.00    +0.000 OA
ATOM      5  C   UNL     1       0.839   8.666  20.882  0.00  0.00    +0.000 A 
ATOM      6  C   UNL     1       0.217   8.628  22.138  0.00  0.00    +0.000 A 
ATOM      7  C   UNL     1      -0.285   9.797  22.703  0.00  0.00    +0.000 A 
ATOM      8  C   UNL     1      -0.172  11.004  22.014  0.00  0.00    +0.000 A 
ATOM      9  C   UNL     1       0.432  11.055  20.748  0.00  0.00    +0.000 A 
ATOM     10  C   UNL     1       0.539  12.264  20.042  0.00  0.00    +0.000 A 
ATOM     11  C   UNL     1       1.141  12.305  18.785  0.00  0.00    +0.000 A 
ATOM     12  C   UNL     1       1.649  11.139  18.219  0.00  0.00    +0.000 A 
ATOM     13  C   UNL     1       1.555   9.926  18.914  0.00  0.00    +0.000 A 
ATOM     14  C   UNL     1       0.945   9.868  20.174  0.00  0.00    +0.000 A 
ATOM     15  C   UNL     1       2.121   8.691  18.316  0.00  0.00    +0.000 C 
ATOM     16  O   UNL     1       2.689   8.761  17.228  0.00  0.00    +0.000 OA
ENDBRANCH   1   2
BRANCH   1  17
ATOM     17  C   UNL     1       1.575   5.432  17.796  0.00  0.00    +0.000 C 
BRANCH  17  18
ATOM     18  C   UNL     1       1.750   3.964  18.160  0.00  0.00    +0.000 C 
BRANCH  18  20
ATOM     19  O   UNL     1       2.772   3.515  20.289  0.00  0.00    +0.000 OA
ATOM     20  C   UNL     1       2.916   3.807  19.108  0.00  0.00    +0.000 C 
ATOM     21  N   UNL     1       4.135   4.061  18.525  0.00  0.00    +0.000 N 
ATOM     22  H   UNL     1       4.178   4.275  17.537  0.00  0.00    +0.000 HD
BRANCH  21  23
ATOM     23  C   UNL     1       5.364   3.952  19.287  0.00  0.00    +0.000 C 
BRANCH  23  24
ATOM     24  C   UNL     1       6.116   5.290  19.336  0.00  0.00    +0.000 C 
BRANCH  24  25
ATOM     25  N   UNL     1       7.507   5.235  18.853  0.00  0.00    +0.000 NA
ATOM     26  C   UNL     1       8.055   6.602  18.672  0.00  0.00    +0.000 C 
ATOM     27  C   UNL     1       7.447   7.353  17.473  0.00  0.00    +0.000 C 
ATOM     28  O   UNL     1       7.600   6.612  16.255  0.00  0.00    +0.000 OA
ATOM     29  C   UNL     1       7.040   5.297  16.371  0.00  0.00    +0.000 C 
ATOM     30  C   UNL     1       7.649   4.531  17.558  0.00  0.00    +0.000 C 
ENDBRANCH  24  25
ENDBRANCH  23  24
ENDBRANCH  21  23
ENDBRANCH  18  20
ENDBRANCH  17  18
ENDBRANCH   1  17
TORSDOF 7
ENDMDL
MODEL 9
REMARK VINA RESULT:      -7.6      6.014      9.792
REMARK  Name = 
REMARK  7 active torsions:
REMARK  status: ('A' for Active; 'I' for Inactive)
REMARK    1  A    between atoms: C_2  and  C_3
REMARK    2  A    between atoms: C_3  and  C_4
REMARK    3  A    between atoms: C_4  and  C_5
REMARK    4  A    between atoms: C_5  and  N_6
REMARK    5  A    between atoms: N_21  and  C_22
REMARK    6  A    between atoms: C_22  and  C_23
REMARK    7  A    between atoms: C_23  and  N_24
REMARK                            x       y       z     vdW  Elec       q    Type
REMARK                         _______ _______ _______ _____ _____    ______ ____
ROOT
ATOM      1  C   UNL     1       2.160   9.158  18.673  0.00  0.00    +0.000 C 
ENDROOT
BRANCH   1   2
ATOM      2  N   UNL     1       2.508   7.747  18.812  0.00  0.00    +0.000 N 
ATOM      3  C   UNL     1       2.004   7.059  19.914  0.00  0.00    +0.000 C 
ATOM      4  O   UNL     1       1.316   7.583  20.789  0.00  0.00    +0.000 OA
ATOM      5  C   UNL     1       2.311   5.615  20.005  0.00  0.00    +0.000 A 
ATOM      6  C   UNL     1       1.845   4.878  21.103  0.00  0.00    +0.000 A 
ATOM      7  C   UNL     1       2.096   3.511  21.183  0.00  0.00    +0.000 A 
ATOM      8  C   UNL     1       2.817   2.879  20.170  0.00  0.00    +0.000 A 
ATOM      9  C   UNL     1       3.306   3.607  19.074  0.00  0.00    +0.000 A 
ATOM     10  C   UNL     1       4.042   2.980  18.055  0.00  0.00    +0.000 A 
ATOM     11  C   UNL     1       4.523   3.712  16.969  0.00  0.00    +0.000 A 
ATOM     12  C   UNL     1       4.269   5.078  16.885  0.00  0.00    +0.000 A 
ATOM     13  C   UNL     1       3.530   5.715  17.889  0.00  0.00    +0.000 A 
ATOM     14  C   UNL     1       3.048   4.996  18.990  0.00  0.00    +0.000 A 
ATOM     15  C   UNL     1       3.241   7.167  17.780  0.00  0.00    +0.000 C 
ATOM     16  O   UNL     1       3.635   7.781  16.790  0.00  0.00    +0.000 OA
ENDBRANCH   1   2
BRANCH   1  17
ATOM     17  C   UNL     1       0.816   9.327  17.960  0.00  0.00    +0.000 C 
BRANCH  17  18
ATOM     18  C   UNL     1      -0.042  10.392  18.631  0.00  0.00    +0.000 C 
BRANCH  18  20
ATOM     19  O   UNL     1      -1.721   9.692  17.059  0.00  0.00    +0.000 OA
ATOM     20  C   UNL     1      -1.404  10.438  17.978  0.00  0.00    +0.000 C 
ATOM     21  N   UNL     1      -2.222  11.417  18.487  0.00  0.00    +0.000 N 
ATOM     22  H   UNL     1      -1.900  11.982  19.263  0.00  0.00    +0.000 HD
BRANCH  21  23
ATOM     23  C   UNL     1      -3.570  11.602  17.982  0.00  0.00    +0.000 C 
BRANCH  23  24
ATOM     24  C   UNL     1      -4.543  11.987  19.105  0.00  0.00    +0.000 C 
BRANCH  24  25
ATOM     25  N   UNL     1      -5.931  12.218  18.668  0.00  0.00    +0.000 NA
ATOM     26  C   UNL     1      -6.720  12.867  19.744  0.00  0.00    +0.000 C 
ATOM     27  C   UNL     1      -7.027  11.933  20.928  0.00  0.00    +0.000 C 
ATOM     28  O   UNL     1      -7.697  10.740  20.498  0.00  0.00    +0.000 OA
ATOM     29  C   UNL     1      -6.944  10.055  19.489  0.00  0.00    +0.000 C 
ATOM     30  C   UNL     1      -6.641  10.975  18.293  0.00  0.00    +0.000 C 
ENDBRANCH  24  25
ENDBRANCH  23  24
ENDBRANCH  21  23
ENDBRANCH  18  20
ENDBRANCH  17  18
ENDBRANCH   1  17
TORSDOF 7
ENDMDL
