MODEL 1
REMARK VINA RESULT:      -8.6      0.000      0.000
REMARK  Name = 
REMARK  8 active torsions:
REMARK  status: ('A' for Active; 'I' for Inactive)
REMARK    1  A    between atoms: C_1  and  N_2
REMARK    2  A    between atoms: N_2  and  S_3
REMARK    3  A    between atoms: S_3  and  C_6
REMARK    4  A    between atoms: C_9  and  O_10
REMARK    5  A    between atoms: O_10  and  C_11
REMARK    6  A    between atoms: C_11  and  C_12
REMARK    7  A    between atoms: C_16  and  N_17
REMARK    8  A    between atoms: N_17  and  C_18
REMARK                            x       y       z     vdW  Elec       q    Type
REMARK                         _______ _______ _______ _____ _____    ______ ____
ROOT
ATOM      1  C   UNL     1       5.321   5.102  17.080  0.00  0.00    +0.000 A 
ATOM      2  C   UNL     1       4.626   3.997  16.608  0.00  0.00    +0.000 A 
ATOM      3  C   UNL     1       3.360   3.730  17.130  0.00  0.00    +0.000 A 
ATOM      4  C   UNL     1       2.771   4.575  18.089  0.00  0.00    +0.000 A 
ATOM      5  C   UNL     1       3.476   5.697  18.568  0.00  0.00    +0.000 A 
ATOM      6  C   UNL     1       4.766   5.926  18.062  0.00  0.00    +0.000 A 
ENDROOT
BRANCH   1   7
ATOM      7  S   UNL     1       6.914   5.532  16.429  0.00  0.00    +0.000 S 
ATOM      8  O   UNL     1       7.807   4.414  16.641  0.00  0.00    +0.000 OA
ATOM      9  O   UNL     1       7.222   6.866  16.896  0.00  0.00    +0.000 OA
BRANCH   7  11
ATOM     10  C   UNL     1       6.893   4.480  13.944  0.00  0.00    +0.000 C 
ATOM     11  N   UNL     1       6.600   5.645  14.775  0.00  0.00    +0.000 NA
ATOM     12  H   UNL     1       5.723   6.127  14.585  0.00  0.00    +0.000 HD
ENDBRANCH   7  11
ENDBRANCH   1   7
BRANCH   5  13
ATOM     13  N   UNL     1       2.939   6.581  19.535  0.00  0.00    +0.000 N 
ATOM     14  H   UNL     1       3.543   6.667  20.345  0.00  0.00    +0.000 HD
BRANCH  13  15
ATOM     15  C   UNL     1       2.208   7.754  19.267  0.00  0.00    +0.000 A 
ATOM     16  N   UNL     1       2.225   8.294  18.015  0.00  0.00    +0.000 NA
ATOM     17  C   UNL     1       1.510   9.412  17.776  0.00  0.00    +0.000 A 
ATOM     18  N   UNL     1       0.774  10.119  18.640  0.00  0.00    +0.000 NA
ATOM     19  C   UNL     1       0.795   9.573  19.861  0.00  0.00    +0.000 A 
ATOM     20  N   UNL     1       0.155  10.092  20.953  0.00  0.00    +0.000 N 
ATOM     21  C   UNL     1       0.402   9.301  22.050  0.00  0.00    +0.000 A 
ATOM     22  C   UNL     1       1.196   8.249  21.642  0.00  0.00    +0.000 A 
ATOM     23  C   UNL     1       1.454   8.416  20.252  0.00  0.00    +0.000 A 
ATOM     24  H   UNL     1      -0.383  10.942  20.939  0.00  0.00    +0.000 HD
ENDBRANCH  13  15
ENDBRANCH   5  13
BRANCH   4  25
ATOM     25  O   UNL     1       1.532   4.145  18.490  0.00  0.00    +0.000 OA
BRANCH  25  26
ATOM     26  C   UNL     1       1.471   3.022  19.378  0.00  0.00    +0.000 C 
BRANCH  26  27
ATOM     27  C   UNL     1       1.488   3.461  20.841  0.00  0.00    +0.000 C 
ATOM     28  F   UNL     1       0.814   2.622  21.656  0.00  0.00    +0.000 F 
ATOM     29  F   UNL     1       2.760   3.538  21.303  0.00  0.00    +0.000 F 
ATOM     30  F   UNL     1       0.939   4.691  20.981  0.00  0.00    +0.000 F 
ENDBRANCH  26  27
ENDBRANCH  25  26
ENDBRANCH   4  25
TORSDOF 7
ENDMDL
MODEL 2
REMARK VINA RESULT:      -8.5      1.067      1.452
REMARK  Name = 
REMARK  8 active torsions:
REMARK  status: ('A' for Active; 'I' for Inactive)
REMARK    1  A    between atoms: C_1  and  N_2
REMARK    2  A    between atoms: N_2  and  S_3
REMARK    3  A    between atoms: S_3  and  C_6
REMARK    4  A    between atoms: C_9  and  O_10
REMARK    5  A    between atoms: O_10  and  C_11
REMARK    6  A    between atoms: C_11  and  C_12
REMARK    7  A    between atoms: C_16  and  N_17
REMARK    8  A    between atoms: N_17  and  C_18
REMARK                            x       y       z     vdW  Elec       q    Type
REMARK                         _______ _______ _______ _____ _____    ______ ____
ROOT
ATOM      1  C   UNL     1       5.085   5.046  17.178  0.00  0.00    +0.000 A 
ATOM      2  C   UNL     1       4.463   3.836  16.906  0.00  0.00    +0.000 A 
ATOM      3  C   UNL     1       3.290   3.517  17.593  0.00  0.00    +0.000 A 
ATOM      4  C   UNL     1       2.718   4.410  18.518  0.00  0.00    +0.000 A 
ATOM      5  C   UNL     1       3.349   5.640  18.794  0.00  0.00    +0.000 A 
ATOM      6  C   UNL     1       4.551   5.925  18.125  0.00  0.00    +0.000 A 
ENDROOT
BRANCH   1   7
ATOM      7  S   UNL     1       6.551   5.540  16.311  0.00  0.00    +0.000 S 
ATOM      8  O   UNL     1       6.269   5.516  14.894  0.00  0.00    +0.000 OA
ATOM      9  O   UNL     1       7.658   4.812  16.892  0.00  0.00    +0.000 OA
BRANCH   7  11
ATOM     10  C   UNL     1       7.773   7.478  17.739  0.00  0.00    +0.000 C 
ATOM     11  N   UNL     1       6.715   7.152  16.786  0.00  0.00    +0.000 NA
ATOM     12  H   UNL     1       6.598   7.793  16.003  0.00  0.00    +0.000 HD
ENDBRANCH   7  11
ENDBRANCH   1   7
BRANCH   5  13
ATOM     13  N   UNL     1       2.825   6.578  19.716  0.00  0.00    +0.000 N 
ATOM     14  H   UNL     1       3.419   6.678  20.531  0.00  0.00    +0.000 HD
BRANCH  13  15
ATOM     15  C   UNL     1       2.134   7.760  19.390  0.00  0.00    +0.000 A 
ATOM     16  N   UNL     1       2.149   8.224  18.109  0.00  0.00    +0.000 NA
ATOM     17  C   UNL     1       1.472   9.352  17.814  0.00  0.00    +0.000 A 
ATOM     18  N   UNL     1       0.777  10.137  18.646  0.00  0.00    +0.000 NA
ATOM     19  C   UNL     1       0.799   9.663  19.897  0.00  0.00    +0.000 A 
ATOM     20  N   UNL     1       0.199  10.269  20.966  0.00  0.00    +0.000 N 
ATOM     21  C   UNL     1       0.435   9.535  22.104  0.00  0.00    +0.000 A 
ATOM     22  C   UNL     1       1.182   8.432  21.746  0.00  0.00    +0.000 A 
ATOM     23  C   UNL     1       1.422   8.507  20.346  0.00  0.00    +0.000 A 
ATOM     24  H   UNL     1      -0.308  11.136  20.910  0.00  0.00    +0.000 HD
ENDBRANCH  13  15
ENDBRANCH   5  13
BRANCH   4  25
ATOM     25  O   UNL     1       1.577   3.919  19.098  0.00  0.00    +0.000 OA
BRANCH  25  26
ATOM     26  C   UNL     1       1.676   2.690  19.828  0.00  0.00    +0.000 C 
BRANCH  26  27
ATOM     27  C   UNL     1       1.910   2.938  21.317  0.00  0.00    +0.000 C 
ATOM     28  F   UNL     1       3.065   2.404  21.770  0.00  0.00    +0.000 F 
ATOM     29  F   UNL     1       1.949   4.266  21.581  0.00  0.00    +0.000 F 
ATOM     30  F   UNL     1       0.904   2.414  22.057  0.00  0.00    +0.000 F 
ENDBRANCH  26  27
ENDBRANCH  25  26
ENDBRANCH   4  25
TORSDOF 7
ENDMDL
MODEL 3
REMARK VINA RESULT:      -8.5      1.021      1.634
REMARK  Name = 
REMARK  8 active torsions:
REMARK  status: ('A' for Active; 'I' for Inactive)
REMARK    1  A    between atoms: C_1  and  N_2
REMARK    2  A    between atoms: N_2  and  S_3
REMARK    3  A    between atoms: S_3  and  C_6
REMARK    4  A    between atoms: C_9  and  O_10
REMARK    5  A    between atoms: O_10  and  C_11
REMARK    6  A    between atoms: C_11  and  C_12
REMARK    7  A    between atoms: C_16  and  N_17
REMARK    8  A    between atoms: N_17  and  C_18
REMARK                            x       y       z     vdW  Elec       q    Type
REMARK                         _______ _______ _______ _____ _____    ______ ____
ROOT
ATOM      1  C   UNL     1       5.379   5.010  17.273  0.00  0.00    +0.000 A 
ATOM      2  C   UNL     1       4.683   3.952  16.706  0.00  0.00    +0.000 A 
ATOM      3  C   UNL     1       3.366   3.723  17.110  0.00  0.00    +0.000 A 
ATOM      4  C   UNL     1       2.731   4.562  18.044  0.00  0.00    +0.000 A 
ATOM      5  C   UNL     1       3.437   5.638  18.620  0.00  0.00    +0.000 A 
ATOM      6  C   UNL     1       4.775   5.826  18.234  0.00  0.00    +0.000 A 
ENDROOT
BRANCH   1   7
ATOM      7  S   UNL     1       7.038   5.391  16.776  0.00  0.00    +0.000 S 
ATOM      8  O   UNL     1       7.188   6.829  16.760  0.00  0.00    +0.000 OA
ATOM      9  O   UNL     1       7.338   4.569  15.623  0.00  0.00    +0.000 OA
BRANCH   7  11
ATOM     10  C   UNL     1       8.086   5.625  19.252  0.00  0.00    +0.000 C 
ATOM     11  N   UNL     1       7.941   4.784  18.066  0.00  0.00    +0.000 NA
ATOM     12  H   UNL     1       7.752   3.796  18.233  0.00  0.00    +0.000 HD
ENDBRANCH   7  11
ENDBRANCH   1   7
BRANCH   5  13
ATOM     13  N   UNL     1       2.856   6.514  19.568  0.00  0.00    +0.000 N 
ATOM     14  H   UNL     1       3.397   6.557  20.424  0.00  0.00    +0.000 HD
BRANCH  13  15
ATOM     15  C   UNL     1       2.185   7.718  19.279  0.00  0.00    +0.000 A 
ATOM     16  N   UNL     1       2.231   8.234  18.019  0.00  0.00    +0.000 NA
ATOM     17  C   UNL     1       1.574   9.383  17.759  0.00  0.00    +0.000 A 
ATOM     18  N   UNL     1       0.874  10.141  18.610  0.00  0.00    +0.000 NA
ATOM     19  C   UNL     1       0.866   9.615  19.840  0.00  0.00    +0.000 A 
ATOM     20  N   UNL     1       0.253  10.184  20.922  0.00  0.00    +0.000 N 
ATOM     21  C   UNL     1       0.458   9.401  22.033  0.00  0.00    +0.000 A 
ATOM     22  C   UNL     1       1.197   8.303  21.643  0.00  0.00    +0.000 A 
ATOM     23  C   UNL     1       1.465   8.433  20.252  0.00  0.00    +0.000 A 
ATOM     24  H   UNL     1      -0.242  11.060  20.893  0.00  0.00    +0.000 HD
ENDBRANCH  13  15
ENDBRANCH   5  13
BRANCH   4  25
ATOM     25  O   UNL     1       1.446   4.174  18.323  0.00  0.00    +0.000 OA
BRANCH  25  26
ATOM     26  C   UNL     1       1.262   3.078  19.228  0.00  0.00    +0.000 C 
BRANCH  26  27
ATOM     27  C   UNL     1       1.324   3.535  20.684  0.00  0.00    +0.000 C 
ATOM     28  F   UNL     1       0.752   4.741  20.888  0.00  0.00    +0.000 F 
ATOM     29  F   UNL     1       0.694   2.648  21.492  0.00  0.00    +0.000 F 
ATOM     30  F   UNL     1       2.608   3.618  21.109  0.00  0.00    +0.000 F 
ENDBRANCH  26  27
ENDBRANCH  25  26
ENDBRANCH   4  25
TORSDOF 7
ENDMDL
MODEL 4
REMARK VINA RESULT:      -8.3      1.278      1.622
REMARK  Name = 
REMARK  8 active torsions:
REMARK  status: ('A' for Active; 'I' for Inactive)
REMARK    1  A    between atoms: C_1  and  N_2
REMARK    2  A    between atoms: N_2  and  S_3
REMARK    3  A    between atoms: S_3  and  C_6
REMARK    4  A    between atoms: C_9  and  O_10
REMARK    5  A    between atoms: O_10  and  C_11
REMARK    6  A    between atoms: C_11  and  C_12
REMARK    7  A    between atoms: C_16  and  N_17
REMARK    8  A    between atoms: N_17  and  C_18
REMARK                            x       y       z     vdW  Elec       q    Type
REMARK                         _______ _______ _______ _____ _____    ______ ____
ROOT
ATOM      1  C   UNL     1       4.998   4.751  17.433  0.00  0.00    +0.000 A 
ATOM      2  C   UNL     1       4.213   3.659  17.086  0.00  0.00    +0.000 A 
ATOM      3  C   UNL     1       2.949   3.534  17.662  0.00  0.00    +0.000 A 
ATOM      4  C   UNL     1       2.449   4.505  18.550  0.00  0.00    +0.000 A 
ATOM      5  C   UNL     1       3.245   5.613  18.903  0.00  0.00    +0.000 A 
ATOM      6  C   UNL     1       4.532   5.700  18.346  0.00  0.00    +0.000 A 
ENDROOT
BRANCH   1   7
ATOM      7  S   UNL     1       6.596   5.002  16.707  0.00  0.00    +0.000 S 
ATOM      8  O   UNL     1       6.790   6.422  16.518  0.00  0.00    +0.000 OA
ATOM      9  O   UNL     1       6.728   4.053  15.623  0.00  0.00    +0.000 OA
BRANCH   7  11
ATOM     10  C   UNL     1       7.963   5.451  18.991  0.00  0.00    +0.000 C 
ATOM     11  N   UNL     1       7.628   4.492  17.941  0.00  0.00    +0.000 NA
ATOM     12  H   UNL     1       7.417   3.543  18.246  0.00  0.00    +0.000 HD
ENDBRANCH   7  11
ENDBRANCH   1   7
BRANCH   5  13
ATOM     13  N   UNL     1       2.801   6.620  19.794  0.00  0.00    +0.000 N 
ATOM     14  H   UNL     1       3.451   6.762  20.558  0.00  0.00    +0.000 HD
BRANCH  13  15
ATOM     15  C   UNL     1       2.107   7.792  19.437  0.00  0.00    +0.000 A 
ATOM     16  N   UNL     1       2.139   8.234  18.148  0.00  0.00    +0.000 NA
ATOM     17  C   UNL     1       1.459   9.353  17.824  0.00  0.00    +0.000 A 
ATOM     18  N   UNL     1       0.747  10.146  18.632  0.00  0.00    +0.000 NA
ATOM     19  C   UNL     1       0.752   9.694  19.891  0.00  0.00    +0.000 A 
ATOM     20  N   UNL     1       0.131  10.313  20.940  0.00  0.00    +0.000 N 
ATOM     21  C   UNL     1       0.354   9.600  22.094  0.00  0.00    +0.000 A 
ATOM     22  C   UNL     1       1.114   8.496  21.766  0.00  0.00    +0.000 A 
ATOM     23  C   UNL     1       1.375   8.550  20.369  0.00  0.00    +0.000 A 
ATOM     24  H   UNL     1      -0.380  11.176  20.861  0.00  0.00    +0.000 HD
ENDBRANCH  13  15
ENDBRANCH   5  13
BRANCH   4  25
ATOM     25  O   UNL     1       1.197   4.204  19.019  0.00  0.00    +0.000 OA
BRANCH  25  26
ATOM     26  C   UNL     1       1.010   4.156  20.440  0.00  0.00    +0.000 C 
BRANCH  26  27
ATOM     27  C   UNL     1       1.583   2.874  21.039  0.00  0.00    +0.000 C 
ATOM     28  F   UNL     1       1.583   1.836  20.175  0.00  0.00    +0.000 F 
ATOM     29  F   UNL     1       2.863   3.063  21.442  0.00  0.00    +0.000 F 
ATOM     30  F   UNL     1       0.875   2.493  22.130  0.00  0.00    +0.000 F 
ENDBRANCH  26  27
ENDBRANCH  25  26
ENDBRANCH   4  25
TORSDOF 7
ENDMDL
MODEL 5
REMARK VINA RESULT:      -8.3      0.899      1.111
REMARK  Name = 
REMARK  8 active torsions:
REMARK  status: ('A' for Active; 'I' for Inactive)
REMARK    1  A    between atoms: C_1  and  N_2
REMARK    2  A    between atoms: N_2  and  S_3
REMARK    3  A    between atoms: S_3  and  C_6
REMARK    4  A    between atoms: C_9  and  O_10
REMARK    5  A    between atoms: O_10  and  C_11
REMARK    6  A    between atoms: C_11  and  C_12
REMARK    7  A    between atoms: C_16  and  N_17
REMARK    8  A    between atoms: N_17  and  C_18
REMARK                            x       y       z     vdW  Elec       q    Type
REMARK                         _______ _______ _______ _____ _____    ______ ____
ROOT
ATOM      1  C   UNL     1       4.633   5.067  17.166  0.00  0.00    +0.000 A 
ATOM      2  C   UNL     1       3.941   3.876  16.989  0.00  0.00    +0.000 A 
ATOM      3  C   UNL     1       2.820   3.629  17.783  0.00  0.00    +0.000 A 
ATOM      4  C   UNL     1       2.365   4.574  18.722  0.00  0.00    +0.000 A 
ATOM      5  C   UNL     1       3.066   5.783  18.901  0.00  0.00    +0.000 A 
ATOM      6  C   UNL     1       4.217   5.996  18.124  0.00  0.00    +0.000 A 
ENDROOT
BRANCH   1   7
ATOM      7  S   UNL     1       6.038   5.471  16.162  0.00  0.00    +0.000 S 
ATOM      8  O   UNL     1       7.165   5.710  17.036  0.00  0.00    +0.000 OA
ATOM      9  O   UNL     1       5.599   6.441  15.183  0.00  0.00    +0.000 OA
BRANCH   7  11
ATOM     10  C   UNL     1       6.209   4.038  13.881  0.00  0.00    +0.000 C 
ATOM     11  N   UNL     1       6.310   4.023  15.339  0.00  0.00    +0.000 NA
ATOM     12  H   UNL     1       7.092   3.502  15.732  0.00  0.00    +0.000 HD
ENDBRANCH   7  11
ENDBRANCH   1   7
BRANCH   5  13
ATOM     13  N   UNL     1       2.662   6.770  19.832  0.00  0.00    +0.000 N 
ATOM     14  H   UNL     1       3.342   6.893  20.572  0.00  0.00    +0.000 HD
BRANCH  13  15
ATOM     15  C   UNL     1       1.959   7.952  19.530  0.00  0.00    +0.000 A 
ATOM     16  N   UNL     1       1.939   8.422  18.251  0.00  0.00    +0.000 NA
ATOM     17  C   UNL     1       1.251   9.550  17.979  0.00  0.00    +0.000 A 
ATOM     18  N   UNL     1       0.577  10.329  18.833  0.00  0.00    +0.000 NA
ATOM     19  C   UNL     1       0.633   9.849  20.081  0.00  0.00    +0.000 A 
ATOM     20  N   UNL     1       0.060  10.448  21.169  0.00  0.00    +0.000 N 
ATOM     21  C   UNL     1       0.328   9.710  22.296  0.00  0.00    +0.000 A 
ATOM     22  C   UNL     1       1.068   8.610  21.914  0.00  0.00    +0.000 A 
ATOM     23  C   UNL     1       1.271   8.693  20.507  0.00  0.00    +0.000 A 
ATOM     24  H   UNL     1      -0.450  11.315  21.130  0.00  0.00    +0.000 HD
ENDBRANCH  13  15
ENDBRANCH   5  13
BRANCH   4  25
ATOM     25  O   UNL     1       1.259   4.150  19.412  0.00  0.00    +0.000 OA
BRANCH  25  26
ATOM     26  C   UNL     1       1.317   2.862  20.038  0.00  0.00    +0.000 C 
BRANCH  26  27
ATOM     27  C   UNL     1       1.871   2.951  21.459  0.00  0.00    +0.000 C 
ATOM     28  F   UNL     1       3.081   2.368  21.596  0.00  0.00    +0.000 F 
ATOM     29  F   UNL     1       2.001   4.245  21.842  0.00  0.00    +0.000 F 
ATOM     30  F   UNL     1       1.032   2.357  22.341  0.00  0.00    +0.000 F 
ENDBRANCH  26  27
ENDBRANCH  25  26
ENDBRANCH   4  25
TORSDOF 7
ENDMDL
MODEL 6
REMARK VINA RESULT:      -8.1      3.047      6.486
REMARK  Name = 
REMARK  8 active torsions:
REMARK  status: ('A' for Active; 'I' for Inactive)
REMARK    1  A    between atoms: C_1  and  N_2
REMARK    2  A    between atoms: N_2  and  S_3
REMARK    3  A    between atoms: S_3  and  C_6
REMARK    4  A    between atoms: C_9  and  O_10
REMARK    5  A    between atoms: O_10  and  C_11
REMARK    6  A    between atoms: C_11  and  C_12
REMARK    7  A    between atoms: C_16  and  N_17
REMARK    8  A    between atoms: N_17  and  C_18
REMARK                            x       y       z     vdW  Elec       q    Type
REMARK                         _______ _______ _______ _____ _____    ______ ____
ROOT
ATOM      1  C   UNL     1       1.651   8.816  19.218  0.00  0.00    +0.000 A 
ATOM      2  C   UNL     1       1.178   8.276  20.407  0.00  0.00    +0.000 A 
ATOM      3  C   UNL     1       1.473   6.944  20.700  0.00  0.00    +0.000 A 
ATOM      4  C   UNL     1       2.264   6.162  19.838  0.00  0.00    +0.000 A 
ATOM      5  C   UNL     1       2.745   6.710  18.632  0.00  0.00    +0.000 A 
ATOM      6  C   UNL     1       2.402   8.039  18.332  0.00  0.00    +0.000 A 
ENDROOT
BRANCH   1   7
ATOM      7  S   UNL     1       1.357  10.514  18.800  0.00  0.00    +0.000 S 
ATOM      8  O   UNL     1       2.375  10.932  17.862  0.00  0.00    +0.000 OA
ATOM      9  O   UNL     1       1.106  11.223  20.035  0.00  0.00    +0.000 OA
BRANCH   7  11
ATOM     10  C   UNL     1      -1.142  11.406  18.304  0.00  0.00    +0.000 C 
ATOM     11  N   UNL     1      -0.112  10.424  17.973  0.00  0.00    +0.000 NA
ATOM     12  H   UNL     1       0.019  10.222  16.983  0.00  0.00    +0.000 HD
ENDBRANCH   7  11
ENDBRANCH   1   7
BRANCH   5  13
ATOM     13  N   UNL     1       3.540   5.973  17.721  0.00  0.00    +0.000 N 
ATOM     14  H   UNL     1       3.319   6.197  16.759  0.00  0.00    +0.000 HD
BRANCH  13  15
ATOM     15  C   UNL     1       4.889   5.613  17.906  0.00  0.00    +0.000 A 
ATOM     16  N   UNL     1       5.441   5.665  19.151  0.00  0.00    +0.000 NA
ATOM     17  C   UNL     1       6.732   5.306  19.309  0.00  0.00    +0.000 A 
ATOM     18  N   UNL     1       7.599   4.916  18.368  0.00  0.00    +0.000 NA
ATOM     19  C   UNL     1       7.030   4.894  17.158  0.00  0.00    +0.000 A 
ATOM     20  N   UNL     1       7.680   4.562  16.001  0.00  0.00    +0.000 N 
ATOM     21  C   UNL     1       6.813   4.666  14.939  0.00  0.00    +0.000 A 
ATOM     22  C   UNL     1       5.585   5.053  15.434  0.00  0.00    +0.000 A 
ATOM     23  C   UNL     1       5.714   5.205  16.843  0.00  0.00    +0.000 A 
ATOM     24  H   UNL     1       8.653   4.311  15.955  0.00  0.00    +0.000 HD
ENDBRANCH  13  15
ENDBRANCH   5  13
BRANCH   4  25
ATOM     25  O   UNL     1       2.435   4.879  20.289  0.00  0.00    +0.000 OA
BRANCH  25  26
ATOM     26  C   UNL     1       1.338   3.968  20.143  0.00  0.00    +0.000 C 
BRANCH  26  27
ATOM     27  C   UNL     1       1.382   3.246  18.798  0.00  0.00    +0.000 C 
ATOM     28  F   UNL     1       0.634   2.122  18.773  0.00  0.00    +0.000 F 
ATOM     29  F   UNL     1       0.932   4.052  17.806  0.00  0.00    +0.000 F 
ATOM     30  F   UNL     1       2.651   2.895  18.481  0.00  0.00    +0.000 F 
ENDBRANCH  26  27
ENDBRANCH  25  26
ENDBRANCH   4  25
TORSDOF 7
ENDMDL
MODEL 7
REMARK VINA RESULT:      -8.0      1.466      2.389
REMARK  Name = 
REMARK  8 active torsions:
REMARK  status: ('A' for Active; 'I' for Inactive)
REMARK    1  A    between atoms: C_1  and  N_2
REMARK    2  A    between atoms: N_2  and  S_3
REMARK    3  A    between atoms: S_3  and  C_6
REMARK    4  A    between atoms: C_9  and  O_10
REMARK    5  A    between atoms: O_10  and  C_11
REMARK    6  A    between atoms: C_11  and  C_12
REMARK    7  A    between atoms: C_16  and  N_17
REMARK    8  A    between atoms: N_17  and  C_18
REMARK                            x       y       z     vdW  Elec       q    Type
REMARK                         _______ _______ _______ _____ _____    ______ ____
ROOT
ATOM      1  C   UNL     1       4.304   5.090  17.045  0.00  0.00    +0.000 A 
ATOM      2  C   UNL     1       3.464   4.009  16.815  0.00  0.00    +0.000 A 
ATOM      3  C   UNL     1       2.426   3.766  17.715  0.00  0.00    +0.000 A 
ATOM      4  C   UNL     1       2.198   4.612  18.817  0.00  0.00    +0.000 A 
ATOM      5  C   UNL     1       3.050   5.711  19.049  0.00  0.00    +0.000 A 
ATOM      6  C   UNL     1       4.117   5.914  18.157  0.00  0.00    +0.000 A 
ENDROOT
BRANCH   1   7
ATOM      7  S   UNL     1       5.616   5.489  15.919  0.00  0.00    +0.000 S 
ATOM      8  O   UNL     1       5.292   6.740  15.272  0.00  0.00    +0.000 OA
ATOM      9  O   UNL     1       5.920   4.287  15.173  0.00  0.00    +0.000 OA
BRANCH   7  11
ATOM     10  C   UNL     1       7.521   4.601  17.613  0.00  0.00    +0.000 C 
ATOM     11  N   UNL     1       6.910   5.761  16.969  0.00  0.00    +0.000 NA
ATOM     12  H   UNL     1       7.550   6.468  16.610  0.00  0.00    +0.000 HD
ENDBRANCH   7  11
ENDBRANCH   1   7
BRANCH   5  13
ATOM     13  N   UNL     1       2.877   6.595  20.142  0.00  0.00    +0.000 N 
ATOM     14  H   UNL     1       3.763   6.867  20.551  0.00  0.00    +0.000 HD
BRANCH  13  15
ATOM     15  C   UNL     1       1.891   7.595  20.247  0.00  0.00    +0.000 A 
ATOM     16  N   UNL     1       1.013   7.575  21.289  0.00  0.00    +0.000 NA
ATOM     17  C   UNL     1       0.082   8.547  21.378  0.00  0.00    +0.000 A 
ATOM     18  N   UNL     1      -0.132   9.561  20.533  0.00  0.00    +0.000 NA
ATOM     19  C   UNL     1       0.735   9.540  19.514  0.00  0.00    +0.000 A 
ATOM     20  N   UNL     1       0.739  10.436  18.481  0.00  0.00    +0.000 N 
ATOM     21  C   UNL     1       1.739  10.113  17.595  0.00  0.00    +0.000 A 
ATOM     22  C   UNL     1       2.394   9.003  18.085  0.00  0.00    +0.000 A 
ATOM     23  C   UNL     1       1.760   8.628  19.303  0.00  0.00    +0.000 A 
ATOM     24  H   UNL     1       0.081  11.192  18.389  0.00  0.00    +0.000 HD
ENDBRANCH  13  15
ENDBRANCH   5  13
BRANCH   4  25
ATOM     25  O   UNL     1       1.142   4.208  19.591  0.00  0.00    +0.000 OA
BRANCH  25  26
ATOM     26  C   UNL     1       1.200   2.897  20.167  0.00  0.00    +0.000 C 
BRANCH  26  27
ATOM     27  C   UNL     1       1.878   2.913  21.536  0.00  0.00    +0.000 C 
ATOM     28  F   UNL     1       2.161   4.159  21.974  0.00  0.00    +0.000 F 
ATOM     29  F   UNL     1       1.087   2.327  22.468  0.00  0.00    +0.000 F 
ATOM     30  F   UNL     1       3.040   2.219  21.507  0.00  0.00    +0.000 F 
ENDBRANCH  26  27
ENDBRANCH  25  26
ENDBRANCH   4  25
TORSDOF 7
ENDMDL
MODEL 8
REMARK VINA RESULT:      -8.0      1.620      1.769
REMARK  Name = 
REMARK  8 active torsions:
REMARK  status: ('A' for Active; 'I' for Inactive)
REMARK    1  A    between atoms: C_1  and  N_2
REMARK    2  A    between atoms: N_2  and  S_3
REMARK    3  A    between atoms: S_3  and  C_6
REMARK    4  A    between atoms: C_9  and  O_10
REMARK    5  A    between atoms: O_10  and  C_11
REMARK    6  A    between atoms: C_11  and  C_12
REMARK    7  A    between atoms: C_16  and  N_17
REMARK    8  A    between atoms: N_17  and  C_18
REMARK                            x       y       z     vdW  Elec       q    Type
REMARK                         _______ _______ _______ _____ _____    ______ ____
ROOT
ATOM      1  C   UNL     1       5.858   5.109  18.597  0.00  0.00    +0.000 A 
ATOM      2  C   UNL     1       5.391   4.305  17.567  0.00  0.00    +0.000 A 
ATOM      3  C   UNL     1       4.015   4.240  17.340  0.00  0.00    +0.000 A 
ATOM      4  C   UNL     1       3.110   4.998  18.106  0.00  0.00    +0.000 A 
ATOM      5  C   UNL     1       3.584   5.816  19.152  0.00  0.00    +0.000 A 
ATOM      6  C   UNL     1       4.968   5.835  19.394  0.00  0.00    +0.000 A 
ENDROOT
BRANCH   1   7
ATOM      7  S   UNL     1       7.595   5.278  18.915  0.00  0.00    +0.000 S 
ATOM      8  O   UNL     1       8.309   4.414  18.002  0.00  0.00    +0.000 OA
ATOM      9  O   UNL     1       7.777   5.208  20.348  0.00  0.00    +0.000 OA
BRANCH   7  11
ATOM     10  C   UNL     1       7.397   7.309  17.148  0.00  0.00    +0.000 C 
ATOM     11  N   UNL     1       7.883   6.877  18.456  0.00  0.00    +0.000 NA
ATOM     12  H   UNL     1       7.741   7.526  19.228  0.00  0.00    +0.000 HD
ENDBRANCH   7  11
ENDBRANCH   1   7
BRANCH   5  13
ATOM     13  N   UNL     1       2.725   6.598  19.961  0.00  0.00    +0.000 N 
ATOM     14  H   UNL     1       3.016   6.597  20.931  0.00  0.00    +0.000 HD
BRANCH  13  15
ATOM     15  C   UNL     1       2.091   7.795  19.577  0.00  0.00    +0.000 A 
ATOM     16  N   UNL     1       2.207   8.243  18.295  0.00  0.00    +0.000 NA
ATOM     17  C   UNL     1       1.584   9.387  17.944  0.00  0.00    +0.000 A 
ATOM     18  N   UNL     1       0.857  10.199  18.719  0.00  0.00    +0.000 NA
ATOM     19  C   UNL     1       0.780   9.739  19.973  0.00  0.00    +0.000 A 
ATOM     20  N   UNL     1       0.125  10.374  20.992  0.00  0.00    +0.000 N 
ATOM     21  C   UNL     1       0.262   9.647  22.151  0.00  0.00    +0.000 A 
ATOM     22  C   UNL     1       1.000   8.519  21.856  0.00  0.00    +0.000 A 
ATOM     23  C   UNL     1       1.338   8.572  20.474  0.00  0.00    +0.000 A 
ATOM     24  H   UNL     1      -0.351  11.255  20.893  0.00  0.00    +0.000 HD
ENDBRANCH  13  15
ENDBRANCH   5  13
BRANCH   4  25
ATOM     25  O   UNL     1       1.804   4.795  17.744  0.00  0.00    +0.000 OA
BRANCH  25  26
ATOM     26  C   UNL     1       1.282   3.464  17.845  0.00  0.00    +0.000 C 
BRANCH  26  27
ATOM     27  C   UNL     1       0.993   3.083  19.296  0.00  0.00    +0.000 C 
ATOM     28  F   UNL     1      -0.025   2.205  19.422  0.00  0.00    +0.000 F 
ATOM     29  F   UNL     1       2.084   2.521  19.871  0.00  0.00    +0.000 F 
ATOM     30  F   UNL     1       0.677   4.178  20.028  0.00  0.00    +0.000 F 
ENDBRANCH  26  27
ENDBRANCH  25  26
ENDBRANCH   4  25
TORSDOF 7
ENDMDL
MODEL 9
REMARK VINA RESULT:      -8.0      1.530      1.569
REMARK  Name = 
REMARK  8 active torsions:
REMARK  status: ('A' for Active; 'I' for Inactive)
REMARK    1  A    between atoms: C_1  and  N_2
REMARK    2  A    between atoms: N_2  and  S_3
REMARK    3  A    between atoms: S_3  and  C_6
REMARK    4  A    between atoms: C_9  and  O_10
REMARK    5  A    between atoms: O_10  and  C_11
REMARK    6  A    between atoms: C_11  and  C_12
REMARK    7  A    between atoms: C_16  and  N_17
REMARK    8  A    between atoms: N_17  and  C_18
REMARK                            x       y       z     vdW  Elec       q    Type
REMARK                         _______ _______ _______ _____ _____    ______ ____
ROOT
ATOM      1  C   UNL     1       5.612   5.825  18.247  0.00  0.00    +0.000 A 
ATOM      2  C   UNL     1       5.484   4.657  18.986  0.00  0.00    +0.000 A 
ATOM      3  C   UNL     1       4.214   4.281  19.427  0.00  0.00    +0.000 A 
ATOM      4  C   UNL     1       3.073   5.039  19.105  0.00  0.00    +0.000 A 
ATOM      5  C   UNL     1       3.203   6.224  18.353  0.00  0.00    +0.000 A 
ATOM      6  C   UNL     1       4.494   6.610  17.955  0.00  0.00    +0.000 A 
ENDROOT
BRANCH   1   7
ATOM      7  S   UNL     1       7.186   6.341  17.613  0.00  0.00    +0.000 S 
ATOM      8  O   UNL     1       8.084   6.533  18.730  0.00  0.00    +0.000 OA
ATOM      9  O   UNL     1       6.934   7.378  16.635  0.00  0.00    +0.000 OA
BRANCH   7  11
ATOM     10  C   UNL     1       6.948   4.603  15.561  0.00  0.00    +0.000 C 
ATOM     11  N   UNL     1       7.691   4.973  16.764  0.00  0.00    +0.000 NA
ATOM     12  H   UNL     1       8.706   4.914  16.704  0.00  0.00    +0.000 HD
ENDBRANCH   7  11
ENDBRANCH   1   7
BRANCH   5  13
ATOM     13  N   UNL     1       2.095   7.032  18.002  0.00  0.00    +0.000 N 
ATOM     14  H   UNL     1       1.244   6.489  17.915  0.00  0.00    +0.000 HD
BRANCH  13  15
ATOM     15  C   UNL     1       1.863   8.351  18.435  0.00  0.00    +0.000 A 
ATOM     16  N   UNL     1       2.041   9.391  17.572  0.00  0.00    +0.000 NA
ATOM     17  C   UNL     1       1.805  10.646  18.003  0.00  0.00    +0.000 A 
ATOM     18  N   UNL     1       1.431  11.040  19.225  0.00  0.00    +0.000 NA
ATOM     19  C   UNL     1       1.284   9.998  20.051  0.00  0.00    +0.000 A 
ATOM     20  N   UNL     1       0.935  10.097  21.370  0.00  0.00    +0.000 N 
ATOM     21  C   UNL     1       0.897   8.843  21.932  0.00  0.00    +0.000 A 
ATOM     22  C   UNL     1       1.208   7.930  20.946  0.00  0.00    +0.000 A 
ATOM     23  C   UNL     1       1.460   8.655  19.747  0.00  0.00    +0.000 A 
ATOM     24  H   UNL     1       0.766  10.968  21.843  0.00  0.00    +0.000 HD
ENDBRANCH  13  15
ENDBRANCH   5  13
BRANCH   4  25
ATOM     25  O   UNL     1       1.920   4.519  19.635  0.00  0.00    +0.000 OA
BRANCH  25  26
ATOM     26  C   UNL     1       1.881   4.285  21.048  0.00  0.00    +0.000 C 
BRANCH  26  27
ATOM     27  C   UNL     1       1.770   2.796  21.369  0.00  0.00    +0.000 C 
ATOM     28  F   UNL     1       1.444   2.044  20.296  0.00  0.00    +0.000 F 
ATOM     29  F   UNL     1       2.942   2.321  21.854  0.00  0.00    +0.000 F 
ATOM     30  F   UNL     1       0.828   2.577  22.318  0.00  0.00    +0.000 F 
ENDBRANCH  26  27
ENDBRANCH  25  26
ENDBRANCH   4  25
TORSDOF 7
ENDMDL
