MODEL 1
REMARK VINA RESULT:      -7.6      0.000      0.000
REMARK  Name = 
REMARK  7 active torsions:
REMARK  status: ('A' for Active; 'I' for Inactive)
REMARK    1  A    between atoms: C_1  and  O_2
REMARK    2  A    between atoms: O_2  and  C_3
REMARK    3  A    between atoms: C_5  and  C_6
REMARK    4  A    between atoms: C_8  and  C_9
REMARK    5  A    between atoms: N_22  and  C_23
REMARK    6  A    between atoms: C_26  and  O_27
REMARK    7  A    between atoms: C_32  and  O_33
REMARK                            x       y       z     vdW  Elec       q    Type
REMARK                         _______ _______ _______ _____ _____    ______ ____
ROOT
ATOM      1  C   UNL     1       0.874  12.813  19.013  0.00  0.00    +0.000 C 
ATOM      2  C   UNL     1       1.809  11.682  18.589  0.00  0.00    +0.000 C 
ATOM      3  C   UNL     1       1.150  10.523  19.279  0.00  0.00    +0.000 C 
ATOM      4  N   UNL     1       0.134  10.808  20.037  0.00  0.00    +0.000 NA
ATOM      5  N   UNL     1      -0.049  12.165  19.948  0.00  0.00    +0.000 N 
ATOM      6  C   UNL     1      -1.148  12.804  20.514  0.00  0.00    +0.000 C 
ATOM      7  O   UNL     1      -1.378  13.991  20.302  0.00  0.00    +0.000 OA
ATOM      8  N   UNL     1      -1.894  11.960  21.325  0.00  0.00    +0.000 N 
ATOM      9  H   UNL     1      -1.452  11.061  21.468  0.00  0.00    +0.000 HD
ENDROOT
BRANCH   3  10
ATOM     10  C   UNL     1       1.605   9.173  19.140  0.00  0.00    +0.000 A 
ATOM     11  C   UNL     1       2.177   8.545  18.052  0.00  0.00    +0.000 A 
ATOM     12  C   UNL     1       2.438   7.207  18.431  0.00  0.00    +0.000 A 
ATOM     13  C   UNL     1       2.991   6.084  17.800  0.00  0.00    +0.000 A 
ATOM     14  C   UNL     1       3.073   4.882  18.519  0.00  0.00    +0.000 A 
ATOM     15  C   UNL     1       2.613   4.804  19.837  0.00  0.00    +0.000 A 
ATOM     16  C   UNL     1       2.065   5.917  20.486  0.00  0.00    +0.000 A 
ATOM     17  C   UNL     1       1.998   7.098  19.747  0.00  0.00    +0.000 A 
ATOM     18  O   UNL     1       1.503   8.296  20.185  0.00  0.00    +0.000 OA
ENDBRANCH   3  10
BRANCH   1  21
ATOM     19  C   UNL     1       2.960  14.977  21.413  0.00  0.00    +0.000 A 
ATOM     20  C   UNL     1       2.278  13.890  20.846  0.00  0.00    +0.000 A 
ATOM     21  C   UNL     1       1.617  13.993  19.611  0.00  0.00    +0.000 A 
ATOM     22  C   UNL     1       1.642  15.227  18.946  0.00  0.00    +0.000 A 
ATOM     23  C   UNL     1       2.304  16.322  19.504  0.00  0.00    +0.000 A 
ATOM     24  C   UNL     1       2.960  16.199  20.733  0.00  0.00    +0.000 A 
BRANCH  19  26
ATOM     25  C   UNL     1       4.917  14.263  22.586  0.00  0.00    +0.000 C 
ATOM     26  O   UNL     1       3.556  14.664  22.605  0.00  0.00    +0.000 OA
ENDBRANCH  19  26
BRANCH  24  27
ATOM     27  O   UNL     1       3.590  17.302  21.239  0.00  0.00    +0.000 OA
ATOM     28  H   UNL     1       4.533  17.261  21.014  0.00  0.00    +0.000 HD
ENDBRANCH  24  27
ENDBRANCH   1  21
BRANCH   8  29
ATOM     29  C   UNL     1      -3.030  12.313  22.079  0.00  0.00    +0.000 A 
ATOM     30  C   UNL     1      -4.220  12.738  21.486  0.00  0.00    +0.000 A 
ATOM     31  C   UNL     1      -5.297  13.181  22.257  0.00  0.00    +0.000 A 
ATOM     32  C   UNL     1      -5.188  13.184  23.639  0.00  0.00    +0.000 A 
ATOM     33  C   UNL     1      -4.036  12.709  24.258  0.00  0.00    +0.000 A 
ATOM     34  C   UNL     1      -2.959  12.263  23.479  0.00  0.00    +0.000 A 
BRANCH  32  35
ATOM     35  O   UNL     1      -6.199  13.654  24.420  0.00  0.00    +0.000 OA
ATOM     36  H   UNL     1      -5.842  13.823  25.310  0.00  0.00    +0.000 HD
ENDBRANCH  32  35
ENDBRANCH   8  29
TORSDOF 6
ENDMDL
MODEL 2
REMARK VINA RESULT:      -7.5      0.770      1.975
REMARK  Name = 
REMARK  7 active torsions:
REMARK  status: ('A' for Active; 'I' for Inactive)
REMARK    1  A    between atoms: C_1  and  O_2
REMARK    2  A    between atoms: O_2  and  C_3
REMARK    3  A    between atoms: C_5  and  C_6
REMARK    4  A    between atoms: C_8  and  C_9
REMARK    5  A    between atoms: N_22  and  C_23
REMARK    6  A    between atoms: C_26  and  O_27
REMARK    7  A    between atoms: C_32  and  O_33
REMARK                            x       y       z     vdW  Elec       q    Type
REMARK                         _______ _______ _______ _____ _____    ______ ____
ROOT
ATOM      1  C   UNL     1       0.767  12.997  18.933  0.00  0.00    +0.000 C 
ATOM      2  C   UNL     1       1.706  11.875  18.494  0.00  0.00    +0.000 C 
ATOM      3  C   UNL     1       1.102  10.720  19.238  0.00  0.00    +0.000 C 
ATOM      4  N   UNL     1       0.115  11.002  20.034  0.00  0.00    +0.000 NA
ATOM      5  N   UNL     1      -0.100  12.352  19.922  0.00  0.00    +0.000 N 
ATOM      6  C   UNL     1      -1.187  12.983  20.522  0.00  0.00    +0.000 C 
ATOM      7  O   UNL     1      -1.451  14.159  20.294  0.00  0.00    +0.000 OA
ATOM      8  N   UNL     1      -1.879  12.143  21.384  0.00  0.00    +0.000 N 
ATOM      9  H   UNL     1      -1.412  11.257  21.527  0.00  0.00    +0.000 HD
ENDROOT
BRANCH   3  10
ATOM     10  C   UNL     1       1.578   9.376  19.109  0.00  0.00    +0.000 A 
ATOM     11  C   UNL     1       2.183   8.756  18.034  0.00  0.00    +0.000 A 
ATOM     12  C   UNL     1       2.454   7.422  18.418  0.00  0.00    +0.000 A 
ATOM     13  C   UNL     1       3.037   6.307  17.800  0.00  0.00    +0.000 A 
ATOM     14  C   UNL     1       3.119   5.106  18.520  0.00  0.00    +0.000 A 
ATOM     15  C   UNL     1       2.630   5.022  19.827  0.00  0.00    +0.000 A 
ATOM     16  C   UNL     1       2.053   6.126  20.464  0.00  0.00    +0.000 A 
ATOM     17  C   UNL     1       1.986   7.307  19.724  0.00  0.00    +0.000 A 
ATOM     18  O   UNL     1       1.465   8.497  20.151  0.00  0.00    +0.000 OA
ENDBRANCH   3  10
BRANCH   1  21
ATOM     19  C   UNL     1       2.260  16.529  19.232  0.00  0.00    +0.000 A 
ATOM     20  C   UNL     1       1.568  15.408  18.750  0.00  0.00    +0.000 A 
ATOM     21  C   UNL     1       1.511  14.205  19.471  0.00  0.00    +0.000 A 
ATOM     22  C   UNL     1       2.180  14.137  20.701  0.00  0.00    +0.000 A 
ATOM     23  C   UNL     1       2.886  15.239  21.188  0.00  0.00    +0.000 A 
ATOM     24  C   UNL     1       2.928  16.430  20.458  0.00  0.00    +0.000 A 
BRANCH  19  26
ATOM     25  C   UNL     1       0.901  17.941  17.865  0.00  0.00    +0.000 C 
ATOM     26  O   UNL     1       2.174  17.606  18.392  0.00  0.00    +0.000 OA
ENDBRANCH  19  26
BRANCH  24  27
ATOM     27  O   UNL     1       3.636  17.479  20.976  0.00  0.00    +0.000 OA
ATOM     28  H   UNL     1       3.823  17.304  21.912  0.00  0.00    +0.000 HD
ENDBRANCH  24  27
ENDBRANCH   1  21
BRANCH   8  29
ATOM     29  C   UNL     1      -2.988  12.491  22.179  0.00  0.00    +0.000 A 
ATOM     30  C   UNL     1      -2.933  12.510  23.575  0.00  0.00    +0.000 A 
ATOM     31  C   UNL     1      -4.073  12.757  24.342  0.00  0.00    +0.000 A 
ATOM     32  C   UNL     1      -5.280  13.004  23.706  0.00  0.00    +0.000 A 
ATOM     33  C   UNL     1      -5.350  13.052  22.318  0.00  0.00    +0.000 A 
ATOM     34  C   UNL     1      -4.202  12.805  21.552  0.00  0.00    +0.000 A 
BRANCH  32  35
ATOM     35  O   UNL     1      -6.421  13.201  24.422  0.00  0.00    +0.000 OA
ATOM     36  H   UNL     1      -7.103  13.545  23.818  0.00  0.00    +0.000 HD
ENDBRANCH  32  35
ENDBRANCH   8  29
TORSDOF 6
ENDMDL
MODEL 3
REMARK VINA RESULT:      -7.5      1.992      6.192
REMARK  Name = 
REMARK  7 active torsions:
REMARK  status: ('A' for Active; 'I' for Inactive)
REMARK    1  A    between atoms: C_1  and  O_2
REMARK    2  A    between atoms: O_2  and  C_3
REMARK    3  A    between atoms: C_5  and  C_6
REMARK    4  A    between atoms: C_8  and  C_9
REMARK    5  A    between atoms: N_22  and  C_23
REMARK    6  A    between atoms: C_26  and  O_27
REMARK    7  A    between atoms: C_32  and  O_33
REMARK                            x       y       z     vdW  Elec       q    Type
REMARK                         _______ _______ _______ _____ _____    ______ ____
ROOT
ATOM      1  C   UNL     1      -0.783  11.875  22.451  0.00  0.00    +0.000 C 
ATOM      2  C   UNL     1      -0.542  10.367  22.404  0.00  0.00    +0.000 C 
ATOM      3  C   UNL     1       0.334  10.279  21.189  0.00  0.00    +0.000 C 
ATOM      4  N   UNL     1       0.533  11.388  20.542  0.00  0.00    +0.000 NA
ATOM      5  N   UNL     1      -0.144  12.364  21.227  0.00  0.00    +0.000 N 
ATOM      6  C   UNL     1      -0.030  13.713  20.903  0.00  0.00    +0.000 C 
ATOM      7  O   UNL     1      -0.520  14.586  21.613  0.00  0.00    +0.000 OA
ATOM      8  N   UNL     1       0.662  13.918  19.718  0.00  0.00    +0.000 N 
ATOM      9  H   UNL     1       0.861  13.057  19.225  0.00  0.00    +0.000 HD
ENDROOT
BRANCH   3  10
ATOM     10  C   UNL     1       0.918   9.052  20.737  0.00  0.00    +0.000 A 
ATOM     11  C   UNL     1       0.990   7.827  21.368  0.00  0.00    +0.000 A 
ATOM     12  C   UNL     1       1.674   6.947  20.498  0.00  0.00    +0.000 A 
ATOM     13  C   UNL     1       2.064   5.601  20.547  0.00  0.00    +0.000 A 
ATOM     14  C   UNL     1       2.768   5.064  19.459  0.00  0.00    +0.000 A 
ATOM     15  C   UNL     1       3.075   5.855  18.347  0.00  0.00    +0.000 A 
ATOM     16  C   UNL     1       2.687   7.197  18.276  0.00  0.00    +0.000 A 
ATOM     17  C   UNL     1       1.988   7.703  19.372  0.00  0.00    +0.000 A 
ATOM     18  O   UNL     1       1.518   8.980  19.510  0.00  0.00    +0.000 OA
ENDBRANCH   3  10
BRANCH   1  21
ATOM     19  C   UNL     1      -4.373  12.870  21.491  0.00  0.00    +0.000 A 
ATOM     20  C   UNL     1      -3.013  12.532  21.410  0.00  0.00    +0.000 A 
ATOM     21  C   UNL     1      -2.256  12.228  22.552  0.00  0.00    +0.000 A 
ATOM     22  C   UNL     1      -2.889  12.279  23.801  0.00  0.00    +0.000 A 
ATOM     23  C   UNL     1      -4.238  12.628  23.901  0.00  0.00    +0.000 A 
ATOM     24  C   UNL     1      -4.977  12.923  22.752  0.00  0.00    +0.000 A 
BRANCH  19  26
ATOM     25  C   UNL     1      -5.019  12.026  19.351  0.00  0.00    +0.000 C 
ATOM     26  O   UNL     1      -4.934  13.107  20.266  0.00  0.00    +0.000 OA
ENDBRANCH  19  26
BRANCH  24  27
ATOM     27  O   UNL     1      -6.293  13.263  22.903  0.00  0.00    +0.000 OA
ATOM     28  H   UNL     1      -6.504  13.994  22.301  0.00  0.00    +0.000 HD
ENDBRANCH  24  27
ENDBRANCH   1  21
BRANCH   8  29
ATOM     29  C   UNL     1       0.901  15.157  19.093  0.00  0.00    +0.000 A 
ATOM     30  C   UNL     1      -0.123  16.064  18.811  0.00  0.00    +0.000 A 
ATOM     31  C   UNL     1       0.125  17.239  18.098  0.00  0.00    +0.000 A 
ATOM     32  C   UNL     1       1.415  17.519  17.676  0.00  0.00    +0.000 A 
ATOM     33  C   UNL     1       2.464  16.663  17.996  0.00  0.00    +0.000 A 
ATOM     34  C   UNL     1       2.211  15.486  18.714  0.00  0.00    +0.000 A 
BRANCH  32  35
ATOM     35  O   UNL     1       1.686  18.631  16.937  0.00  0.00    +0.000 OA
ATOM     36  H   UNL     1       1.464  18.439  16.009  0.00  0.00    +0.000 HD
ENDBRANCH  32  35
ENDBRANCH   8  29
TORSDOF 6
ENDMDL
MODEL 4
REMARK VINA RESULT:      -7.5      0.844      1.780
REMARK  Name = 
REMARK  7 active torsions:
REMARK  status: ('A' for Active; 'I' for Inactive)
REMARK    1  A    between atoms: C_1  and  O_2
REMARK    2  A    between atoms: O_2  and  C_3
REMARK    3  A    between atoms: C_5  and  C_6
REMARK    4  A    between atoms: C_8  and  C_9
REMARK    5  A    between atoms: N_22  and  C_23
REMARK    6  A    between atoms: C_26  and  O_27
REMARK    7  A    between atoms: C_32  and  O_33
REMARK                            x       y       z     vdW  Elec       q    Type
REMARK                         _______ _______ _______ _____ _____    ______ ____
ROOT
ATOM      1  C   UNL     1       1.142  12.591  18.699  0.00  0.00    +0.000 C 
ATOM      2  C   UNL     1       2.027  11.404  18.320  0.00  0.00    +0.000 C 
ATOM      3  C   UNL     1       1.346  10.312  19.092  0.00  0.00    +0.000 C 
ATOM      4  N   UNL     1       0.361  10.676  19.857  0.00  0.00    +0.000 NA
ATOM      5  N   UNL     1       0.223  12.031  19.692  0.00  0.00    +0.000 N 
ATOM      6  C   UNL     1      -0.839  12.741  20.246  0.00  0.00    +0.000 C 
ATOM      7  O   UNL     1      -1.033  13.921  19.970  0.00  0.00    +0.000 OA
ATOM      8  N   UNL     1      -1.592  11.973  21.123  0.00  0.00    +0.000 N 
ATOM      9  H   UNL     1      -1.178  11.068  21.308  0.00  0.00    +0.000 HD
ENDROOT
BRANCH   3  10
ATOM     10  C   UNL     1       1.750   8.941  19.022  0.00  0.00    +0.000 A 
ATOM     11  C   UNL     1       2.306   8.240  17.970  0.00  0.00    +0.000 A 
ATOM     12  C   UNL     1       2.514   6.913  18.414  0.00  0.00    +0.000 A 
ATOM     13  C   UNL     1       3.028   5.741  17.843  0.00  0.00    +0.000 A 
ATOM     14  C   UNL     1       3.059   4.572  18.618  0.00  0.00    +0.000 A 
ATOM     15  C   UNL     1       2.586   4.575  19.934  0.00  0.00    +0.000 A 
ATOM     16  C   UNL     1       2.076   5.737  20.524  0.00  0.00    +0.000 A 
ATOM     17  C   UNL     1       2.059   6.884  19.730  0.00  0.00    +0.000 A 
ATOM     18  O   UNL     1       1.607   8.118  20.106  0.00  0.00    +0.000 OA
ENDBRANCH   3  10
BRANCH   1  21
ATOM     19  C   UNL     1       2.739  16.081  18.947  0.00  0.00    +0.000 A 
ATOM     20  C   UNL     1       1.997  14.982  18.491  0.00  0.00    +0.000 A 
ATOM     21  C   UNL     1       1.941  13.776  19.209  0.00  0.00    +0.000 A 
ATOM     22  C   UNL     1       2.664  13.683  20.406  0.00  0.00    +0.000 A 
ATOM     23  C   UNL     1       3.420  14.763  20.866  0.00  0.00    +0.000 A 
ATOM     24  C   UNL     1       3.459  15.957  20.140  0.00  0.00    +0.000 A 
BRANCH  19  26
ATOM     25  C   UNL     1       1.361  17.741  17.917  0.00  0.00    +0.000 C 
ATOM     26  O   UNL     1       2.643  17.166  18.118  0.00  0.00    +0.000 OA
ENDBRANCH  19  26
BRANCH  24  27
ATOM     27  O   UNL     1       4.217  16.984  20.631  0.00  0.00    +0.000 OA
ATOM     28  H   UNL     1       5.128  16.674  20.759  0.00  0.00    +0.000 HD
ENDBRANCH  24  27
ENDBRANCH   1  21
BRANCH   8  29
ATOM     29  C   UNL     1      -2.695  12.410  21.882  0.00  0.00    +0.000 A 
ATOM     30  C   UNL     1      -3.888  12.835  21.294  0.00  0.00    +0.000 A 
ATOM     31  C   UNL     1      -4.929  13.360  22.062  0.00  0.00    +0.000 A 
ATOM     32  C   UNL     1      -4.781  13.447  23.438  0.00  0.00    +0.000 A 
ATOM     33  C   UNL     1      -3.628  12.974  24.056  0.00  0.00    +0.000 A 
ATOM     34  C   UNL     1      -2.587  12.445  23.280  0.00  0.00    +0.000 A 
BRANCH  32  35
ATOM     35  O   UNL     1      -5.755  13.998  24.214  0.00  0.00    +0.000 OA
ATOM     36  H   UNL     1      -6.607  13.877  23.761  0.00  0.00    +0.000 HD
ENDBRANCH  32  35
ENDBRANCH   8  29
TORSDOF 6
ENDMDL
MODEL 5
REMARK VINA RESULT:      -7.5      0.574      1.382
REMARK  Name = 
REMARK  7 active torsions:
REMARK  status: ('A' for Active; 'I' for Inactive)
REMARK    1  A    between atoms: C_1  and  O_2
REMARK    2  A    between atoms: O_2  and  C_3
REMARK    3  A    between atoms: C_5  and  C_6
REMARK    4  A    between atoms: C_8  and  C_9
REMARK    5  A    between atoms: N_22  and  C_23
REMARK    6  A    between atoms: C_26  and  O_27
REMARK    7  A    between atoms: C_32  and  O_33
REMARK                            x       y       z     vdW  Elec       q    Type
REMARK                         _______ _______ _______ _____ _____    ______ ____
ROOT
ATOM      1  C   UNL     1       0.601  12.633  19.295  0.00  0.00    +0.000 C 
ATOM      2  C   UNL     1       1.540  11.474  18.962  0.00  0.00    +0.000 C 
ATOM      3  C   UNL     1       0.904  10.380  19.769  0.00  0.00    +0.000 C 
ATOM      4  N   UNL     1      -0.102  10.727  20.515  0.00  0.00    +0.000 NA
ATOM      5  N   UNL     1      -0.300  12.067  20.302  0.00  0.00    +0.000 N 
ATOM      6  C   UNL     1      -1.395  12.748  20.826  0.00  0.00    +0.000 C 
ATOM      7  O   UNL     1      -1.641  13.907  20.508  0.00  0.00    +0.000 OA
ATOM      8  N   UNL     1      -2.119  11.978  21.725  0.00  0.00    +0.000 N 
ATOM      9  H   UNL     1      -1.667  11.099  21.943  0.00  0.00    +0.000 HD
ENDROOT
BRANCH   3  10
ATOM     10  C   UNL     1       1.369   9.027  19.749  0.00  0.00    +0.000 A 
ATOM     11  C   UNL     1       1.241   8.038  20.703  0.00  0.00    +0.000 A 
ATOM     12  C   UNL     1       1.881   6.883  20.198  0.00  0.00    +0.000 A 
ATOM     13  C   UNL     1       2.100   5.580  20.667  0.00  0.00    +0.000 A 
ATOM     14  C   UNL     1       2.819   4.685  19.859  0.00  0.00    +0.000 A 
ATOM     15  C   UNL     1       3.307   5.085  18.612  0.00  0.00    +0.000 A 
ATOM     16  C   UNL     1       3.093   6.378  18.123  0.00  0.00    +0.000 A 
ATOM     17  C   UNL     1       2.374   7.245  18.947  0.00  0.00    +0.000 A 
ATOM     18  O   UNL     1       2.052   8.544  18.666  0.00  0.00    +0.000 OA
ENDBRANCH   3  10
BRANCH   1  21
ATOM     19  C   UNL     1       2.734  15.017  21.431  0.00  0.00    +0.000 A 
ATOM     20  C   UNL     1       2.052  13.877  20.979  0.00  0.00    +0.000 A 
ATOM     21  C   UNL     1       1.343  13.870  19.767  0.00  0.00    +0.000 A 
ATOM     22  C   UNL     1       1.317  15.046  19.006  0.00  0.00    +0.000 A 
ATOM     23  C   UNL     1       1.978  16.194  19.449  0.00  0.00    +0.000 A 
ATOM     24  C   UNL     1       2.683  16.181  20.656  0.00  0.00    +0.000 A 
BRANCH  19  26
ATOM     25  C   UNL     1       4.737  14.398  22.578  0.00  0.00    +0.000 C 
ATOM     26  O   UNL     1       3.380  14.811  22.619  0.00  0.00    +0.000 OA
ENDBRANCH  19  26
BRANCH  24  27
ATOM     27  O   UNL     1       3.310  17.332  21.047  0.00  0.00    +0.000 OA
ATOM     28  H   UNL     1       4.018  17.538  20.416  0.00  0.00    +0.000 HD
ENDBRANCH  24  27
ENDBRANCH   1  21
BRANCH   8  29
ATOM     29  C   UNL     1      -3.246  12.391  22.463  0.00  0.00    +0.000 A 
ATOM     30  C   UNL     1      -3.259  12.417  23.859  0.00  0.00    +0.000 A 
ATOM     31  C   UNL     1      -4.421  12.731  24.567  0.00  0.00    +0.000 A 
ATOM     32  C   UNL     1      -5.580  13.038  23.871  0.00  0.00    +0.000 A 
ATOM     33  C   UNL     1      -5.579  13.079  22.480  0.00  0.00    +0.000 A 
ATOM     34  C   UNL     1      -4.409  12.765  21.774  0.00  0.00    +0.000 A 
BRANCH  32  35
ATOM     35  O   UNL     1      -6.743  13.301  24.528  0.00  0.00    +0.000 OA
ATOM     36  H   UNL     1      -6.531  13.478  25.461  0.00  0.00    +0.000 HD
ENDBRANCH  32  35
ENDBRANCH   8  29
TORSDOF 6
ENDMDL
MODEL 6
REMARK VINA RESULT:      -7.5      2.954      6.697
REMARK  Name = 
REMARK  7 active torsions:
REMARK  status: ('A' for Active; 'I' for Inactive)
REMARK    1  A    between atoms: C_1  and  O_2
REMARK    2  A    between atoms: O_2  and  C_3
REMARK    3  A    between atoms: C_5  and  C_6
REMARK    4  A    between atoms: C_8  and  C_9
REMARK    5  A    between atoms: N_22  and  C_23
REMARK    6  A    between atoms: C_26  and  O_27
REMARK    7  A    between atoms: C_32  and  O_33
REMARK                            x       y       z     vdW  Elec       q    Type
REMARK                         _______ _______ _______ _____ _____    ______ ____
ROOT
ATOM      1  C   UNL     1      -0.012  10.179  19.274  0.00  0.00    +0.000 C 
ATOM      2  C   UNL     1       0.295   8.736  18.879  0.00  0.00    +0.000 C 
ATOM      3  C   UNL     1       1.726   8.881  18.449  0.00  0.00    +0.000 C 
ATOM      4  N   UNL     1       2.207  10.088  18.447  0.00  0.00    +0.000 NA
ATOM      5  N   UNL     1       1.200  10.907  18.891  0.00  0.00    +0.000 N 
ATOM      6  C   UNL     1       1.407  12.257  19.162  0.00  0.00    +0.000 C 
ATOM      7  O   UNL     1       0.541  12.942  19.698  0.00  0.00    +0.000 OA
ATOM      8  N   UNL     1       2.655  12.697  18.744  0.00  0.00    +0.000 N 
ATOM      9  H   UNL     1       3.157  12.003  18.206  0.00  0.00    +0.000 HD
ENDROOT
BRANCH   3  10
ATOM     10  C   UNL     1       2.533   7.770  18.042  0.00  0.00    +0.000 A 
ATOM     11  C   UNL     1       3.732   7.758  17.359  0.00  0.00    +0.000 A 
ATOM     12  C   UNL     1       4.110   6.404  17.201  0.00  0.00    +0.000 A 
ATOM     13  C   UNL     1       5.191   5.734  16.611  0.00  0.00    +0.000 A 
ATOM     14  C   UNL     1       5.210   4.331  16.640  0.00  0.00    +0.000 A 
ATOM     15  C   UNL     1       4.173   3.616  17.247  0.00  0.00    +0.000 A 
ATOM     16  C   UNL     1       3.091   4.266  17.848  0.00  0.00    +0.000 A 
ATOM     17  C   UNL     1       3.099   5.661  17.805  0.00  0.00    +0.000 A 
ATOM     18  O   UNL     1       2.146   6.490  18.328  0.00  0.00    +0.000 OA
ENDBRANCH   3  10
BRANCH   1  21
ATOM     19  C   UNL     1      -2.625  11.110  16.608  0.00  0.00    +0.000 A 
ATOM     20  C   UNL     1      -1.468  10.615  17.229  0.00  0.00    +0.000 A 
ATOM     21  C   UNL     1      -1.274  10.709  18.616  0.00  0.00    +0.000 A 
ATOM     22  C   UNL     1      -2.269  11.327  19.385  0.00  0.00    +0.000 A 
ATOM     23  C   UNL     1      -3.420  11.837  18.781  0.00  0.00    +0.000 A 
ATOM     24  C   UNL     1      -3.598  11.731  17.399  0.00  0.00    +0.000 A 
BRANCH  19  26
ATOM     25  C   UNL     1      -3.610  10.022  14.722  0.00  0.00    +0.000 C 
ATOM     26  O   UNL     1      -2.632  10.899  15.256  0.00  0.00    +0.000 OA
ENDBRANCH  19  26
BRANCH  24  27
ATOM     27  O   UNL     1      -4.740  12.250  16.855  0.00  0.00    +0.000 OA
ATOM     28  H   UNL     1      -5.464  11.614  16.969  0.00  0.00    +0.000 HD
ENDBRANCH  24  27
ENDBRANCH   1  21
BRANCH   8  29
ATOM     29  C   UNL     1       3.147  14.014  18.826  0.00  0.00    +0.000 A 
ATOM     30  C   UNL     1       3.160  14.879  17.729  0.00  0.00    +0.000 A 
ATOM     31  C   UNL     1       3.747  16.143  17.809  0.00  0.00    +0.000 A 
ATOM     32  C   UNL     1       4.315  16.554  19.005  0.00  0.00    +0.000 A 
ATOM     33  C   UNL     1       4.263  15.738  20.130  0.00  0.00    +0.000 A 
ATOM     34  C   UNL     1       3.669  14.470  20.045  0.00  0.00    +0.000 A 
BRANCH  32  35
ATOM     35  O   UNL     1       4.940  17.760  19.106  0.00  0.00    +0.000 OA
ATOM     36  H   UNL     1       5.465  17.898  18.299  0.00  0.00    +0.000 HD
ENDBRANCH  32  35
ENDBRANCH   8  29
TORSDOF 6
ENDMDL
MODEL 7
REMARK VINA RESULT:      -7.5      2.962      6.785
REMARK  Name = 
REMARK  7 active torsions:
REMARK  status: ('A' for Active; 'I' for Inactive)
REMARK    1  A    between atoms: C_1  and  O_2
REMARK    2  A    between atoms: O_2  and  C_3
REMARK    3  A    between atoms: C_5  and  C_6
REMARK    4  A    between atoms: C_8  and  C_9
REMARK    5  A    between atoms: N_22  and  C_23
REMARK    6  A    between atoms: C_26  and  O_27
REMARK    7  A    between atoms: C_32  and  O_33
REMARK                            x       y       z     vdW  Elec       q    Type
REMARK                         _______ _______ _______ _____ _____    ______ ____
ROOT
ATOM      1  C   UNL     1       0.029  10.190  19.266  0.00  0.00    +0.000 C 
ATOM      2  C   UNL     1       0.338   8.754  18.846  0.00  0.00    +0.000 C 
ATOM      3  C   UNL     1       1.764   8.910  18.405  0.00  0.00    +0.000 C 
ATOM      4  N   UNL     1       2.241  10.119  18.418  0.00  0.00    +0.000 NA
ATOM      5  N   UNL     1       1.235  10.927  18.884  0.00  0.00    +0.000 N 
ATOM      6  C   UNL     1       1.440  12.274  19.173  0.00  0.00    +0.000 C 
ATOM      7  O   UNL     1       0.577  12.948  19.728  0.00  0.00    +0.000 OA
ATOM      8  N   UNL     1       2.682  12.725  18.751  0.00  0.00    +0.000 N 
ATOM      9  H   UNL     1       3.181  12.041  18.198  0.00  0.00    +0.000 HD
ENDROOT
BRANCH   3  10
ATOM     10  C   UNL     1       2.571   7.809  17.974  0.00  0.00    +0.000 A 
ATOM     11  C   UNL     1       2.529   6.484  18.357  0.00  0.00    +0.000 A 
ATOM     12  C   UNL     1       3.543   5.808  17.640  0.00  0.00    +0.000 A 
ATOM     13  C   UNL     1       4.008   4.487  17.580  0.00  0.00    +0.000 A 
ATOM     14  C   UNL     1       5.085   4.191  16.730  0.00  0.00    +0.000 A 
ATOM     15  C   UNL     1       5.684   5.193  15.960  0.00  0.00    +0.000 A 
ATOM     16  C   UNL     1       5.229   6.516  16.001  0.00  0.00    +0.000 A 
ATOM     17  C   UNL     1       4.156   6.780  16.853  0.00  0.00    +0.000 A 
ATOM     18  O   UNL     1       3.558   7.994  17.045  0.00  0.00    +0.000 OA
ENDBRANCH   3  10
BRANCH   1  21
ATOM     19  C   UNL     1      -2.622  11.130  16.643  0.00  0.00    +0.000 A 
ATOM     20  C   UNL     1      -1.457  10.631  17.245  0.00  0.00    +0.000 A 
ATOM     21  C   UNL     1      -1.240  10.725  18.629  0.00  0.00    +0.000 A 
ATOM     22  C   UNL     1      -2.220  11.348  19.414  0.00  0.00    +0.000 A 
ATOM     23  C   UNL     1      -3.378  11.863  18.828  0.00  0.00    +0.000 A 
ATOM     24  C   UNL     1      -3.579  11.757  17.449  0.00  0.00    +0.000 A 
BRANCH  19  26
ATOM     25  C   UNL     1      -3.625  10.024  14.777  0.00  0.00    +0.000 C 
ATOM     26  O   UNL     1      -2.652  10.919  15.291  0.00  0.00    +0.000 OA
ENDBRANCH  19  26
BRANCH  24  27
ATOM     27  O   UNL     1      -4.728  12.281  16.923  0.00  0.00    +0.000 OA
ATOM     28  H   UNL     1      -4.501  12.858  16.177  0.00  0.00    +0.000 HD
ENDBRANCH  24  27
ENDBRANCH   1  21
BRANCH   8  29
ATOM     29  C   UNL     1       3.171  14.043  18.848  0.00  0.00    +0.000 A 
ATOM     30  C   UNL     1       3.171  14.924  17.765  0.00  0.00    +0.000 A 
ATOM     31  C   UNL     1       3.755  16.189  17.859  0.00  0.00    +0.000 A 
ATOM     32  C   UNL     1       4.332  16.584  19.056  0.00  0.00    +0.000 A 
ATOM     33  C   UNL     1       4.291  15.750  20.169  0.00  0.00    +0.000 A 
ATOM     34  C   UNL     1       3.702  14.482  20.070  0.00  0.00    +0.000 A 
BRANCH  32  35
ATOM     35  O   UNL     1       4.953  17.790  19.170  0.00  0.00    +0.000 OA
ATOM     36  H   UNL     1       5.577  17.741  19.914  0.00  0.00    +0.000 HD
ENDBRANCH  32  35
ENDBRANCH   8  29
TORSDOF 6
ENDMDL
MODEL 8
REMARK VINA RESULT:      -7.4      2.049      6.272
REMARK  Name = 
REMARK  7 active torsions:
REMARK  status: ('A' for Active; 'I' for Inactive)
REMARK    1  A    between atoms: C_1  and  O_2
REMARK    2  A    between atoms: O_2  and  C_3
REMARK    3  A    between atoms: C_5  and  C_6
REMARK    4  A    between atoms: C_8  and  C_9
REMARK    5  A    between atoms: N_22  and  C_23
REMARK    6  A    between atoms: C_26  and  O_27
REMARK    7  A    between atoms: C_32  and  O_33
REMARK                            x       y       z     vdW  Elec       q    Type
REMARK                         _______ _______ _______ _____ _____    ______ ____
ROOT
ATOM      1  C   UNL     1      -0.233  10.957  21.029  0.00  0.00    +0.000 C 
ATOM      2  C   UNL     1      -0.186   9.446  20.810  0.00  0.00    +0.000 C 
ATOM      3  C   UNL     1       1.117   9.328  20.075  0.00  0.00    +0.000 C 
ATOM      4  N   UNL     1       1.717  10.443  19.785  0.00  0.00    +0.000 NA
ATOM      5  N   UNL     1       0.935  11.448  20.295  0.00  0.00    +0.000 N 
ATOM      6  C   UNL     1       1.347  12.778  20.302  0.00  0.00    +0.000 C 
ATOM      7  O   UNL     1       0.708  13.643  20.892  0.00  0.00    +0.000 OA
ATOM      8  N   UNL     1       2.510  12.978  19.570  0.00  0.00    +0.000 N 
ATOM      9  H   UNL     1       2.796  12.155  19.056  0.00  0.00    +0.000 HD
ENDROOT
BRANCH   3  10
ATOM     10  C   UNL     1       1.682   8.070  19.688  0.00  0.00    +0.000 A 
ATOM     11  C   UNL     1       2.268   7.698  18.495  0.00  0.00    +0.000 A 
ATOM     12  C   UNL     1       2.657   6.345  18.624  0.00  0.00    +0.000 A 
ATOM     13  C   UNL     1       3.283   5.406  17.792  0.00  0.00    +0.000 A 
ATOM     14  C   UNL     1       3.494   4.108  18.283  0.00  0.00    +0.000 A 
ATOM     15  C   UNL     1       3.088   3.758  19.574  0.00  0.00    +0.000 A 
ATOM     16  C   UNL     1       2.469   4.683  20.421  0.00  0.00    +0.000 A 
ATOM     17  C   UNL     1       2.274   5.966  19.907  0.00  0.00    +0.000 A 
ATOM     18  O   UNL     1       1.693   7.017  20.561  0.00  0.00    +0.000 OA
ENDBRANCH   3  10
BRANCH   1  21
ATOM     19  C   UNL     1      -3.218  11.973  18.826  0.00  0.00    +0.000 A 
ATOM     20  C   UNL     1      -2.013  11.400  19.262  0.00  0.00    +0.000 A 
ATOM     21  C   UNL     1      -1.543  11.574  20.573  0.00  0.00    +0.000 A 
ATOM     22  C   UNL     1      -2.305  12.353  21.454  0.00  0.00    +0.000 A 
ATOM     23  C   UNL     1      -3.498  12.942  21.032  0.00  0.00    +0.000 A 
ATOM     24  C   UNL     1      -3.953  12.754  19.723  0.00  0.00    +0.000 A 
BRANCH  19  26
ATOM     25  C   UNL     1      -2.505  11.036  16.746  0.00  0.00    +0.000 C 
ATOM     26  O   UNL     1      -3.509  11.666  17.524  0.00  0.00    +0.000 OA
ENDBRANCH  19  26
BRANCH  24  27
ATOM     27  O   UNL     1      -5.126  13.356  19.357  0.00  0.00    +0.000 OA
ATOM     28  H   UNL     1      -5.033  14.317  19.450  0.00  0.00    +0.000 HD
ENDBRANCH  24  27
ENDBRANCH   1  21
BRANCH   8  29
ATOM     29  C   UNL     1       3.152  14.210  19.341  0.00  0.00    +0.000 A 
ATOM     30  C   UNL     1       3.003  14.922  18.149  0.00  0.00    +0.000 A 
ATOM     31  C   UNL     1       3.731  16.089  17.906  0.00  0.00    +0.000 A 
ATOM     32  C   UNL     1       4.607  16.558  18.873  0.00  0.00    +0.000 A 
ATOM     33  C   UNL     1       4.729  15.902  20.094  0.00  0.00    +0.000 A 
ATOM     34  C   UNL     1       3.994  14.733  20.334  0.00  0.00    +0.000 A 
BRANCH  32  35
ATOM     35  O   UNL     1       5.369  17.664  18.651  0.00  0.00    +0.000 OA
ATOM     36  H   UNL     1       6.239  17.373  18.325  0.00  0.00    +0.000 HD
ENDBRANCH  32  35
ENDBRANCH   8  29
TORSDOF 6
ENDMDL
MODEL 9
REMARK VINA RESULT:      -7.4      2.465      8.390
REMARK  Name = 
REMARK  7 active torsions:
REMARK  status: ('A' for Active; 'I' for Inactive)
REMARK    1  A    between atoms: C_1  and  O_2
REMARK    2  A    between atoms: O_2  and  C_3
REMARK    3  A    between atoms: C_5  and  C_6
REMARK    4  A    between atoms: C_8  and  C_9
REMARK    5  A    between atoms: N_22  and  C_23
REMARK    6  A    between atoms: C_26  and  O_27
REMARK    7  A    between atoms: C_32  and  O_33
REMARK                            x       y       z     vdW  Elec       q    Type
REMARK                         _______ _______ _______ _____ _____    ______ ____
ROOT
ATOM      1  C   UNL     1       0.172  10.383  18.016  0.00  0.00    +0.000 C 
ATOM      2  C   UNL     1      -1.331  10.214  18.225  0.00  0.00    +0.000 C 
ATOM      3  C   UNL     1      -1.670  11.560  18.796  0.00  0.00    +0.000 C 
ATOM      4  N   UNL     1      -0.670  12.361  19.012  0.00  0.00    +0.000 NA
ATOM      5  N   UNL     1       0.456  11.695  18.603  0.00  0.00    +0.000 N 
ATOM      6  C   UNL     1       1.704  12.310  18.547  0.00  0.00    +0.000 C 
ATOM      7  O   UNL     1       2.672  11.751  18.041  0.00  0.00    +0.000 OA
ATOM      8  N   UNL     1       1.701  13.569  19.132  0.00  0.00    +0.000 N 
ATOM      9  H   UNL     1       0.833  13.780  19.606  0.00  0.00    +0.000 HD
ENDROOT
BRANCH   3  10
ATOM     10  C   UNL     1      -3.009  11.958  19.108  0.00  0.00    +0.000 A 
ATOM     11  C   UNL     1      -3.481  12.697  20.175  0.00  0.00    +0.000 A 
ATOM     12  C   UNL     1      -4.883  12.806  20.021  0.00  0.00    +0.000 A 
ATOM     13  C   UNL     1      -5.920  13.409  20.746  0.00  0.00    +0.000 A 
ATOM     14  C   UNL     1      -7.234  13.283  20.271  0.00  0.00    +0.000 A 
ATOM     15  C   UNL     1      -7.505  12.569  19.100  0.00  0.00    +0.000 A 
ATOM     16  C   UNL     1      -6.483  11.967  18.358  0.00  0.00    +0.000 A 
ATOM     17  C   UNL     1      -5.186  12.110  18.854  0.00  0.00    +0.000 A 
ATOM     18  O   UNL     1      -4.047  11.606  18.290  0.00  0.00    +0.000 OA
ENDBRANCH   3  10
BRANCH   1  21
ATOM     19  C   UNL     1       2.511   7.352  18.389  0.00  0.00    +0.000 A 
ATOM     20  C   UNL     1       1.768   8.405  17.835  0.00  0.00    +0.000 A 
ATOM     21  C   UNL     1       0.979   9.253  18.629  0.00  0.00    +0.000 A 
ATOM     22  C   UNL     1       0.937   9.019  20.010  0.00  0.00    +0.000 A 
ATOM     23  C   UNL     1       1.659   7.966  20.575  0.00  0.00    +0.000 A 
ATOM     24  C   UNL     1       2.442   7.135  19.769  0.00  0.00    +0.000 A 
BRANCH  19  26
ATOM     25  C   UNL     1       4.620   6.922  17.350  0.00  0.00    +0.000 C 
ATOM     26  O   UNL     1       3.229   6.660  17.452  0.00  0.00    +0.000 OA
ENDBRANCH  19  26
BRANCH  24  27
ATOM     27  O   UNL     1       3.126   6.115  20.370  0.00  0.00    +0.000 OA
ATOM     28  H   UNL     1       3.152   5.352  19.770  0.00  0.00    +0.000 HD
ENDBRANCH  24  27
ENDBRANCH   1  21
BRANCH   8  29
ATOM     29  C   UNL     1       2.811  14.423  19.283  0.00  0.00    +0.000 A 
ATOM     30  C   UNL     1       3.559  14.479  20.460  0.00  0.00    +0.000 A 
ATOM     31  C   UNL     1       4.589  15.407  20.622  0.00  0.00    +0.000 A 
ATOM     32  C   UNL     1       4.886  16.280  19.587  0.00  0.00    +0.000 A 
ATOM     33  C   UNL     1       4.198  16.206  18.380  0.00  0.00    +0.000 A 
ATOM     34  C   UNL     1       3.166  15.271  18.222  0.00  0.00    +0.000 A 
BRANCH  32  35
ATOM     35  O   UNL     1       5.852  17.231  19.727  0.00  0.00    +0.000 OA
ATOM     36  H   UNL     1       5.619  17.789  20.489  0.00  0.00    +0.000 HD
ENDBRANCH  32  35
ENDBRANCH   8  29
TORSDOF 6
ENDMDL
