MODEL 1
REMARK VINA RESULT:      -7.4      0.000      0.000
REMARK  Name = 
REMARK  6 active torsions:
REMARK  status: ('A' for Active; 'I' for Inactive)
REMARK    1  A    between atoms: C_2  and  C_3
REMARK    2  A    between atoms: C_3  and  C_4
REMARK    3  A    between atoms: C_15  and  C_16
REMARK    4  A    between atoms: C_16  and  O_17
REMARK    5  A    between atoms: O_17  and  C_18
REMARK    6  A    between atoms: C_18  and  C_19
REMARK                            x       y       z     vdW  Elec       q    Type
REMARK                         _______ _______ _______ _____ _____    ______ ____
ROOT
ATOM      1  O   UNL     1       5.187   3.767  15.867  0.00  0.00    +0.000 OA
ATOM      2  C   UNL     1       4.704   4.727  16.473  0.00  0.00    +0.000 C 
ATOM      3  N   UNL     1       3.639   4.578  17.336  0.00  0.00    +0.000 N 
ATOM      4  C   UNL     1       3.024   3.324  17.543  0.00  0.00    +0.000 C 
ATOM      5  C   UNL     1       1.998   3.664  18.599  0.00  0.00    +0.000 C 
ATOM      6  C   UNL     1       1.723   2.400  19.414  0.00  0.00    +0.000 C 
ATOM      7  C   UNL     1       1.221   2.944  20.712  0.00  0.00    +0.000 C 
ATOM      8  C   UNL     1       1.175   4.436  20.438  0.00  0.00    +0.000 C 
ATOM      9  C   UNL     1       2.541   4.812  19.626  0.00  0.00    +0.000 C 
ATOM     10  C   UNL     1       3.149   5.527  18.305  0.00  0.00    +0.000 C 
ENDROOT
BRANCH   2  11
ATOM     11  C   UNL     1       5.253   6.128  16.265  0.00  0.00    +0.000 C 
BRANCH  11  12
ATOM     12  C   UNL     1       6.357   6.412  17.214  0.00  0.00    +0.000 A 
ATOM     13  C   UNL     1       6.921   5.705  18.257  0.00  0.00    +0.000 A 
ATOM     14  C   UNL     1       7.983   6.497  18.752  0.00  0.00    +0.000 A 
ATOM     15  C   UNL     1       7.999   7.637  17.984  0.00  0.00    +0.000 A 
ATOM     16  O   UNL     1       7.020   7.594  17.045  0.00  0.00    +0.000 OA
ENDBRANCH  11  12
ENDBRANCH   2  11
BRANCH   9  17
ATOM     17  C   UNL     1       2.373   6.317  20.209  0.00  0.00    +0.000 C 
BRANCH  17  18
ATOM     18  O   UNL     1       2.032   7.142  19.087  0.00  0.00    +0.000 OA
BRANCH  18  19
ATOM     19  C   UNL     1       1.454   8.389  19.449  0.00  0.00    +0.000 C 
BRANCH  19  20
ATOM     20  C   UNL     1       1.241   8.346  20.928  0.00  0.00    +0.000 C 
ATOM     21  C   UNL     1       0.949   9.630  21.666  0.00  0.00    +0.000 C 
ATOM     22  C   UNL     1      -0.114   8.567  21.547  0.00  0.00    +0.000 C 
ENDBRANCH  19  20
ENDBRANCH  18  19
ENDBRANCH  17  18
ENDBRANCH   9  17
TORSDOF 6
ENDMDL
MODEL 2
REMARK VINA RESULT:      -7.3      0.902      1.388
REMARK  Name = 
REMARK  6 active torsions:
REMARK  status: ('A' for Active; 'I' for Inactive)
REMARK    1  A    between atoms: C_2  and  C_3
REMARK    2  A    between atoms: C_3  and  C_4
REMARK    3  A    between atoms: C_15  and  C_16
REMARK    4  A    between atoms: C_16  and  O_17
REMARK    5  A    between atoms: O_17  and  C_18
REMARK    6  A    between atoms: C_18  and  C_19
REMARK                            x       y       z     vdW  Elec       q    Type
REMARK                         _______ _______ _______ _____ _____    ______ ____
ROOT
ATOM      1  O   UNL     1       5.106   3.848  15.799  0.00  0.00    +0.000 OA
ATOM      2  C   UNL     1       4.590   4.759  16.452  0.00  0.00    +0.000 C 
ATOM      3  N   UNL     1       3.540   4.526  17.316  0.00  0.00    +0.000 N 
ATOM      4  C   UNL     1       2.979   3.239  17.469  0.00  0.00    +0.000 C 
ATOM      5  C   UNL     1       1.950   3.488  18.548  0.00  0.00    +0.000 C 
ATOM      6  C   UNL     1       1.735   2.177  19.305  0.00  0.00    +0.000 C 
ATOM      7  C   UNL     1       1.224   2.639  20.631  0.00  0.00    +0.000 C 
ATOM      8  C   UNL     1       1.115   4.139  20.428  0.00  0.00    +0.000 C 
ATOM      9  C   UNL     1       2.456   4.608  19.623  0.00  0.00    +0.000 C 
ATOM     10  C   UNL     1       3.021   5.408  18.333  0.00  0.00    +0.000 C 
ENDROOT
BRANCH   2  11
ATOM     11  C   UNL     1       5.079   6.189  16.306  0.00  0.00    +0.000 C 
BRANCH  11  12
ATOM     12  C   UNL     1       6.236   6.448  17.198  0.00  0.00    +0.000 A 
ATOM     13  C   UNL     1       6.887   5.696  18.156  0.00  0.00    +0.000 A 
ATOM     14  C   UNL     1       7.959   6.488  18.629  0.00  0.00    +0.000 A 
ATOM     15  C   UNL     1       7.893   7.674  17.935  0.00  0.00    +0.000 A 
ATOM     16  O   UNL     1       6.855   7.658  17.061  0.00  0.00    +0.000 OA
ENDBRANCH  11  12
ENDBRANCH   2  11
BRANCH   9  17
ATOM     17  C   UNL     1       2.233   6.076  20.278  0.00  0.00    +0.000 C 
BRANCH  17  18
ATOM     18  O   UNL     1       2.286   7.009  19.189  0.00  0.00    +0.000 OA
BRANCH  18  19
ATOM     19  C   UNL     1       1.725   8.277  19.497  0.00  0.00    +0.000 C 
BRANCH  19  20
ATOM     20  C   UNL     1       1.534   8.986  18.195  0.00  0.00    +0.000 C 
ATOM     21  C   UNL     1       0.519  10.101  18.107  0.00  0.00    +0.000 C 
ATOM     22  C   UNL     1       1.992  10.406  17.983  0.00  0.00    +0.000 C 
ENDBRANCH  19  20
ENDBRANCH  18  19
ENDBRANCH  17  18
ENDBRANCH   9  17
TORSDOF 6
ENDMDL
MODEL 3
REMARK VINA RESULT:      -7.3      2.043      2.854
REMARK  Name = 
REMARK  6 active torsions:
REMARK  status: ('A' for Active; 'I' for Inactive)
REMARK    1  A    between atoms: C_2  and  C_3
REMARK    2  A    between atoms: C_3  and  C_4
REMARK    3  A    between atoms: C_15  and  C_16
REMARK    4  A    between atoms: C_16  and  O_17
REMARK    5  A    between atoms: O_17  and  C_18
REMARK    6  A    between atoms: C_18  and  C_19
REMARK                            x       y       z     vdW  Elec       q    Type
REMARK                         _______ _______ _______ _____ _____    ______ ____
ROOT
ATOM      1  O   UNL     1       7.358   4.299  18.533  0.00  0.00    +0.000 OA
ATOM      2  C   UNL     1       6.352   4.745  17.974  0.00  0.00    +0.000 C 
ATOM      3  N   UNL     1       5.085   4.325  18.321  0.00  0.00    +0.000 N 
ATOM      4  C   UNL     1       4.877   3.337  19.308  0.00  0.00    +0.000 C 
ATOM      5  C   UNL     1       3.368   3.291  19.372  0.00  0.00    +0.000 C 
ATOM      6  C   UNL     1       2.969   2.829  20.774  0.00  0.00    +0.000 C 
ATOM      7  C   UNL     1       1.587   3.376  20.923  0.00  0.00    +0.000 C 
ATOM      8  C   UNL     1       1.334   3.988  19.559  0.00  0.00    +0.000 C 
ATOM      9  C   UNL     1       2.704   4.763  19.124  0.00  0.00    +0.000 C 
ATOM     10  C   UNL     1       3.826   4.934  17.968  0.00  0.00    +0.000 C 
ENDROOT
BRANCH   2  11
ATOM     11  C   UNL     1       6.477   5.763  16.854  0.00  0.00    +0.000 C 
BRANCH  11  12
ATOM     12  C   UNL     1       6.520   5.092  15.531  0.00  0.00    +0.000 A 
ATOM     13  C   UNL     1       5.706   4.171  14.903  0.00  0.00    +0.000 A 
ATOM     14  C   UNL     1       6.257   3.956  13.619  0.00  0.00    +0.000 A 
ATOM     15  C   UNL     1       7.374   4.755  13.544  0.00  0.00    +0.000 A 
ATOM     16  O   UNL     1       7.540   5.452  14.697  0.00  0.00    +0.000 OA
ENDBRANCH  11  12
ENDBRANCH   2  11
BRANCH   9  17
ATOM     17  C   UNL     1       1.775   5.705  18.186  0.00  0.00    +0.000 C 
BRANCH  17  18
ATOM     18  O   UNL     1       2.523   6.909  17.965  0.00  0.00    +0.000 OA
BRANCH  18  19
ATOM     19  C   UNL     1       2.132   7.986  18.804  0.00  0.00    +0.000 C 
BRANCH  19  20
ATOM     20  C   UNL     1       1.607   9.058  17.904  0.00  0.00    +0.000 C 
ATOM     21  C   UNL     1       0.499   9.957  18.399  0.00  0.00    +0.000 C 
ATOM     22  C   UNL     1       1.878  10.518  18.156  0.00  0.00    +0.000 C 
ENDBRANCH  19  20
ENDBRANCH  18  19
ENDBRANCH  17  18
ENDBRANCH   9  17
TORSDOF 6
ENDMDL
MODEL 4
REMARK VINA RESULT:      -6.8      3.407      5.963
REMARK  Name = 
REMARK  6 active torsions:
REMARK  status: ('A' for Active; 'I' for Inactive)
REMARK    1  A    between atoms: C_2  and  C_3
REMARK    2  A    between atoms: C_3  and  C_4
REMARK    3  A    between atoms: C_15  and  C_16
REMARK    4  A    between atoms: C_16  and  O_17
REMARK    5  A    between atoms: O_17  and  C_18
REMARK    6  A    between atoms: C_18  and  C_19
REMARK                            x       y       z     vdW  Elec       q    Type
REMARK                         _______ _______ _______ _____ _____    ______ ____
ROOT
ATOM      1  O   UNL     1       7.526   5.332  13.283  0.00  0.00    +0.000 OA
ATOM      2  C   UNL     1       6.610   4.682  13.795  0.00  0.00    +0.000 C 
ATOM      3  N   UNL     1       6.537   4.482  15.158  0.00  0.00    +0.000 N 
ATOM      4  C   UNL     1       7.525   4.982  16.033  0.00  0.00    +0.000 C 
ATOM      5  C   UNL     1       6.965   4.581  17.378  0.00  0.00    +0.000 C 
ATOM      6  C   UNL     1       7.486   5.570  18.421  0.00  0.00    +0.000 C 
ATOM      7  C   UNL     1       6.465   5.477  19.507  0.00  0.00    +0.000 C 
ATOM      8  C   UNL     1       5.551   4.379  18.996  0.00  0.00    +0.000 C 
ATOM      9  C   UNL     1       5.333   4.646  17.400  0.00  0.00    +0.000 C 
ATOM     10  C   UNL     1       5.413   3.995  15.919  0.00  0.00    +0.000 C 
ENDROOT
BRANCH   2  11
ATOM     11  C   UNL     1       5.536   4.046  12.930  0.00  0.00    +0.000 C 
BRANCH  11  12
ATOM     12  C   UNL     1       6.107   2.975  12.077  0.00  0.00    +0.000 A 
ATOM     13  C   UNL     1       7.368   2.732  11.569  0.00  0.00    +0.000 A 
ATOM     14  C   UNL     1       7.288   1.510  10.861  0.00  0.00    +0.000 A 
ATOM     15  C   UNL     1       5.985   1.086  10.977  0.00  0.00    +0.000 A 
ATOM     16  O   UNL     1       5.261   1.965  11.716  0.00  0.00    +0.000 OA
ENDBRANCH  11  12
ENDBRANCH   2  11
BRANCH   9  17
ATOM     17  C   UNL     1       3.933   3.840  17.542  0.00  0.00    +0.000 C 
BRANCH  17  18
ATOM     18  O   UNL     1       4.211   2.703  18.372  0.00  0.00    +0.000 OA
BRANCH  18  19
ATOM     19  C   UNL     1       3.050   1.988  18.770  0.00  0.00    +0.000 C 
BRANCH  19  20
ATOM     20  C   UNL     1       1.953   2.995  18.900  0.00  0.00    +0.000 C 
ATOM     21  C   UNL     1       0.517   2.533  18.818  0.00  0.00    +0.000 C 
ATOM     22  C   UNL     1       1.069   3.061  20.118  0.00  0.00    +0.000 C 
ENDBRANCH  19  20
ENDBRANCH  18  19
ENDBRANCH  17  18
ENDBRANCH   9  17
TORSDOF 6
ENDMDL
MODEL 5
REMARK VINA RESULT:      -6.7      3.406      5.641
REMARK  Name = 
REMARK  6 active torsions:
REMARK  status: ('A' for Active; 'I' for Inactive)
REMARK    1  A    between atoms: C_2  and  C_3
REMARK    2  A    between atoms: C_3  and  C_4
REMARK    3  A    between atoms: C_15  and  C_16
REMARK    4  A    between atoms: C_16  and  O_17
REMARK    5  A    between atoms: O_17  and  C_18
REMARK    6  A    between atoms: C_18  and  C_19
REMARK                            x       y       z     vdW  Elec       q    Type
REMARK                         _______ _______ _______ _____ _____    ______ ____
ROOT
ATOM      1  O   UNL     1       7.546   5.233  13.357  0.00  0.00    +0.000 OA
ATOM      2  C   UNL     1       6.551   4.653  13.800  0.00  0.00    +0.000 C 
ATOM      3  N   UNL     1       6.381   4.440  15.152  0.00  0.00    +0.000 N 
ATOM      4  C   UNL     1       7.353   4.842  16.094  0.00  0.00    +0.000 C 
ATOM      5  C   UNL     1       6.682   4.468  17.395  0.00  0.00    +0.000 C 
ATOM      6  C   UNL     1       7.220   5.394  18.487  0.00  0.00    +0.000 C 
ATOM      7  C   UNL     1       6.131   5.370  19.509  0.00  0.00    +0.000 C 
ATOM      8  C   UNL     1       5.163   4.359  18.924  0.00  0.00    +0.000 C 
ATOM      9  C   UNL     1       5.062   4.668  17.323  0.00  0.00    +0.000 C 
ATOM     10  C   UNL     1       5.177   4.036  15.837  0.00  0.00    +0.000 C 
ENDROOT
BRANCH   2  11
ATOM     11  C   UNL     1       5.482   4.123  12.861  0.00  0.00    +0.000 C 
BRANCH  11  12
ATOM     12  C   UNL     1       5.989   2.970  12.078  0.00  0.00    +0.000 A 
ATOM     13  C   UNL     1       5.394   1.842  11.550  0.00  0.00    +0.000 A 
ATOM     14  C   UNL     1       6.407   1.138  10.858  0.00  0.00    +0.000 A 
ATOM     15  C   UNL     1       7.557   1.877  11.010  0.00  0.00    +0.000 A 
ATOM     16  O   UNL     1       7.314   2.993  11.744  0.00  0.00    +0.000 OA
ENDBRANCH  11  12
ENDBRANCH   2  11
BRANCH   9  17
ATOM     17  C   UNL     1       3.595   3.979  17.367  0.00  0.00    +0.000 C 
BRANCH  17  18
ATOM     18  O   UNL     1       3.421   3.499  18.708  0.00  0.00    +0.000 OA
BRANCH  18  19
ATOM     19  C   UNL     1       2.242   2.727  18.890  0.00  0.00    +0.000 C 
BRANCH  19  20
ATOM     20  C   UNL     1       1.445   3.411  19.954  0.00  0.00    +0.000 C 
ATOM     21  C   UNL     1       1.358   2.783  21.325  0.00  0.00    +0.000 C 
ATOM     22  C   UNL     1       2.098   4.084  21.133  0.00  0.00    +0.000 C 
ENDBRANCH  19  20
ENDBRANCH  18  19
ENDBRANCH  17  18
ENDBRANCH   9  17
TORSDOF 6
ENDMDL
MODEL 6
REMARK VINA RESULT:      -6.7      0.959      1.179
REMARK  Name = 
REMARK  6 active torsions:
REMARK  status: ('A' for Active; 'I' for Inactive)
REMARK    1  A    between atoms: C_2  and  C_3
REMARK    2  A    between atoms: C_3  and  C_4
REMARK    3  A    between atoms: C_15  and  C_16
REMARK    4  A    between atoms: C_16  and  O_17
REMARK    5  A    between atoms: O_17  and  C_18
REMARK    6  A    between atoms: C_18  and  C_19
REMARK                            x       y       z     vdW  Elec       q    Type
REMARK                         _______ _______ _______ _____ _____    ______ ____
ROOT
ATOM      1  O   UNL     1       4.797   4.545  15.850  0.00  0.00    +0.000 OA
ATOM      2  C   UNL     1       4.433   5.333  16.727  0.00  0.00    +0.000 C 
ATOM      3  N   UNL     1       3.416   5.021  17.605  0.00  0.00    +0.000 N 
ATOM      4  C   UNL     1       2.716   3.798  17.523  0.00  0.00    +0.000 C 
ATOM      5  C   UNL     1       1.790   3.902  18.713  0.00  0.00    +0.000 C 
ATOM      6  C   UNL     1       1.466   2.484  19.184  0.00  0.00    +0.000 C 
ATOM      7  C   UNL     1       1.094   2.687  20.616  0.00  0.00    +0.000 C 
ATOM      8  C   UNL     1       1.152   4.196  20.753  0.00  0.00    +0.000 C 
ATOM      9  C   UNL     1       2.489   4.694  19.959  0.00  0.00    +0.000 C 
ATOM     10  C   UNL     1       3.068   5.701  18.829  0.00  0.00    +0.000 C 
ENDROOT
BRANCH   2  11
ATOM     11  C   UNL     1       5.079   6.702  16.853  0.00  0.00    +0.000 C 
BRANCH  11  12
ATOM     12  C   UNL     1       6.330   6.626  17.647  0.00  0.00    +0.000 A 
ATOM     13  C   UNL     1       7.484   7.383  17.681  0.00  0.00    +0.000 A 
ATOM     14  C   UNL     1       8.298   6.830  18.697  0.00  0.00    +0.000 A 
ATOM     15  C   UNL     1       7.594   5.769  19.216  0.00  0.00    +0.000 A 
ATOM     16  O   UNL     1       6.397   5.639  18.590  0.00  0.00    +0.000 OA
ENDBRANCH  11  12
ENDBRANCH   2  11
BRANCH   9  17
ATOM     17  C   UNL     1       2.482   5.992  20.932  0.00  0.00    +0.000 C 
BRANCH  17  18
ATOM     18  O   UNL     1       1.373   6.799  20.510  0.00  0.00    +0.000 OA
BRANCH  18  19
ATOM     19  C   UNL     1       1.434   8.140  20.975  0.00  0.00    +0.000 C 
BRANCH  19  20
ATOM     20  C   UNL     1       0.054   8.498  21.425  0.00  0.00    +0.000 C 
ATOM     21  C   UNL     1      -0.118   9.396  22.627  0.00  0.00    +0.000 C 
ATOM     22  C   UNL     1      -0.507   9.886  21.254  0.00  0.00    +0.000 C 
ENDBRANCH  19  20
ENDBRANCH  18  19
ENDBRANCH  17  18
ENDBRANCH   9  17
TORSDOF 6
ENDMDL
MODEL 7
REMARK VINA RESULT:      -6.6      3.436      5.466
REMARK  Name = 
REMARK  6 active torsions:
REMARK  status: ('A' for Active; 'I' for Inactive)
REMARK    1  A    between atoms: C_2  and  C_3
REMARK    2  A    between atoms: C_3  and  C_4
REMARK    3  A    between atoms: C_15  and  C_16
REMARK    4  A    between atoms: C_16  and  O_17
REMARK    5  A    between atoms: O_17  and  C_18
REMARK    6  A    between atoms: C_18  and  C_19
REMARK                            x       y       z     vdW  Elec       q    Type
REMARK                         _______ _______ _______ _____ _____    ______ ____
ROOT
ATOM      1  O   UNL     1       7.485   5.331  13.313  0.00  0.00    +0.000 OA
ATOM      2  C   UNL     1       6.581   4.666  13.825  0.00  0.00    +0.000 C 
ATOM      3  N   UNL     1       6.518   4.457  15.187  0.00  0.00    +0.000 N 
ATOM      4  C   UNL     1       7.505   4.964  16.061  0.00  0.00    +0.000 C 
ATOM      5  C   UNL     1       6.957   4.547  17.406  0.00  0.00    +0.000 C 
ATOM      6  C   UNL     1       7.471   5.537  18.452  0.00  0.00    +0.000 C 
ATOM      7  C   UNL     1       6.457   5.424  19.543  0.00  0.00    +0.000 C 
ATOM      8  C   UNL     1       5.555   4.318  19.030  0.00  0.00    +0.000 C 
ATOM      9  C   UNL     1       5.324   4.592  17.437  0.00  0.00    +0.000 C 
ATOM     10  C   UNL     1       5.404   3.951  15.952  0.00  0.00    +0.000 C 
ENDROOT
BRANCH   2  11
ATOM     11  C   UNL     1       5.510   4.022  12.962  0.00  0.00    +0.000 C 
BRANCH  11  12
ATOM     12  C   UNL     1       6.093   2.973  12.089  0.00  0.00    +0.000 A 
ATOM     13  C   UNL     1       7.354   2.755  11.574  0.00  0.00    +0.000 A 
ATOM     14  C   UNL     1       7.288   1.545  10.846  0.00  0.00    +0.000 A 
ATOM     15  C   UNL     1       5.991   1.102  10.958  0.00  0.00    +0.000 A 
ATOM     16  O   UNL     1       5.258   1.958  11.714  0.00  0.00    +0.000 OA
ENDBRANCH  11  12
ENDBRANCH   2  11
BRANCH   9  17
ATOM     17  C   UNL     1       3.935   3.767  17.582  0.00  0.00    +0.000 C 
BRANCH  17  18
ATOM     18  O   UNL     1       3.166   4.455  18.579  0.00  0.00    +0.000 OA
BRANCH  18  19
ATOM     19  C   UNL     1       2.302   5.449  18.047  0.00  0.00    +0.000 C 
BRANCH  19  20
ATOM     20  C   UNL     1       2.808   6.765  18.545  0.00  0.00    +0.000 C 
ATOM     21  C   UNL     1       3.343   7.769  17.553  0.00  0.00    +0.000 C 
ATOM     22  C   UNL     1       2.064   8.051  18.301  0.00  0.00    +0.000 C 
ENDBRANCH  19  20
ENDBRANCH  18  19
ENDBRANCH  17  18
ENDBRANCH   9  17
TORSDOF 6
ENDMDL
MODEL 8
REMARK VINA RESULT:      -6.6      1.868      2.491
REMARK  Name = 
REMARK  6 active torsions:
REMARK  status: ('A' for Active; 'I' for Inactive)
REMARK    1  A    between atoms: C_2  and  C_3
REMARK    2  A    between atoms: C_3  and  C_4
REMARK    3  A    between atoms: C_15  and  C_16
REMARK    4  A    between atoms: C_16  and  O_17
REMARK    5  A    between atoms: O_17  and  C_18
REMARK    6  A    between atoms: C_18  and  C_19
REMARK                            x       y       z     vdW  Elec       q    Type
REMARK                         _______ _______ _______ _____ _____    ______ ____
ROOT
ATOM      1  O   UNL     1       7.203   4.090  18.338  0.00  0.00    +0.000 OA
ATOM      2  C   UNL     1       6.187   4.702  17.999  0.00  0.00    +0.000 C 
ATOM      3  N   UNL     1       4.947   4.390  18.518  0.00  0.00    +0.000 N 
ATOM      4  C   UNL     1       4.773   3.332  19.436  0.00  0.00    +0.000 C 
ATOM      5  C   UNL     1       3.299   3.448  19.751  0.00  0.00    +0.000 C 
ATOM      6  C   UNL     1       3.071   2.887  21.155  0.00  0.00    +0.000 C 
ATOM      7  C   UNL     1       1.811   3.565  21.583  0.00  0.00    +0.000 C 
ATOM      8  C   UNL     1       1.426   4.343  20.339  0.00  0.00    +0.000 C 
ATOM      9  C   UNL     1       2.798   5.002  19.747  0.00  0.00    +0.000 C 
ATOM     10  C   UNL     1       3.736   5.169  18.437  0.00  0.00    +0.000 C 
ENDROOT
BRANCH   2  11
ATOM     11  C   UNL     1       6.261   5.812  16.965  0.00  0.00    +0.000 C 
BRANCH  11  12
ATOM     12  C   UNL     1       6.426   5.255  15.600  0.00  0.00    +0.000 A 
ATOM     13  C   UNL     1       5.662   4.416  14.815  0.00  0.00    +0.000 A 
ATOM     14  C   UNL     1       6.339   4.294  13.579  0.00  0.00    +0.000 A 
ATOM     15  C   UNL     1       7.474   5.063  13.688  0.00  0.00    +0.000 A 
ATOM     16  O   UNL     1       7.535   5.654  14.908  0.00  0.00    +0.000 OA
ENDBRANCH  11  12
ENDBRANCH   2  11
BRANCH   9  17
ATOM     17  C   UNL     1       1.859   6.136  19.065  0.00  0.00    +0.000 C 
BRANCH  17  18
ATOM     18  O   UNL     1       2.335   7.396  19.558  0.00  0.00    +0.000 OA
BRANCH  18  19
ATOM     19  C   UNL     1       1.544   7.933  20.609  0.00  0.00    +0.000 C 
BRANCH  19  20
ATOM     20  C   UNL     1       1.127   9.301  20.172  0.00  0.00    +0.000 C 
ATOM     21  C   UNL     1      -0.315   9.717  20.336  0.00  0.00    +0.000 C 
ATOM     22  C   UNL     1       0.761  10.378  21.160  0.00  0.00    +0.000 C 
ENDBRANCH  19  20
ENDBRANCH  18  19
ENDBRANCH  17  18
ENDBRANCH   9  17
TORSDOF 6
ENDMDL
MODEL 9
REMARK VINA RESULT:      -6.6      2.456      4.709
REMARK  Name = 
REMARK  6 active torsions:
REMARK  status: ('A' for Active; 'I' for Inactive)
REMARK    1  A    between atoms: C_2  and  C_3
REMARK    2  A    between atoms: C_3  and  C_4
REMARK    3  A    between atoms: C_15  and  C_16
REMARK    4  A    between atoms: C_16  and  O_17
REMARK    5  A    between atoms: O_17  and  C_18
REMARK    6  A    between atoms: C_18  and  C_19
REMARK                            x       y       z     vdW  Elec       q    Type
REMARK                         _______ _______ _______ _____ _____    ______ ____
ROOT
ATOM      1  O   UNL     1       5.321   6.815  14.935  0.00  0.00    +0.000 OA
ATOM      2  C   UNL     1       5.641   5.988  15.794  0.00  0.00    +0.000 C 
ATOM      3  N   UNL     1       5.075   5.996  17.052  0.00  0.00    +0.000 N 
ATOM      4  C   UNL     1       4.128   6.971  17.433  0.00  0.00    +0.000 C 
ATOM      5  C   UNL     1       3.769   6.512  18.827  0.00  0.00    +0.000 C 
ATOM      6  C   UNL     1       2.346   6.985  19.127  0.00  0.00    +0.000 C 
ATOM      7  C   UNL     1       1.892   6.027  20.179  0.00  0.00    +0.000 C 
ATOM      8  C   UNL     1       3.140   5.199  20.419  0.00  0.00    +0.000 C 
ATOM      9  C   UNL     1       3.791   4.884  18.955  0.00  0.00    +0.000 C 
ATOM     10  C   UNL     1       5.134   4.958  18.052  0.00  0.00    +0.000 C 
ENDROOT
BRANCH   2  11
ATOM     11  C   UNL     1       6.700   4.941  15.503  0.00  0.00    +0.000 C 
BRANCH  11  12
ATOM     12  C   UNL     1       6.555   4.407  14.126  0.00  0.00    +0.000 A 
ATOM     13  C   UNL     1       5.666   3.534  13.532  0.00  0.00    +0.000 A 
ATOM     14  C   UNL     1       6.024   3.463  12.166  0.00  0.00    +0.000 A 
ATOM     15  C   UNL     1       7.110   4.293  12.012  0.00  0.00    +0.000 A 
ATOM     16  O   UNL     1       7.438   4.874  13.194  0.00  0.00    +0.000 OA
ENDBRANCH  11  12
ENDBRANCH   2  11
BRANCH   9  17
ATOM     17  C   UNL     1       4.467   3.574  19.630  0.00  0.00    +0.000 C 
BRANCH  17  18
ATOM     18  O   UNL     1       3.948   2.444  18.914  0.00  0.00    +0.000 OA
BRANCH  18  19
ATOM     19  C   UNL     1       2.864   1.801  19.570  0.00  0.00    +0.000 C 
BRANCH  19  20
ATOM     20  C   UNL     1       1.689   1.901  18.651  0.00  0.00    +0.000 C 
ATOM     21  C   UNL     1       0.480   2.693  19.087  0.00  0.00    +0.000 C 
ATOM     22  C   UNL     1       1.334   3.182  17.944  0.00  0.00    +0.000 C 
ENDBRANCH  19  20
ENDBRANCH  18  19
ENDBRANCH  17  18
ENDBRANCH   9  17
TORSDOF 6
ENDMDL
