MODEL 1
REMARK VINA RESULT:      -7.6      0.000      0.000
REMARK  Name = 
REMARK  16 active torsions:
REMARK  status: ('A' for Active; 'I' for Inactive)
REMARK    1  A    between atoms: C_1  and  O_2
REMARK    2  A    between atoms: O_2  and  C_3
REMARK    3  A    between atoms: C_5  and  C_6
REMARK    4  A    between atoms: C_6  and  O_7
REMARK    5  A    between atoms: C_6  and  C_8
REMARK    6  A    between atoms: C_8  and  C_9
REMARK    7  A    between atoms: C_8  and  O_11
REMARK    8  A    between atoms: C_9  and  O_10
REMARK    9  A    between atoms: O_11  and  C_12
REMARK   10  A    between atoms: C_13  and  O_14
REMARK   11  A    between atoms: O_14  and  C_15
REMARK   12  A    between atoms: C_17  and  C_18
REMARK   13  A    between atoms: C_19  and  C_20
REMARK   14  A    between atoms: C_23  and  O_24
REMARK   15  A    between atoms: O_24  and  C_25
REMARK   16  A    between atoms: C_28  and  O_29
REMARK                            x       y       z     vdW  Elec       q    Type
REMARK                         _______ _______ _______ _____ _____    ______ ____
ROOT
ATOM      1  C   UNL     1       3.188   3.006  18.018  0.00  0.00    +0.000 C 
ENDROOT
BRANCH   1   2
ATOM      2  C   UNL     1       4.488   3.766  18.434  0.00  0.00    +0.000 C 
BRANCH   2   5
ATOM      3  C   UNL     1       7.124   5.715  16.379  0.00  0.00    +0.000 A 
ATOM      4  C   UNL     1       6.328   5.279  17.453  0.00  0.00    +0.000 A 
ATOM      5  C   UNL     1       5.444   4.199  17.327  0.00  0.00    +0.000 A 
ATOM      6  C   UNL     1       5.357   3.561  16.080  0.00  0.00    +0.000 A 
ATOM      7  C   UNL     1       6.144   3.977  15.003  0.00  0.00    +0.000 A 
ATOM      8  C   UNL     1       7.020   5.056  15.150  0.00  0.00    +0.000 A 
BRANCH   3  10
ATOM      9  C   UNL     1       7.661   7.466  17.923  0.00  0.00    +0.000 C 
ATOM     10  O   UNL     1       7.915   6.785  16.703  0.00  0.00    +0.000 OA
ENDBRANCH   3  10
BRANCH   8  11
ATOM     11  O   UNL     1       7.755   5.441  14.062  0.00  0.00    +0.000 OA
ATOM     12  H   UNL     1       8.697   5.285  14.238  0.00  0.00    +0.000 HD
ENDBRANCH   8  11
ENDBRANCH   2   5
BRANCH   2  13
ATOM     13  O   UNL     1       5.253   2.985  19.365  0.00  0.00    +0.000 OA
ATOM     14  H   UNL     1       6.195   3.128  19.166  0.00  0.00    +0.000 HD
ENDBRANCH   2  13
ENDBRANCH   1   2
BRANCH   1  15
ATOM     15  C   UNL     1       3.106   1.618  18.726  0.00  0.00    +0.000 C 
BRANCH  15  16
ATOM     16  O   UNL     1       4.098   0.695  18.275  0.00  0.00    +0.000 OA
ATOM     17  H   UNL     1       4.962   1.138  18.324  0.00  0.00    +0.000 HD
ENDBRANCH  15  16
ENDBRANCH   1  15
BRANCH   1  18
ATOM     18  O   UNL     1       2.061   3.928  18.081  0.00  0.00    +0.000 OA
BRANCH  18  19
ATOM     19  C   UNL     1       2.121   5.011  18.914  0.00  0.00    +0.000 A 
ATOM     20  C   UNL     1       1.643   4.932  20.240  0.00  0.00    +0.000 A 
ATOM     21  C   UNL     1       1.404   6.109  20.948  0.00  0.00    +0.000 A 
ATOM     22  C   UNL     1       1.747   7.350  20.403  0.00  0.00    +0.000 A 
ATOM     23  C   UNL     1       2.400   7.397  19.173  0.00  0.00    +0.000 A 
ATOM     24  C   UNL     1       2.605   6.233  18.416  0.00  0.00    +0.000 A 
BRANCH  20  25
ATOM     25  O   UNL     1       1.377   3.677  20.713  0.00  0.00    +0.000 OA
ATOM     26  C   UNL     1       2.093   3.141  21.816  0.00  0.00    +0.000 C 
ENDBRANCH  20  25
BRANCH  22  27
ATOM     27  C   UNL     1       1.306   8.554  21.117  0.00  0.00    +0.000 C 
ATOM     28  C   UNL     1       0.347   8.562  22.049  0.00  0.00    +0.000 C 
BRANCH  28  29
ATOM     29  C   UNL     1      -0.028   9.843  22.677  0.00  0.00    +0.000 C 
ATOM     30  O   UNL     1      -0.052   9.972  23.893  0.00  0.00    +0.000 OA
ENDBRANCH  28  29
ENDBRANCH  22  27
BRANCH  24  31
ATOM     31  O   UNL     1       3.164   6.509  17.200  0.00  0.00    +0.000 OA
ATOM     32  C   UNL     1       3.950   7.675  17.006  0.00  0.00    +0.000 C 
ENDBRANCH  24  31
ENDBRANCH  18  19
ENDBRANCH   1  18
TORSDOF 13
ENDMDL
MODEL 2
REMARK VINA RESULT:      -7.0      0.873      1.802
REMARK  Name = 
REMARK  16 active torsions:
REMARK  status: ('A' for Active; 'I' for Inactive)
REMARK    1  A    between atoms: C_1  and  O_2
REMARK    2  A    between atoms: O_2  and  C_3
REMARK    3  A    between atoms: C_5  and  C_6
REMARK    4  A    between atoms: C_6  and  O_7
REMARK    5  A    between atoms: C_6  and  C_8
REMARK    6  A    between atoms: C_8  and  C_9
REMARK    7  A    between atoms: C_8  and  O_11
REMARK    8  A    between atoms: C_9  and  O_10
REMARK    9  A    between atoms: O_11  and  C_12
REMARK   10  A    between atoms: C_13  and  O_14
REMARK   11  A    between atoms: O_14  and  C_15
REMARK   12  A    between atoms: C_17  and  C_18
REMARK   13  A    between atoms: C_19  and  C_20
REMARK   14  A    between atoms: C_23  and  O_24
REMARK   15  A    between atoms: O_24  and  C_25
REMARK   16  A    between atoms: C_28  and  O_29
REMARK                            x       y       z     vdW  Elec       q    Type
REMARK                         _______ _______ _______ _____ _____    ______ ____
ROOT
ATOM      1  C   UNL     1       3.082   3.190  18.011  0.00  0.00    +0.000 C 
ENDROOT
BRANCH   1   2
ATOM      2  C   UNL     1       4.279   3.742  18.851  0.00  0.00    +0.000 C 
BRANCH   2   5
ATOM      3  C   UNL     1       6.436   5.537  16.187  0.00  0.00    +0.000 A 
ATOM      4  C   UNL     1       5.463   4.713  16.778  0.00  0.00    +0.000 A 
ATOM      5  C   UNL     1       5.248   4.698  18.164  0.00  0.00    +0.000 A 
ATOM      6  C   UNL     1       6.051   5.527  18.963  0.00  0.00    +0.000 A 
ATOM      7  C   UNL     1       7.020   6.357  18.392  0.00  0.00    +0.000 A 
ATOM      8  C   UNL     1       7.217   6.357  17.009  0.00  0.00    +0.000 A 
BRANCH   3  10
ATOM      9  C   UNL     1       5.891   4.257  14.238  0.00  0.00    +0.000 C 
ATOM     10  O   UNL     1       6.493   5.401  14.827  0.00  0.00    +0.000 OA
ENDBRANCH   3  10
BRANCH   8  11
ATOM     11  O   UNL     1       8.191   7.171  16.498  0.00  0.00    +0.000 OA
ATOM     12  H   UNL     1       8.559   7.718  17.210  0.00  0.00    +0.000 HD
ENDBRANCH   8  11
ENDBRANCH   2   5
BRANCH   2  13
ATOM     13  O   UNL     1       5.064   2.662  19.381  0.00  0.00    +0.000 OA
ATOM     14  H   UNL     1       5.905   2.643  18.894  0.00  0.00    +0.000 HD
ENDBRANCH   2  13
ENDBRANCH   1   2
BRANCH   1  15
ATOM     15  C   UNL     1       2.894   1.660  18.253  0.00  0.00    +0.000 C 
BRANCH  15  16
ATOM     16  O   UNL     1       1.636   1.333  18.845  0.00  0.00    +0.000 OA
ATOM     17  H   UNL     1       1.176   0.720  18.247  0.00  0.00    +0.000 HD
ENDBRANCH  15  16
ENDBRANCH   1  15
BRANCH   1  18
ATOM     18  O   UNL     1       1.951   4.097  18.149  0.00  0.00    +0.000 OA
BRANCH  18  19
ATOM     19  C   UNL     1       2.005   5.109  19.067  0.00  0.00    +0.000 A 
ATOM     20  C   UNL     1       1.580   4.903  20.398  0.00  0.00    +0.000 A 
ATOM     21  C   UNL     1       1.328   6.008  21.209  0.00  0.00    +0.000 A 
ATOM     22  C   UNL     1       1.607   7.302  20.759  0.00  0.00    +0.000 A 
ATOM     23  C   UNL     1       2.210   7.475  19.515  0.00  0.00    +0.000 A 
ATOM     24  C   UNL     1       2.427   6.386  18.656  0.00  0.00    +0.000 A 
BRANCH  20  25
ATOM     25  O   UNL     1       1.376   3.604  20.773  0.00  0.00    +0.000 OA
ATOM     26  C   UNL     1       2.090   3.033  21.860  0.00  0.00    +0.000 C 
ENDBRANCH  20  25
BRANCH  22  27
ATOM     27  C   UNL     1       1.152   8.425  21.586  0.00  0.00    +0.000 C 
ATOM     28  C   UNL     1      -0.122   8.624  21.942  0.00  0.00    +0.000 C 
BRANCH  28  29
ATOM     29  C   UNL     1      -0.460   9.808  22.755  0.00  0.00    +0.000 C 
ATOM     30  O   UNL     1       0.140  10.865  22.619  0.00  0.00    +0.000 OA
ENDBRANCH  28  29
ENDBRANCH  22  27
BRANCH  24  31
ATOM     31  O   UNL     1       2.928   6.782  17.449  0.00  0.00    +0.000 OA
ATOM     32  C   UNL     1       3.653   7.996  17.323  0.00  0.00    +0.000 C 
ENDBRANCH  24  31
ENDBRANCH  18  19
ENDBRANCH   1  18
TORSDOF 13
ENDMDL
MODEL 3
REMARK VINA RESULT:      -7.0      1.114      2.733
REMARK  Name = 
REMARK  16 active torsions:
REMARK  status: ('A' for Active; 'I' for Inactive)
REMARK    1  A    between atoms: C_1  and  O_2
REMARK    2  A    between atoms: O_2  and  C_3
REMARK    3  A    between atoms: C_5  and  C_6
REMARK    4  A    between atoms: C_6  and  O_7
REMARK    5  A    between atoms: C_6  and  C_8
REMARK    6  A    between atoms: C_8  and  C_9
REMARK    7  A    between atoms: C_8  and  O_11
REMARK    8  A    between atoms: C_9  and  O_10
REMARK    9  A    between atoms: O_11  and  C_12
REMARK   10  A    between atoms: C_13  and  O_14
REMARK   11  A    between atoms: O_14  and  C_15
REMARK   12  A    between atoms: C_17  and  C_18
REMARK   13  A    between atoms: C_19  and  C_20
REMARK   14  A    between atoms: C_23  and  O_24
REMARK   15  A    between atoms: O_24  and  C_25
REMARK   16  A    between atoms: C_28  and  O_29
REMARK                            x       y       z     vdW  Elec       q    Type
REMARK                         _______ _______ _______ _____ _____    ______ ____
ROOT
ATOM      1  C   UNL     1       3.639   2.961  18.890  0.00  0.00    +0.000 C 
ENDROOT
BRANCH   1   2
ATOM      2  C   UNL     1       3.699   2.912  17.330  0.00  0.00    +0.000 C 
BRANCH   2   5
ATOM      3  C   UNL     1       7.030   4.773  16.686  0.00  0.00    +0.000 A 
ATOM      4  C   UNL     1       5.997   4.079  17.340  0.00  0.00    +0.000 A 
ATOM      5  C   UNL     1       4.890   3.574  16.643  0.00  0.00    +0.000 A 
ATOM      6  C   UNL     1       4.828   3.793  15.258  0.00  0.00    +0.000 A 
ATOM      7  C   UNL     1       5.848   4.476  14.591  0.00  0.00    +0.000 A 
ATOM      8  C   UNL     1       6.943   4.971  15.304  0.00  0.00    +0.000 A 
BRANCH   3  10
ATOM      9  C   UNL     1       7.641   5.616  18.844  0.00  0.00    +0.000 C 
ATOM     10  O   UNL     1       8.015   5.189  17.541  0.00  0.00    +0.000 OA
ENDBRANCH   3  10
BRANCH   8  11
ATOM     11  O   UNL     1       7.907   5.652  14.612  0.00  0.00    +0.000 OA
ATOM     12  H   UNL     1       8.661   5.063  14.448  0.00  0.00    +0.000 HD
ENDBRANCH   8  11
ENDBRANCH   2   5
BRANCH   2  13
ATOM     13  O   UNL     1       2.515   3.490  16.761  0.00  0.00    +0.000 OA
ATOM     14  H   UNL     1       2.178   4.150  17.391  0.00  0.00    +0.000 HD
ENDBRANCH   2  13
ENDBRANCH   1   2
BRANCH   1  15
ATOM     15  C   UNL     1       4.287   1.685  19.511  0.00  0.00    +0.000 C 
BRANCH  15  16
ATOM     16  O   UNL     1       5.061   1.957  20.680  0.00  0.00    +0.000 OA
ATOM     17  H   UNL     1       5.888   2.383  20.398  0.00  0.00    +0.000 HD
ENDBRANCH  15  16
ENDBRANCH   1  15
BRANCH   1  18
ATOM     18  O   UNL     1       4.054   4.284  19.338  0.00  0.00    +0.000 OA
BRANCH  18  19
ATOM     19  C   UNL     1       3.108   5.244  19.572  0.00  0.00    +0.000 A 
ATOM     20  C   UNL     1       2.989   6.366  18.723  0.00  0.00    +0.000 A 
ATOM     21  C   UNL     1       2.268   7.475  19.160  0.00  0.00    +0.000 A 
ATOM     22  C   UNL     1       1.567   7.439  20.370  0.00  0.00    +0.000 A 
ATOM     23  C   UNL     1       1.534   6.254  21.103  0.00  0.00    +0.000 A 
ATOM     24  C   UNL     1       2.293   5.140  20.713  0.00  0.00    +0.000 A 
BRANCH  20  25
ATOM     25  O   UNL     1       3.667   6.301  17.538  0.00  0.00    +0.000 OA
ATOM     26  C   UNL     1       4.397   7.416  17.047  0.00  0.00    +0.000 C 
ENDBRANCH  20  25
BRANCH  22  27
ATOM     27  C   UNL     1       0.982   8.693  20.857  0.00  0.00    +0.000 C 
ATOM     28  C   UNL     1       0.221   8.787  21.953  0.00  0.00    +0.000 C 
BRANCH  28  29
ATOM     29  C   UNL     1      -0.334  10.102  22.327  0.00  0.00    +0.000 C 
ATOM     30  O   UNL     1      -0.306  10.498  23.484  0.00  0.00    +0.000 OA
ENDBRANCH  28  29
ENDBRANCH  22  27
BRANCH  24  31
ATOM     31  O   UNL     1       2.205   4.122  21.620  0.00  0.00    +0.000 OA
ATOM     32  C   UNL     1       1.326   3.028  21.406  0.00  0.00    +0.000 C 
ENDBRANCH  24  31
ENDBRANCH  18  19
ENDBRANCH   1  18
TORSDOF 13
ENDMDL
MODEL 4
REMARK VINA RESULT:      -6.9      2.639      3.477
REMARK  Name = 
REMARK  16 active torsions:
REMARK  status: ('A' for Active; 'I' for Inactive)
REMARK    1  A    between atoms: C_1  and  O_2
REMARK    2  A    between atoms: O_2  and  C_3
REMARK    3  A    between atoms: C_5  and  C_6
REMARK    4  A    between atoms: C_6  and  O_7
REMARK    5  A    between atoms: C_6  and  C_8
REMARK    6  A    between atoms: C_8  and  C_9
REMARK    7  A    between atoms: C_8  and  O_11
REMARK    8  A    between atoms: C_9  and  O_10
REMARK    9  A    between atoms: O_11  and  C_12
REMARK   10  A    between atoms: C_13  and  O_14
REMARK   11  A    between atoms: O_14  and  C_15
REMARK   12  A    between atoms: C_17  and  C_18
REMARK   13  A    between atoms: C_19  and  C_20
REMARK   14  A    between atoms: C_23  and  O_24
REMARK   15  A    between atoms: O_24  and  C_25
REMARK   16  A    between atoms: C_28  and  O_29
REMARK                            x       y       z     vdW  Elec       q    Type
REMARK                         _______ _______ _______ _____ _____    ______ ____
ROOT
ATOM      1  C   UNL     1       2.276   5.080  19.835  0.00  0.00    +0.000 C 
ENDROOT
BRANCH   1   2
ATOM      2  C   UNL     1       3.436   4.033  19.880  0.00  0.00    +0.000 C 
BRANCH   2   5
ATOM      3  C   UNL     1       6.734   4.963  18.083  0.00  0.00    +0.000 A 
ATOM      4  C   UNL     1       5.773   4.779  19.093  0.00  0.00    +0.000 A 
ATOM      5  C   UNL     1       4.544   4.154  18.839  0.00  0.00    +0.000 A 
ATOM      6  C   UNL     1       4.282   3.725  17.529  0.00  0.00    +0.000 A 
ATOM      7  C   UNL     1       5.227   3.895  16.514  0.00  0.00    +0.000 A 
ATOM      8  C   UNL     1       6.447   4.519  16.788  0.00  0.00    +0.000 A 
BRANCH   3  10
ATOM      9  C   UNL     1       7.954   7.004  18.369  0.00  0.00    +0.000 C 
ATOM     10  O   UNL     1       7.862   5.596  18.531  0.00  0.00    +0.000 OA
ENDBRANCH   3  10
BRANCH   8  11
ATOM     11  O   UNL     1       7.332   4.682  15.758  0.00  0.00    +0.000 OA
ATOM     12  H   UNL     1       8.146   4.190  15.952  0.00  0.00    +0.000 HD
ENDBRANCH   8  11
ENDBRANCH   2   5
BRANCH   2  13
ATOM     13  O   UNL     1       2.914   2.699  19.782  0.00  0.00    +0.000 OA
ATOM     14  H   UNL     1       1.947   2.754  19.869  0.00  0.00    +0.000 HD
ENDBRANCH   2  13
ENDBRANCH   1   2
BRANCH   1  15
ATOM     15  C   UNL     1       1.004   4.530  20.551  0.00  0.00    +0.000 C 
BRANCH  15  16
ATOM     16  O   UNL     1       0.340   3.504  19.811  0.00  0.00    +0.000 OA
ATOM     17  H   UNL     1       0.514   3.657  18.867  0.00  0.00    +0.000 HD
ENDBRANCH  15  16
ENDBRANCH   1  15
BRANCH   1  18
ATOM     18  O   UNL     1       2.808   6.389  20.191  0.00  0.00    +0.000 OA
BRANCH  18  19
ATOM     19  C   UNL     1       2.247   7.514  19.654  0.00  0.00    +0.000 A 
ATOM     20  C   UNL     1       1.466   8.384  20.447  0.00  0.00    +0.000 A 
ATOM     21  C   UNL     1       0.642   9.317  19.821  0.00  0.00    +0.000 A 
ATOM     22  C   UNL     1       0.673   9.480  18.433  0.00  0.00    +0.000 A 
ATOM     23  C   UNL     1       1.593   8.750  17.683  0.00  0.00    +0.000 A 
ATOM     24  C   UNL     1       2.397   7.766  18.279  0.00  0.00    +0.000 A 
BRANCH  20  25
ATOM     25  O   UNL     1       1.529   8.188  21.799  0.00  0.00    +0.000 OA
ATOM     26  C   UNL     1       1.064   9.177  22.706  0.00  0.00    +0.000 C 
ENDBRANCH  20  25
BRANCH  22  27
ATOM     27  C   UNL     1      -0.343  10.345  17.824  0.00  0.00    +0.000 C 
ATOM     28  C   UNL     1      -1.531   9.911  17.388  0.00  0.00    +0.000 C 
BRANCH  28  29
ATOM     29  C   UNL     1      -2.459  10.875  16.767  0.00  0.00    +0.000 C 
ATOM     30  O   UNL     1      -3.608  10.999  17.167  0.00  0.00    +0.000 OA
ENDBRANCH  28  29
ENDBRANCH  22  27
BRANCH  24  31
ATOM     31  O   UNL     1       3.149   7.096  17.356  0.00  0.00    +0.000 OA
ATOM     32  C   UNL     1       4.460   7.531  17.028  0.00  0.00    +0.000 C 
ENDBRANCH  24  31
ENDBRANCH  18  19
ENDBRANCH   1  18
TORSDOF 13
ENDMDL
MODEL 5
REMARK VINA RESULT:      -6.7      1.747      7.292
REMARK  Name = 
REMARK  16 active torsions:
REMARK  status: ('A' for Active; 'I' for Inactive)
REMARK    1  A    between atoms: C_1  and  O_2
REMARK    2  A    between atoms: O_2  and  C_3
REMARK    3  A    between atoms: C_5  and  C_6
REMARK    4  A    between atoms: C_6  and  O_7
REMARK    5  A    between atoms: C_6  and  C_8
REMARK    6  A    between atoms: C_8  and  C_9
REMARK    7  A    between atoms: C_8  and  O_11
REMARK    8  A    between atoms: C_9  and  O_10
REMARK    9  A    between atoms: O_11  and  C_12
REMARK   10  A    between atoms: C_13  and  O_14
REMARK   11  A    between atoms: O_14  and  C_15
REMARK   12  A    between atoms: C_17  and  C_18
REMARK   13  A    between atoms: C_19  and  C_20
REMARK   14  A    between atoms: C_23  and  O_24
REMARK   15  A    between atoms: O_24  and  C_25
REMARK   16  A    between atoms: C_28  and  O_29
REMARK                            x       y       z     vdW  Elec       q    Type
REMARK                         _______ _______ _______ _____ _____    ______ ____
ROOT
ATOM      1  C   UNL     1       2.938   5.158  19.997  0.00  0.00    +0.000 C 
ENDROOT
BRANCH   1   2
ATOM      2  C   UNL     1       2.787   6.087  18.750  0.00  0.00    +0.000 C 
BRANCH   2   5
ATOM      3  C   UNL     1       1.197   9.223  20.366  0.00  0.00    +0.000 A 
ATOM      4  C   UNL     1       1.782   7.953  20.215  0.00  0.00    +0.000 A 
ATOM      5  C   UNL     1       2.246   7.495  18.974  0.00  0.00    +0.000 A 
ATOM      6  C   UNL     1       2.095   8.340  17.863  0.00  0.00    +0.000 A 
ATOM      7  C   UNL     1       1.521   9.607  17.995  0.00  0.00    +0.000 A 
ATOM      8  C   UNL     1       1.066  10.044  19.242  0.00  0.00    +0.000 A 
BRANCH   3  10
ATOM      9  C   UNL     1      -0.396   8.884  22.123  0.00  0.00    +0.000 C 
ATOM     10  O   UNL     1       0.806   9.478  21.653  0.00  0.00    +0.000 OA
ENDBRANCH   3  10
BRANCH   8  11
ATOM     11  O   UNL     1       0.491  11.284  19.319  0.00  0.00    +0.000 OA
ATOM     12  H   UNL     1       1.097  11.943  18.943  0.00  0.00    +0.000 HD
ENDBRANCH   8  11
ENDBRANCH   2   5
BRANCH   2  13
ATOM     13  O   UNL     1       1.948   5.470  17.760  0.00  0.00    +0.000 OA
ATOM     14  H   UNL     1       1.467   4.744  18.193  0.00  0.00    +0.000 HD
ENDBRANCH   2  13
ENDBRANCH   1   2
BRANCH   1  15
ATOM     15  C   UNL     1       1.632   4.342  20.243  0.00  0.00    +0.000 C 
BRANCH  15  16
ATOM     16  O   UNL     1       1.875   3.005  20.682  0.00  0.00    +0.000 OA
ATOM     17  H   UNL     1       1.050   2.502  20.578  0.00  0.00    +0.000 HD
ENDBRANCH  15  16
ENDBRANCH   1  15
BRANCH   1  18
ATOM     18  O   UNL     1       4.224   4.476  19.924  0.00  0.00    +0.000 OA
BRANCH  18  19
ATOM     19  C   UNL     1       4.836   4.318  18.711  0.00  0.00    +0.000 A 
ATOM     20  C   UNL     1       5.982   5.071  18.375  0.00  0.00    +0.000 A 
ATOM     21  C   UNL     1       6.380   5.143  17.041  0.00  0.00    +0.000 A 
ATOM     22  C   UNL     1       5.733   4.385  16.061  0.00  0.00    +0.000 A 
ATOM     23  C   UNL     1       4.729   3.495  16.442  0.00  0.00    +0.000 A 
ATOM     24  C   UNL     1       4.272   3.441  17.768  0.00  0.00    +0.000 A 
BRANCH  20  25
ATOM     25  O   UNL     1       6.585   5.745  19.401  0.00  0.00    +0.000 OA
ATOM     26  C   UNL     1       7.999   5.780  19.526  0.00  0.00    +0.000 C 
ENDBRANCH  20  25
BRANCH  22  27
ATOM     27  C   UNL     1       6.078   4.642  14.659  0.00  0.00    +0.000 C 
ATOM     28  C   UNL     1       7.328   4.819  14.217  0.00  0.00    +0.000 C 
BRANCH  28  29
ATOM     29  C   UNL     1       7.547   5.099  12.785  0.00  0.00    +0.000 C 
ATOM     30  O   UNL     1       8.179   6.079  12.418  0.00  0.00    +0.000 OA
ENDBRANCH  28  29
ENDBRANCH  22  27
BRANCH  24  31
ATOM     31  O   UNL     1       3.217   2.585  17.908  0.00  0.00    +0.000 OA
ATOM     32  C   UNL     1       3.408   1.265  18.394  0.00  0.00    +0.000 C 
ENDBRANCH  24  31
ENDBRANCH  18  19
ENDBRANCH   1  18
TORSDOF 13
ENDMDL
MODEL 6
REMARK VINA RESULT:      -6.7      0.939      1.872
REMARK  Name = 
REMARK  16 active torsions:
REMARK  status: ('A' for Active; 'I' for Inactive)
REMARK    1  A    between atoms: C_1  and  O_2
REMARK    2  A    between atoms: O_2  and  C_3
REMARK    3  A    between atoms: C_5  and  C_6
REMARK    4  A    between atoms: C_6  and  O_7
REMARK    5  A    between atoms: C_6  and  C_8
REMARK    6  A    between atoms: C_8  and  C_9
REMARK    7  A    between atoms: C_8  and  O_11
REMARK    8  A    between atoms: C_9  and  O_10
REMARK    9  A    between atoms: O_11  and  C_12
REMARK   10  A    between atoms: C_13  and  O_14
REMARK   11  A    between atoms: O_14  and  C_15
REMARK   12  A    between atoms: C_17  and  C_18
REMARK   13  A    between atoms: C_19  and  C_20
REMARK   14  A    between atoms: C_23  and  O_24
REMARK   15  A    between atoms: O_24  and  C_25
REMARK   16  A    between atoms: C_28  and  O_29
REMARK                            x       y       z     vdW  Elec       q    Type
REMARK                         _______ _______ _______ _____ _____    ______ ____
ROOT
ATOM      1  C   UNL     1       3.405   2.884  17.979  0.00  0.00    +0.000 C 
ENDROOT
BRANCH   1   2
ATOM      2  C   UNL     1       4.662   3.762  18.283  0.00  0.00    +0.000 C 
BRANCH   2   5
ATOM      3  C   UNL     1       5.943   4.439  14.695  0.00  0.00    +0.000 A 
ATOM      4  C   UNL     1       5.117   4.046  15.763  0.00  0.00    +0.000 A 
ATOM      5  C   UNL     1       5.478   4.269  17.099  0.00  0.00    +0.000 A 
ATOM      6  C   UNL     1       6.712   4.889  17.352  0.00  0.00    +0.000 A 
ATOM      7  C   UNL     1       7.543   5.291  16.303  0.00  0.00    +0.000 A 
ATOM      8  C   UNL     1       7.163   5.060  14.979  0.00  0.00    +0.000 A 
BRANCH   3  10
ATOM      9  C   UNL     1       6.159   3.278  12.611  0.00  0.00    +0.000 C 
ATOM     10  O   UNL     1       5.414   4.128  13.471  0.00  0.00    +0.000 OA
ENDBRANCH   3  10
BRANCH   8  11
ATOM     11  O   UNL     1       8.020   5.452  13.986  0.00  0.00    +0.000 OA
ATOM     12  H   UNL     1       8.422   4.668  13.580  0.00  0.00    +0.000 HD
ENDBRANCH   8  11
ENDBRANCH   2   5
BRANCH   2  13
ATOM     13  O   UNL     1       5.570   3.061  19.147  0.00  0.00    +0.000 OA
ATOM     14  H   UNL     1       5.938   2.314  18.643  0.00  0.00    +0.000 HD
ENDBRANCH   2  13
ENDBRANCH   1   2
BRANCH   1  15
ATOM     15  C   UNL     1       3.419   1.581  18.836  0.00  0.00    +0.000 C 
BRANCH  15  16
ATOM     16  O   UNL     1       4.360   0.610  18.373  0.00  0.00    +0.000 OA
ATOM     17  H   UNL     1       4.641   0.870  17.480  0.00  0.00    +0.000 HD
ENDBRANCH  15  16
ENDBRANCH   1  15
BRANCH   1  18
ATOM     18  O   UNL     1       2.225   3.738  17.964  0.00  0.00    +0.000 OA
BRANCH  18  19
ATOM     19  C   UNL     1       2.137   4.783  18.841  0.00  0.00    +0.000 A 
ATOM     20  C   UNL     1       1.555   4.610  20.117  0.00  0.00    +0.000 A 
ATOM     21  C   UNL     1       1.174   5.735  20.847  0.00  0.00    +0.000 A 
ATOM     22  C   UNL     1       1.471   7.020  20.384  0.00  0.00    +0.000 A 
ATOM     23  C   UNL     1       2.220   7.168  19.218  0.00  0.00    +0.000 A 
ATOM     24  C   UNL     1       2.571   6.057  18.436  0.00  0.00    +0.000 A 
BRANCH  20  25
ATOM     25  O   UNL     1       1.342   3.320  20.514  0.00  0.00    +0.000 OA
ATOM     26  C   UNL     1       1.826   2.846  21.763  0.00  0.00    +0.000 C 
ENDBRANCH  20  25
BRANCH  22  27
ATOM     27  C   UNL     1       0.886   8.157  21.104  0.00  0.00    +0.000 C 
ATOM     28  C   UNL     1       1.412   8.692  22.211  0.00  0.00    +0.000 C 
BRANCH  28  29
ATOM     29  C   UNL     1       0.715   9.818  22.861  0.00  0.00    +0.000 C 
ATOM     30  O   UNL     1       0.427  10.831  22.240  0.00  0.00    +0.000 OA
ENDBRANCH  28  29
ENDBRANCH  22  27
BRANCH  24  31
ATOM     31  O   UNL     1       3.209   6.426  17.286  0.00  0.00    +0.000 OA
ATOM     32  C   UNL     1       3.958   7.630  17.220  0.00  0.00    +0.000 C 
ENDBRANCH  24  31
ENDBRANCH  18  19
ENDBRANCH   1  18
TORSDOF 13
ENDMDL
MODEL 7
REMARK VINA RESULT:      -6.7      1.751      7.260
REMARK  Name = 
REMARK  16 active torsions:
REMARK  status: ('A' for Active; 'I' for Inactive)
REMARK    1  A    between atoms: C_1  and  O_2
REMARK    2  A    between atoms: O_2  and  C_3
REMARK    3  A    between atoms: C_5  and  C_6
REMARK    4  A    between atoms: C_6  and  O_7
REMARK    5  A    between atoms: C_6  and  C_8
REMARK    6  A    between atoms: C_8  and  C_9
REMARK    7  A    between atoms: C_8  and  O_11
REMARK    8  A    between atoms: C_9  and  O_10
REMARK    9  A    between atoms: O_11  and  C_12
REMARK   10  A    between atoms: C_13  and  O_14
REMARK   11  A    between atoms: O_14  and  C_15
REMARK   12  A    between atoms: C_17  and  C_18
REMARK   13  A    between atoms: C_19  and  C_20
REMARK   14  A    between atoms: C_23  and  O_24
REMARK   15  A    between atoms: O_24  and  C_25
REMARK   16  A    between atoms: C_28  and  O_29
REMARK                            x       y       z     vdW  Elec       q    Type
REMARK                         _______ _______ _______ _____ _____    ______ ____
ROOT
ATOM      1  C   UNL     1       3.485   5.151  20.025  0.00  0.00    +0.000 C 
ENDROOT
BRANCH   1   2
ATOM      2  C   UNL     1       2.679   5.826  18.870  0.00  0.00    +0.000 C 
BRANCH   2   5
ATOM      3  C   UNL     1       1.294   9.075  20.452  0.00  0.00    +0.000 A 
ATOM      4  C   UNL     1       1.813   7.775  20.316  0.00  0.00    +0.000 A 
ATOM      5  C   UNL     1       2.213   7.264  19.073  0.00  0.00    +0.000 A 
ATOM      6  C   UNL     1       2.065   8.087  17.945  0.00  0.00    +0.000 A 
ATOM      7  C   UNL     1       1.555   9.383  18.062  0.00  0.00    +0.000 A 
ATOM      8  C   UNL     1       1.164   9.873  19.310  0.00  0.00    +0.000 A 
BRANCH   3  10
ATOM      9  C   UNL     1      -0.361   9.096  22.183  0.00  0.00    +0.000 C 
ATOM     10  O   UNL     1       0.959   9.381  21.743  0.00  0.00    +0.000 OA
ENDBRANCH   3  10
BRANCH   8  11
ATOM     11  O   UNL     1       0.651  11.140  19.372  0.00  0.00    +0.000 OA
ATOM     12  H   UNL     1       1.244  11.701  19.897  0.00  0.00    +0.000 HD
ENDBRANCH   8  11
ENDBRANCH   2   5
BRANCH   2  13
ATOM     13  O   UNL     1       1.513   5.051  18.548  0.00  0.00    +0.000 OA
ATOM     14  H   UNL     1       0.752   5.657  18.533  0.00  0.00    +0.000 HD
ENDBRANCH   2  13
ENDBRANCH   1   2
BRANCH   1  15
ATOM     15  C   UNL     1       2.531   4.395  20.999  0.00  0.00    +0.000 C 
BRANCH  15  16
ATOM     16  O   UNL     1       2.134   3.110  20.516  0.00  0.00    +0.000 OA
ATOM     17  H   UNL     1       1.857   3.212  19.590  0.00  0.00    +0.000 HD
ENDBRANCH  15  16
ENDBRANCH   1  15
BRANCH   1  18
ATOM     18  O   UNL     1       4.643   4.471  19.459  0.00  0.00    +0.000 OA
BRANCH  18  19
ATOM     19  C   UNL     1       4.920   4.607  18.126  0.00  0.00    +0.000 A 
ATOM     20  C   UNL     1       4.347   3.734  17.175  0.00  0.00    +0.000 A 
ATOM     21  C   UNL     1       4.894   3.673  15.894  0.00  0.00    +0.000 A 
ATOM     22  C   UNL     1       5.914   4.548  15.511  0.00  0.00    +0.000 A 
ATOM     23  C   UNL     1       6.333   5.536  16.401  0.00  0.00    +0.000 A 
ATOM     24  C   UNL     1       5.839   5.588  17.713  0.00  0.00    +0.000 A 
BRANCH  20  25
ATOM     25  O   UNL     1       3.322   2.946  17.619  0.00  0.00    +0.000 OA
ATOM     26  C   UNL     1       3.536   1.582  17.953  0.00  0.00    +0.000 C 
ENDBRANCH  20  25
BRANCH  22  27
ATOM     27  C   UNL     1       6.566   4.312  14.219  0.00  0.00    +0.000 C 
ATOM     28  C   UNL     1       6.002   3.644  13.207  0.00  0.00    +0.000 C 
BRANCH  28  29
ATOM     29  C   UNL     1       6.771   3.449  11.963  0.00  0.00    +0.000 C 
ATOM     30  O   UNL     1       7.489   4.331  11.514  0.00  0.00    +0.000 OA
ENDBRANCH  28  29
ENDBRANCH  22  27
BRANCH  24  31
ATOM     31  O   UNL     1       6.453   6.560  18.450  0.00  0.00    +0.000 OA
ATOM     32  C   UNL     1       7.743   7.037  18.099  0.00  0.00    +0.000 C 
ENDBRANCH  24  31
ENDBRANCH  18  19
ENDBRANCH   1  18
TORSDOF 13
ENDMDL
MODEL 8
REMARK VINA RESULT:      -6.6      2.766      3.916
REMARK  Name = 
REMARK  16 active torsions:
REMARK  status: ('A' for Active; 'I' for Inactive)
REMARK    1  A    between atoms: C_1  and  O_2
REMARK    2  A    between atoms: O_2  and  C_3
REMARK    3  A    between atoms: C_5  and  C_6
REMARK    4  A    between atoms: C_6  and  O_7
REMARK    5  A    between atoms: C_6  and  C_8
REMARK    6  A    between atoms: C_8  and  C_9
REMARK    7  A    between atoms: C_8  and  O_11
REMARK    8  A    between atoms: C_9  and  O_10
REMARK    9  A    between atoms: O_11  and  C_12
REMARK   10  A    between atoms: C_13  and  O_14
REMARK   11  A    between atoms: O_14  and  C_15
REMARK   12  A    between atoms: C_17  and  C_18
REMARK   13  A    between atoms: C_19  and  C_20
REMARK   14  A    between atoms: C_23  and  O_24
REMARK   15  A    between atoms: O_24  and  C_25
REMARK   16  A    between atoms: C_28  and  O_29
REMARK                            x       y       z     vdW  Elec       q    Type
REMARK                         _______ _______ _______ _____ _____    ______ ____
ROOT
ATOM      1  C   UNL     1       2.241   5.230  19.784  0.00  0.00    +0.000 C 
ENDROOT
BRANCH   1   2
ATOM      2  C   UNL     1       3.391   4.172  19.807  0.00  0.00    +0.000 C 
BRANCH   2   5
ATOM      3  C   UNL     1       5.718   4.020  16.719  0.00  0.00    +0.000 A 
ATOM      4  C   UNL     1       4.581   3.901  17.537  0.00  0.00    +0.000 A 
ATOM      5  C   UNL     1       4.565   4.378  18.855  0.00  0.00    +0.000 A 
ATOM      6  C   UNL     1       5.735   4.971  19.355  0.00  0.00    +0.000 A 
ATOM      7  C   UNL     1       6.873   5.102  18.554  0.00  0.00    +0.000 A 
ATOM      8  C   UNL     1       6.867   4.621  17.243  0.00  0.00    +0.000 A 
BRANCH   3  10
ATOM      9  C   UNL     1       5.498   4.375  14.361  0.00  0.00    +0.000 C 
ATOM     10  O   UNL     1       5.533   3.490  15.471  0.00  0.00    +0.000 OA
ENDBRANCH   3  10
BRANCH   8  11
ATOM     11  O   UNL     1       8.012   4.753  16.504  0.00  0.00    +0.000 OA
ATOM     12  H   UNL     1       7.810   5.227  15.681  0.00  0.00    +0.000 HD
ENDBRANCH   8  11
ENDBRANCH   2   5
BRANCH   2  13
ATOM     13  O   UNL     1       2.871   2.858  19.550  0.00  0.00    +0.000 OA
ATOM     14  H   UNL     1       3.610   2.229  19.629  0.00  0.00    +0.000 HD
ENDBRANCH   2  13
ENDBRANCH   1   2
BRANCH   1  15
ATOM     15  C   UNL     1       1.005   4.724  20.590  0.00  0.00    +0.000 C 
BRANCH  15  16
ATOM     16  O   UNL     1       0.326   3.637  19.958  0.00  0.00    +0.000 OA
ATOM     17  H   UNL     1       0.928   3.253  19.298  0.00  0.00    +0.000 HD
ENDBRANCH  15  16
ENDBRANCH   1  15
BRANCH   1  18
ATOM     18  O   UNL     1       2.805   6.546  20.058  0.00  0.00    +0.000 OA
BRANCH  18  19
ATOM     19  C   UNL     1       2.189   7.661  19.561  0.00  0.00    +0.000 A 
ATOM     20  C   UNL     1       1.402   8.486  20.394  0.00  0.00    +0.000 A 
ATOM     21  C   UNL     1       0.527   9.402  19.813  0.00  0.00    +0.000 A 
ATOM     22  C   UNL     1       0.512   9.593  18.428  0.00  0.00    +0.000 A 
ATOM     23  C   UNL     1       1.434   8.911  17.636  0.00  0.00    +0.000 A 
ATOM     24  C   UNL     1       2.290   7.945  18.188  0.00  0.00    +0.000 A 
BRANCH  20  25
ATOM     25  O   UNL     1       1.512   8.266  21.739  0.00  0.00    +0.000 OA
ATOM     26  C   UNL     1       1.062   9.230  22.680  0.00  0.00    +0.000 C 
ENDBRANCH  20  25
BRANCH  22  27
ATOM     27  C   UNL     1      -0.552  10.434  17.867  0.00  0.00    +0.000 C 
ATOM     28  C   UNL     1      -1.640   9.954  17.255  0.00  0.00    +0.000 C 
BRANCH  28  29
ATOM     29  C   UNL     1      -2.628  10.902  16.706  0.00  0.00    +0.000 C 
ATOM     30  O   UNL     1      -3.707  10.519  16.278  0.00  0.00    +0.000 OA
ENDBRANCH  28  29
ENDBRANCH  22  27
BRANCH  24  31
ATOM     31  O   UNL     1       3.037   7.321  17.230  0.00  0.00    +0.000 OA
ATOM     32  C   UNL     1       4.434   7.550  17.130  0.00  0.00    +0.000 C 
ENDBRANCH  24  31
ENDBRANCH  18  19
ENDBRANCH   1  18
TORSDOF 13
ENDMDL
MODEL 9
REMARK VINA RESULT:      -6.5      2.487      3.810
REMARK  Name = 
REMARK  16 active torsions:
REMARK  status: ('A' for Active; 'I' for Inactive)
REMARK    1  A    between atoms: C_1  and  O_2
REMARK    2  A    between atoms: O_2  and  C_3
REMARK    3  A    between atoms: C_5  and  C_6
REMARK    4  A    between atoms: C_6  and  O_7
REMARK    5  A    between atoms: C_6  and  C_8
REMARK    6  A    between atoms: C_8  and  C_9
REMARK    7  A    between atoms: C_8  and  O_11
REMARK    8  A    between atoms: C_9  and  O_10
REMARK    9  A    between atoms: O_11  and  C_12
REMARK   10  A    between atoms: C_13  and  O_14
REMARK   11  A    between atoms: O_14  and  C_15
REMARK   12  A    between atoms: C_17  and  C_18
REMARK   13  A    between atoms: C_19  and  C_20
REMARK   14  A    between atoms: C_23  and  O_24
REMARK   15  A    between atoms: O_24  and  C_25
REMARK   16  A    between atoms: C_28  and  O_29
REMARK                            x       y       z     vdW  Elec       q    Type
REMARK                         _______ _______ _______ _____ _____    ______ ____
ROOT
ATOM      1  C   UNL     1       2.380   4.948  19.777  0.00  0.00    +0.000 C 
ENDROOT
BRANCH   1   2
ATOM      2  C   UNL     1       3.540   3.901  19.751  0.00  0.00    +0.000 C 
BRANCH   2   5
ATOM      3  C   UNL     1       6.651   4.636  17.569  0.00  0.00    +0.000 A 
ATOM      4  C   UNL     1       5.808   4.508  18.686  0.00  0.00    +0.000 A 
ATOM      5  C   UNL     1       4.522   3.957  18.585  0.00  0.00    +0.000 A 
ATOM      6  C   UNL     1       4.082   3.544  17.317  0.00  0.00    +0.000 A 
ATOM      7  C   UNL     1       4.908   3.659  16.196  0.00  0.00    +0.000 A 
ATOM      8  C   UNL     1       6.186   4.210  16.320  0.00  0.00    +0.000 A 
BRANCH   3  10
ATOM      9  C   UNL     1       7.913   6.139  18.942  0.00  0.00    +0.000 C 
ATOM     10  O   UNL     1       7.859   5.201  17.876  0.00  0.00    +0.000 OA
ENDBRANCH   3  10
BRANCH   8  11
ATOM     11  O   UNL     1       6.951   4.321  15.191  0.00  0.00    +0.000 OA
ATOM     12  H   UNL     1       6.422   4.720  14.482  0.00  0.00    +0.000 HD
ENDBRANCH   8  11
ENDBRANCH   2   5
BRANCH   2  13
ATOM     13  O   UNL     1       3.015   2.565  19.790  0.00  0.00    +0.000 OA
ATOM     14  H   UNL     1       3.723   1.962  19.503  0.00  0.00    +0.000 HD
ENDBRANCH   2  13
ENDBRANCH   1   2
BRANCH   1  15
ATOM     15  C   UNL     1       1.186   4.430  20.636  0.00  0.00    +0.000 C 
BRANCH  15  16
ATOM     16  O   UNL     1       0.433   3.401  19.994  0.00  0.00    +0.000 OA
ATOM     17  H   UNL     1      -0.399   3.289  20.485  0.00  0.00    +0.000 HD
ENDBRANCH  15  16
ENDBRANCH   1  15
BRANCH   1  18
ATOM     18  O   UNL     1       2.942   6.269  20.024  0.00  0.00    +0.000 OA
BRANCH  18  19
ATOM     19  C   UNL     1       2.324   7.373  19.506  0.00  0.00    +0.000 A 
ATOM     20  C   UNL     1       2.584   7.795  18.184  0.00  0.00    +0.000 A 
ATOM     21  C   UNL     1       2.216   9.083  17.797  0.00  0.00    +0.000 A 
ATOM     22  C   UNL     1       1.489   9.907  18.662  0.00  0.00    +0.000 A 
ATOM     23  C   UNL     1       1.070   9.403  19.892  0.00  0.00    +0.000 A 
ATOM     24  C   UNL     1       1.471   8.131  20.328  0.00  0.00    +0.000 A 
BRANCH  20  25
ATOM     25  O   UNL     1       3.257   6.910  17.389  0.00  0.00    +0.000 OA
ATOM     26  C   UNL     1       4.442   7.292  16.704  0.00  0.00    +0.000 C 
ENDBRANCH  20  25
BRANCH  22  27
ATOM     27  C   UNL     1       1.293  11.306  18.267  0.00  0.00    +0.000 C 
ATOM     28  C   UNL     1       1.675  12.353  19.006  0.00  0.00    +0.000 C 
BRANCH  28  29
ATOM     29  C   UNL     1       1.396  13.716  18.513  0.00  0.00    +0.000 C 
ATOM     30  O   UNL     1       1.841  14.701  19.083  0.00  0.00    +0.000 OA
ENDBRANCH  28  29
ENDBRANCH  22  27
BRANCH  24  31
ATOM     31  O   UNL     1       1.042   7.871  21.599  0.00  0.00    +0.000 OA
ATOM     32  C   UNL     1       0.596   8.918  22.447  0.00  0.00    +0.000 C 
ENDBRANCH  24  31
ENDBRANCH  18  19
ENDBRANCH   1  18
TORSDOF 13
ENDMDL
