MODEL 1
REMARK VINA RESULT:      -8.3      0.000      0.000
REMARK  Name = 
REMARK  12 active torsions:
REMARK  status: ('A' for Active; 'I' for Inactive)
REMARK    1  A    between atoms: C_1  and  C_2
REMARK    2  A    between atoms: C_2  and  C_3
REMARK    3  A    between atoms: C_3  and  N_4
REMARK    4  A    between atoms: N_4  and  C_5
REMARK    5  A    between atoms: C_6  and  C_8
REMARK    6  A    between atoms: C_8  and  N_9
REMARK    7  A    between atoms: C_11  and  C_12
REMARK    8  A    between atoms: C_21  and  C_22
REMARK    9  A    between atoms: C_22  and  O_24
REMARK   10  A    between atoms: C_25  and  C_26
REMARK   11  A    between atoms: C_29  and  O_30
REMARK   12  A    between atoms: O_30  and  C_31
REMARK                            x       y       z     vdW  Elec       q    Type
REMARK                         _______ _______ _______ _____ _____    ______ ____
ROOT
ATOM      1  N   UNL     1       4.833   3.746  17.799  0.00  0.00    +0.000 NA
ATOM      2  C   UNL     1       4.776   4.304  19.168  0.00  0.00    +0.000 C 
ATOM      3  C   UNL     1       5.039   5.815  19.032  0.00  0.00    +0.000 C 
ATOM      4  C   UNL     1       6.151   5.801  17.965  0.00  0.00    +0.000 C 
ATOM      5  C   UNL     1       6.024   4.434  17.244  0.00  0.00    +0.000 C 
ENDROOT
BRANCH   3   6
ATOM      6  C   UNL     1       3.805   6.695  18.784  0.00  0.00    +0.000 A 
ATOM      7  C   UNL     1       3.624   7.427  17.599  0.00  0.00    +0.000 A 
ATOM      8  C   UNL     1       2.605   8.388  17.463  0.00  0.00    +0.000 A 
ATOM      9  C   UNL     1       1.779   8.677  18.564  0.00  0.00    +0.000 A 
ATOM     10  C   UNL     1       0.778   9.653  18.832  0.00  0.00    +0.000 A 
ATOM     11  C   UNL     1       0.371   9.484  20.136  0.00  0.00    +0.000 A 
ATOM     12  N   UNL     1       1.036   8.401  20.645  0.00  0.00    +0.000 N 
ATOM     13  C   UNL     1       1.936   7.924  19.720  0.00  0.00    +0.000 A 
ATOM     14  C   UNL     1       2.904   6.922  19.847  0.00  0.00    +0.000 A 
ATOM     15  H   UNL     1       0.945   8.043  21.586  0.00  0.00    +0.000 HD
ENDBRANCH   3   6
BRANCH   5  16
ATOM     16  C   UNL     1       6.222   4.548  15.736  0.00  0.00    +0.000 A 
ATOM     17  C   UNL     1       5.433   3.763  14.881  0.00  0.00    +0.000 A 
ATOM     18  C   UNL     1       5.757   3.627  13.527  0.00  0.00    +0.000 A 
ATOM     19  C   UNL     1       6.853   4.297  12.985  0.00  0.00    +0.000 A 
ATOM     20  C   UNL     1       7.587   5.158  13.798  0.00  0.00    +0.000 A 
ATOM     21  C   UNL     1       7.275   5.280  15.161  0.00  0.00    +0.000 A 
BRANCH  19  22
ATOM     22  O   UNL     1       7.136   3.969  11.690  0.00  0.00    +0.000 OA
ATOM     23  C   UNL     1       7.096   2.595  11.334  0.00  0.00    +0.000 C 
ENDBRANCH  19  22
ENDBRANCH   5  16
BRANCH   4  24
ATOM     24  C   UNL     1       7.512   5.867  18.629  0.00  0.00    +0.000 C 
ATOM     25  O   UNL     1       8.071   4.923  19.184  0.00  0.00    +0.000 OA
BRANCH  24  26
ATOM     26  O   UNL     1       8.102   7.083  18.545  0.00  0.00    +0.000 OA
ATOM     27  H   UNL     1       8.047   7.629  19.351  0.00  0.00    +0.000 HD
ENDBRANCH  24  26
ENDBRANCH   4  24
BRANCH   1  28
ATOM     28  C   UNL     1       3.570   3.890  17.044  0.00  0.00    +0.000 C 
BRANCH  28  31
ATOM     29  N   UNL     1       2.167   2.500  18.624  0.00  0.00    +0.000 N 
ATOM     30  C   UNL     1       3.114   1.401  18.511  0.00  0.00    +0.000 C 
ATOM     31  C   UNL     1       2.290   3.700  17.915  0.00  0.00    +0.000 C 
ATOM     32  O   UNL     1       1.377   4.528  17.960  0.00  0.00    +0.000 OA
BRANCH  29  33
ATOM     33  C   UNL     1       0.936   2.269  19.384  0.00  0.00    +0.000 C 
BRANCH  33  35
ATOM     34  C   UNL     1       2.174   2.892  21.535  0.00  0.00    +0.000 C 
ATOM     35  C   UNL     1       0.882   2.984  20.739  0.00  0.00    +0.000 C 
ENDBRANCH  33  35
ENDBRANCH  29  33
ENDBRANCH  28  31
ENDBRANCH   1  28
TORSDOF 9
ENDMDL
MODEL 2
REMARK VINA RESULT:      -8.0      5.931     11.471
REMARK  Name = 
REMARK  12 active torsions:
REMARK  status: ('A' for Active; 'I' for Inactive)
REMARK    1  A    between atoms: C_1  and  C_2
REMARK    2  A    between atoms: C_2  and  C_3
REMARK    3  A    between atoms: C_3  and  N_4
REMARK    4  A    between atoms: N_4  and  C_5
REMARK    5  A    between atoms: C_6  and  C_8
REMARK    6  A    between atoms: C_8  and  N_9
REMARK    7  A    between atoms: C_11  and  C_12
REMARK    8  A    between atoms: C_21  and  C_22
REMARK    9  A    between atoms: C_22  and  O_24
REMARK   10  A    between atoms: C_25  and  C_26
REMARK   11  A    between atoms: C_29  and  O_30
REMARK   12  A    between atoms: O_30  and  C_31
REMARK                            x       y       z     vdW  Elec       q    Type
REMARK                         _______ _______ _______ _____ _____    ______ ____
ROOT
ATOM      1  N   UNL     1      -1.730  12.741  19.451  0.00  0.00    +0.000 NA
ATOM      2  C   UNL     1      -0.296  12.823  19.100  0.00  0.00    +0.000 C 
ATOM      3  C   UNL     1       0.479  12.251  20.301  0.00  0.00    +0.000 C 
ATOM      4  C   UNL     1      -0.338  12.851  21.462  0.00  0.00    +0.000 C 
ATOM      5  C   UNL     1      -1.722  13.210  20.859  0.00  0.00    +0.000 C 
ENDROOT
BRANCH   3   6
ATOM      6  C   UNL     1       0.719  10.733  20.288  0.00  0.00    +0.000 A 
ATOM      7  C   UNL     1       0.705   9.956  21.458  0.00  0.00    +0.000 A 
ATOM      8  C   UNL     1       1.129   8.614  21.469  0.00  0.00    +0.000 A 
ATOM      9  C   UNL     1       1.644   8.046  20.291  0.00  0.00    +0.000 A 
ATOM     10  C   UNL     1       2.279   6.812  19.973  0.00  0.00    +0.000 A 
ATOM     11  C   UNL     1       2.639   6.860  18.645  0.00  0.00    +0.000 A 
ATOM     12  N   UNL     1       2.185   8.045  18.130  0.00  0.00    +0.000 N 
ATOM     13  C   UNL     1       1.621   8.805  19.129  0.00  0.00    +0.000 A 
ATOM     14  C   UNL     1       1.143  10.120  19.090  0.00  0.00    +0.000 A 
ATOM     15  H   UNL     1       2.311   8.359  17.178  0.00  0.00    +0.000 HD
ENDBRANCH   3   6
BRANCH   5  16
ATOM     16  C   UNL     1      -2.874  12.869  21.797  0.00  0.00    +0.000 A 
ATOM     17  C   UNL     1      -4.177  13.257  21.450  0.00  0.00    +0.000 A 
ATOM     18  C   UNL     1      -5.213  13.215  22.389  0.00  0.00    +0.000 A 
ATOM     19  C   UNL     1      -4.985  12.751  23.684  0.00  0.00    +0.000 A 
ATOM     20  C   UNL     1      -3.721  12.268  24.014  0.00  0.00    +0.000 A 
ATOM     21  C   UNL     1      -2.675  12.329  23.080  0.00  0.00    +0.000 A 
BRANCH  19  22
ATOM     22  O   UNL     1      -6.046  12.891  24.533  0.00  0.00    +0.000 OA
ATOM     23  C   UNL     1      -7.336  13.030  23.958  0.00  0.00    +0.000 C 
ENDBRANCH  19  22
ENDBRANCH   5  16
BRANCH   4  24
ATOM     24  C   UNL     1       0.315  14.127  21.955  0.00  0.00    +0.000 C 
ATOM     25  O   UNL     1      -0.291  15.132  22.319  0.00  0.00    +0.000 OA
BRANCH  24  26
ATOM     26  O   UNL     1       1.667  14.069  21.990  0.00  0.00    +0.000 OA
ATOM     27  H   UNL     1       2.040  13.420  22.614  0.00  0.00    +0.000 HD
ENDBRANCH  24  26
ENDBRANCH   4  24
BRANCH   1  28
ATOM     28  C   UNL     1      -2.330  11.415  19.196  0.00  0.00    +0.000 C 
BRANCH  28  31
ATOM     29  N   UNL     1      -2.948  10.549  16.902  0.00  0.00    +0.000 N 
ATOM     30  C   UNL     1      -1.703   9.799  16.841  0.00  0.00    +0.000 C 
ATOM     31  C   UNL     1      -3.294  11.383  17.971  0.00  0.00    +0.000 C 
ATOM     32  O   UNL     1      -4.302  12.089  17.888  0.00  0.00    +0.000 OA
BRANCH  29  33
ATOM     33  C   UNL     1      -3.798  10.565  15.709  0.00  0.00    +0.000 C 
BRANCH  33  35
ATOM     34  C   UNL     1      -4.039   9.890  13.252  0.00  0.00    +0.000 C 
ATOM     35  C   UNL     1      -3.095  10.118  14.422  0.00  0.00    +0.000 C 
ENDBRANCH  33  35
ENDBRANCH  29  33
ENDBRANCH  28  31
ENDBRANCH   1  28
TORSDOF 9
ENDMDL
MODEL 3
REMARK VINA RESULT:      -7.9      5.295     10.021
REMARK  Name = 
REMARK  12 active torsions:
REMARK  status: ('A' for Active; 'I' for Inactive)
REMARK    1  A    between atoms: C_1  and  C_2
REMARK    2  A    between atoms: C_2  and  C_3
REMARK    3  A    between atoms: C_3  and  N_4
REMARK    4  A    between atoms: N_4  and  C_5
REMARK    5  A    between atoms: C_6  and  C_8
REMARK    6  A    between atoms: C_8  and  N_9
REMARK    7  A    between atoms: C_11  and  C_12
REMARK    8  A    between atoms: C_21  and  C_22
REMARK    9  A    between atoms: C_22  and  O_24
REMARK   10  A    between atoms: C_25  and  C_26
REMARK   11  A    between atoms: C_29  and  O_30
REMARK   12  A    between atoms: O_30  and  C_31
REMARK                            x       y       z     vdW  Elec       q    Type
REMARK                         _______ _______ _______ _____ _____    ______ ____
ROOT
ATOM      1  N   UNL     1       0.472  12.186  18.548  0.00  0.00    +0.000 NA
ATOM      2  C   UNL     1      -0.819  12.885  18.369  0.00  0.00    +0.000 C 
ATOM      3  C   UNL     1      -1.858  12.096  19.187  0.00  0.00    +0.000 C 
ATOM      4  C   UNL     1      -1.408  10.654  18.876  0.00  0.00    +0.000 C 
ATOM      5  C   UNL     1       0.067  10.766  18.409  0.00  0.00    +0.000 C 
ENDROOT
BRANCH   3   6
ATOM      6  C   UNL     1      -2.012  12.508  20.659  0.00  0.00    +0.000 A 
ATOM      7  C   UNL     1      -1.607  11.683  21.721  0.00  0.00    +0.000 A 
ATOM      8  C   UNL     1      -1.938  11.969  23.058  0.00  0.00    +0.000 A 
ATOM      9  C   UNL     1      -2.754  13.079  23.342  0.00  0.00    +0.000 A 
ATOM     10  C   UNL     1      -3.391  13.575  24.515  0.00  0.00    +0.000 A 
ATOM     11  C   UNL     1      -4.135  14.675  24.150  0.00  0.00    +0.000 A 
ATOM     12  N   UNL     1      -3.918  14.904  22.818  0.00  0.00    +0.000 N 
ATOM     13  C   UNL     1      -3.120  13.912  22.295  0.00  0.00    +0.000 A 
ATOM     14  C   UNL     1      -2.744  13.674  20.968  0.00  0.00    +0.000 A 
ATOM     15  H   UNL     1      -4.341  15.642  22.272  0.00  0.00    +0.000 HD
ENDBRANCH   3   6
BRANCH   5  16
ATOM     16  C   UNL     1       0.942   9.651  18.969  0.00  0.00    +0.000 A 
ATOM     17  C   UNL     1       1.795   8.950  18.103  0.00  0.00    +0.000 A 
ATOM     18  C   UNL     1       2.404   7.756  18.504  0.00  0.00    +0.000 A 
ATOM     19  C   UNL     1       2.207   7.251  19.789  0.00  0.00    +0.000 A 
ATOM     20  C   UNL     1       1.444   7.986  20.693  0.00  0.00    +0.000 A 
ATOM     21  C   UNL     1       0.816   9.174  20.285  0.00  0.00    +0.000 A 
BRANCH  19  22
ATOM     22  O   UNL     1       2.747   6.015  20.002  0.00  0.00    +0.000 OA
ATOM     23  C   UNL     1       1.970   5.072  20.726  0.00  0.00    +0.000 C 
ENDBRANCH  19  22
ENDBRANCH   5  16
BRANCH   4  24
ATOM     24  C   UNL     1      -2.230  10.087  17.736  0.00  0.00    +0.000 C 
ATOM     25  O   UNL     1      -3.364   9.627  17.847  0.00  0.00    +0.000 OA
BRANCH  24  26
ATOM     26  O   UNL     1      -1.611  10.148  16.533  0.00  0.00    +0.000 OA
ATOM     27  H   UNL     1      -0.638  10.084  16.562  0.00  0.00    +0.000 HD
ENDBRANCH  24  26
ENDBRANCH   4  24
BRANCH   1  28
ATOM     28  C   UNL     1       1.181  12.557  19.791  0.00  0.00    +0.000 C 
BRANCH  28  31
ATOM     29  N   UNL     1       2.164  14.817  19.222  0.00  0.00    +0.000 N 
ATOM     30  C   UNL     1       3.057  14.195  18.258  0.00  0.00    +0.000 C 
ATOM     31  C   UNL     1       1.277  14.095  20.028  0.00  0.00    +0.000 C 
ATOM     32  O   UNL     1       0.650  14.680  20.916  0.00  0.00    +0.000 OA
BRANCH  29  33
ATOM     33  C   UNL     1       2.326  16.249  19.483  0.00  0.00    +0.000 C 
BRANCH  33  35
ATOM     34  C   UNL     1       0.316  17.192  18.210  0.00  0.00    +0.000 C 
ATOM     35  C   UNL     1       1.829  17.161  18.355  0.00  0.00    +0.000 C 
ENDBRANCH  33  35
ENDBRANCH  29  33
ENDBRANCH  28  31
ENDBRANCH   1  28
TORSDOF 9
ENDMDL
MODEL 4
REMARK VINA RESULT:      -7.9      5.776     11.449
REMARK  Name = 
REMARK  12 active torsions:
REMARK  status: ('A' for Active; 'I' for Inactive)
REMARK    1  A    between atoms: C_1  and  C_2
REMARK    2  A    between atoms: C_2  and  C_3
REMARK    3  A    between atoms: C_3  and  N_4
REMARK    4  A    between atoms: N_4  and  C_5
REMARK    5  A    between atoms: C_6  and  C_8
REMARK    6  A    between atoms: C_8  and  N_9
REMARK    7  A    between atoms: C_11  and  C_12
REMARK    8  A    between atoms: C_21  and  C_22
REMARK    9  A    between atoms: C_22  and  O_24
REMARK   10  A    between atoms: C_25  and  C_26
REMARK   11  A    between atoms: C_29  and  O_30
REMARK   12  A    between atoms: O_30  and  C_31
REMARK                            x       y       z     vdW  Elec       q    Type
REMARK                         _______ _______ _______ _____ _____    ______ ____
ROOT
ATOM      1  N   UNL     1      -1.224  13.002  19.280  0.00  0.00    +0.000 NA
ATOM      2  C   UNL     1       0.122  12.895  18.676  0.00  0.00    +0.000 C 
ATOM      3  C   UNL     1       1.035  12.282  19.754  0.00  0.00    +0.000 C 
ATOM      4  C   UNL     1       0.516  13.024  21.001  0.00  0.00    +0.000 C 
ATOM      5  C   UNL     1      -0.905  13.523  20.632  0.00  0.00    +0.000 C 
ENDROOT
BRANCH   3   6
ATOM      6  C   UNL     1       1.097  10.748  19.792  0.00  0.00    +0.000 A 
ATOM      7  C   UNL     1       0.855  10.011  20.963  0.00  0.00    +0.000 A 
ATOM      8  C   UNL     1       1.116   8.631  21.046  0.00  0.00    +0.000 A 
ATOM      9  C   UNL     1       1.699   7.975  19.947  0.00  0.00    +0.000 A 
ATOM     10  C   UNL     1       2.220   6.668  19.727  0.00  0.00    +0.000 A 
ATOM     11  C   UNL     1       2.738   6.637  18.452  0.00  0.00    +0.000 A 
ATOM     12  N   UNL     1       2.489   7.850  17.868  0.00  0.00    +0.000 N 
ATOM     13  C   UNL     1       1.902   8.698  18.780  0.00  0.00    +0.000 A 
ATOM     14  C   UNL     1       1.587  10.056  18.664  0.00  0.00    +0.000 A 
ATOM     15  H   UNL     1       2.763   8.121  16.934  0.00  0.00    +0.000 HD
ENDBRANCH   3   6
BRANCH   5  16
ATOM     16  C   UNL     1      -1.897  13.362  21.779  0.00  0.00    +0.000 A 
ATOM     17  C   UNL     1      -1.781  12.255  22.634  0.00  0.00    +0.000 A 
ATOM     18  C   UNL     1      -2.812  11.917  23.516  0.00  0.00    +0.000 A 
ATOM     19  C   UNL     1      -3.967  12.694  23.595  0.00  0.00    +0.000 A 
ATOM     20  C   UNL     1      -4.055  13.851  22.825  0.00  0.00    +0.000 A 
ATOM     21  C   UNL     1      -3.030  14.181  21.925  0.00  0.00    +0.000 A 
BRANCH  19  22
ATOM     22  O   UNL     1      -4.947  12.176  24.394  0.00  0.00    +0.000 OA
ATOM     23  C   UNL     1      -6.263  12.685  24.238  0.00  0.00    +0.000 C 
ENDBRANCH  19  22
ENDBRANCH   5  16
BRANCH   4  24
ATOM     24  C   UNL     1       1.387  14.230  21.291  0.00  0.00    +0.000 C 
ATOM     25  O   UNL     1       0.999  15.396  21.281  0.00  0.00    +0.000 OA
BRANCH  24  26
ATOM     26  O   UNL     1       2.668  13.918  21.597  0.00  0.00    +0.000 OA
ATOM     27  H   UNL     1       3.111  14.532  22.212  0.00  0.00    +0.000 HD
ENDBRANCH  24  26
ENDBRANCH   4  24
BRANCH   1  28
ATOM     28  C   UNL     1      -2.005  11.748  19.218  0.00  0.00    +0.000 C 
BRANCH  28  31
ATOM     29  N   UNL     1      -4.325  11.919  18.227  0.00  0.00    +0.000 N 
ATOM     30  C   UNL     1      -4.882  12.155  19.550  0.00  0.00    +0.000 C 
ATOM     31  C   UNL     1      -2.969  11.665  17.995  0.00  0.00    +0.000 C 
ATOM     32  O   UNL     1      -2.596  11.341  16.864  0.00  0.00    +0.000 OA
BRANCH  29  33
ATOM     33  C   UNL     1      -5.258  11.768  17.107  0.00  0.00    +0.000 C 
BRANCH  33  35
ATOM     34  C   UNL     1      -6.792  13.800  16.848  0.00  0.00    +0.000 C 
ATOM     35  C   UNL     1      -6.645  12.373  17.351  0.00  0.00    +0.000 C 
ENDBRANCH  33  35
ENDBRANCH  29  33
ENDBRANCH  28  31
ENDBRANCH   1  28
TORSDOF 9
ENDMDL
MODEL 5
REMARK VINA RESULT:      -7.9      8.067     12.180
REMARK  Name = 
REMARK  12 active torsions:
REMARK  status: ('A' for Active; 'I' for Inactive)
REMARK    1  A    between atoms: C_1  and  C_2
REMARK    2  A    between atoms: C_2  and  C_3
REMARK    3  A    between atoms: C_3  and  N_4
REMARK    4  A    between atoms: N_4  and  C_5
REMARK    5  A    between atoms: C_6  and  C_8
REMARK    6  A    between atoms: C_8  and  N_9
REMARK    7  A    between atoms: C_11  and  C_12
REMARK    8  A    between atoms: C_21  and  C_22
REMARK    9  A    between atoms: C_22  and  O_24
REMARK   10  A    between atoms: C_25  and  C_26
REMARK   11  A    between atoms: C_29  and  O_30
REMARK   12  A    between atoms: O_30  and  C_31
REMARK                            x       y       z     vdW  Elec       q    Type
REMARK                         _______ _______ _______ _____ _____    ______ ____
ROOT
ATOM      1  N   UNL     1       0.392  12.693  20.646  0.00  0.00    +0.000 NA
ATOM      2  C   UNL     1       0.920  11.526  19.905  0.00  0.00    +0.000 C 
ATOM      3  C   UNL     1      -0.128  10.407  20.052  0.00  0.00    +0.000 C 
ATOM      4  C   UNL     1      -0.526  10.602  21.529  0.00  0.00    +0.000 C 
ATOM      5  C   UNL     1      -0.117  12.055  21.886  0.00  0.00    +0.000 C 
ENDROOT
BRANCH   3   6
ATOM      6  C   UNL     1      -1.243  10.383  18.995  0.00  0.00    +0.000 A 
ATOM      7  C   UNL     1      -1.041   9.890  17.695  0.00  0.00    +0.000 A 
ATOM      8  C   UNL     1      -1.994  10.062  16.675  0.00  0.00    +0.000 A 
ATOM      9  C   UNL     1      -3.159  10.804  16.939  0.00  0.00    +0.000 A 
ATOM     10  C   UNL     1      -4.234  11.291  16.143  0.00  0.00    +0.000 A 
ATOM     11  C   UNL     1      -5.055  12.034  16.962  0.00  0.00    +0.000 A 
ATOM     12  N   UNL     1      -4.555  11.959  18.234  0.00  0.00    +0.000 N 
ATOM     13  C   UNL     1      -3.372  11.257  18.234  0.00  0.00    +0.000 A 
ATOM     14  C   UNL     1      -2.461  11.039  19.273  0.00  0.00    +0.000 A 
ATOM     15  H   UNL     1      -4.946  12.415  19.047  0.00  0.00    +0.000 HD
ENDBRANCH   3   6
BRANCH   5  16
ATOM     16  C   UNL     1      -1.157  12.760  22.749  0.00  0.00    +0.000 A 
ATOM     17  C   UNL     1      -2.448  12.219  22.843  0.00  0.00    +0.000 A 
ATOM     18  C   UNL     1      -3.501  12.961  23.388  0.00  0.00    +0.000 A 
ATOM     19  C   UNL     1      -3.285  14.245  23.886  0.00  0.00    +0.000 A 
ATOM     20  C   UNL     1      -1.990  14.758  23.892  0.00  0.00    +0.000 A 
ATOM     21  C   UNL     1      -0.937  14.022  23.326  0.00  0.00    +0.000 A 
BRANCH  19  22
ATOM     22  O   UNL     1      -4.420  14.907  24.263  0.00  0.00    +0.000 OA
ATOM     23  C   UNL     1      -4.290  16.261  24.667  0.00  0.00    +0.000 C 
ENDBRANCH  19  22
ENDBRANCH   5  16
BRANCH   4  24
ATOM     24  C   UNL     1       0.261   9.653  22.410  0.00  0.00    +0.000 C 
ATOM     25  O   UNL     1       1.353   9.168  22.123  0.00  0.00    +0.000 OA
BRANCH  24  26
ATOM     26  O   UNL     1      -0.338   9.385  23.595  0.00  0.00    +0.000 OA
ATOM     27  H   UNL     1       0.101   8.704  24.138  0.00  0.00    +0.000 HD
ENDBRANCH  24  26
ENDBRANCH   4  24
BRANCH   1  28
ATOM     28  C   UNL     1      -0.571  13.503  19.872  0.00  0.00    +0.000 C 
BRANCH  28  31
ATOM     29  N   UNL     1      -0.683  16.023  19.686  0.00  0.00    +0.000 N 
ATOM     30  C   UNL     1      -1.956  16.026  20.391  0.00  0.00    +0.000 C 
ATOM     31  C   UNL     1       0.012  14.854  19.356  0.00  0.00    +0.000 C 
ATOM     32  O   UNL     1       1.014  14.926  18.641  0.00  0.00    +0.000 OA
BRANCH  29  33
ATOM     33  C   UNL     1      -0.196  17.294  19.145  0.00  0.00    +0.000 C 
BRANCH  33  35
ATOM     34  C   UNL     1      -0.085  18.319  16.802  0.00  0.00    +0.000 C 
ATOM     35  C   UNL     1      -0.971  17.804  17.925  0.00  0.00    +0.000 C 
ENDBRANCH  33  35
ENDBRANCH  29  33
ENDBRANCH  28  31
ENDBRANCH   1  28
TORSDOF 9
ENDMDL
MODEL 6
REMARK VINA RESULT:      -7.8      5.273      9.982
REMARK  Name = 
REMARK  12 active torsions:
REMARK  status: ('A' for Active; 'I' for Inactive)
REMARK    1  A    between atoms: C_1  and  C_2
REMARK    2  A    between atoms: C_2  and  C_3
REMARK    3  A    between atoms: C_3  and  N_4
REMARK    4  A    between atoms: N_4  and  C_5
REMARK    5  A    between atoms: C_6  and  C_8
REMARK    6  A    between atoms: C_8  and  N_9
REMARK    7  A    between atoms: C_11  and  C_12
REMARK    8  A    between atoms: C_21  and  C_22
REMARK    9  A    between atoms: C_22  and  O_24
REMARK   10  A    between atoms: C_25  and  C_26
REMARK   11  A    between atoms: C_29  and  O_30
REMARK   12  A    between atoms: O_30  and  C_31
REMARK                            x       y       z     vdW  Elec       q    Type
REMARK                         _______ _______ _______ _____ _____    ______ ____
ROOT
ATOM      1  N   UNL     1       0.583  12.166  18.572  0.00  0.00    +0.000 NA
ATOM      2  C   UNL     1      -0.693  12.893  18.393  0.00  0.00    +0.000 C 
ATOM      3  C   UNL     1      -1.748  12.127  19.212  0.00  0.00    +0.000 C 
ATOM      4  C   UNL     1      -1.330  10.676  18.901  0.00  0.00    +0.000 C 
ATOM      5  C   UNL     1       0.147  10.755  18.434  0.00  0.00    +0.000 C 
ENDROOT
BRANCH   3   6
ATOM      6  C   UNL     1      -1.893  12.544  20.683  0.00  0.00    +0.000 A 
ATOM      7  C   UNL     1      -1.551  11.692  21.747  0.00  0.00    +0.000 A 
ATOM      8  C   UNL     1      -1.879  11.994  23.081  0.00  0.00    +0.000 A 
ATOM      9  C   UNL     1      -2.629  13.151  23.360  0.00  0.00    +0.000 A 
ATOM     10  C   UNL     1      -3.247  13.682  24.528  0.00  0.00    +0.000 A 
ATOM     11  C   UNL     1      -3.919  14.826  24.159  0.00  0.00    +0.000 A 
ATOM     12  N   UNL     1      -3.674  15.045  22.830  0.00  0.00    +0.000 N 
ATOM     13  C   UNL     1      -2.931  14.009  22.312  0.00  0.00    +0.000 A 
ATOM     14  C   UNL     1      -2.556  13.751  20.989  0.00  0.00    +0.000 A 
ATOM     15  H   UNL     1      -4.044  15.809  22.282  0.00  0.00    +0.000 HD
ENDBRANCH   3   6
BRANCH   5  16
ATOM     16  C   UNL     1       0.998   9.622  18.995  0.00  0.00    +0.000 A 
ATOM     17  C   UNL     1       1.855   8.919  18.135  0.00  0.00    +0.000 A 
ATOM     18  C   UNL     1       2.441   7.712  18.532  0.00  0.00    +0.000 A 
ATOM     19  C   UNL     1       2.216   7.195  19.807  0.00  0.00    +0.000 A 
ATOM     20  C   UNL     1       1.448   7.930  20.707  0.00  0.00    +0.000 A 
ATOM     21  C   UNL     1       0.843   9.131  20.304  0.00  0.00    +0.000 A 
BRANCH  19  22
ATOM     22  O   UNL     1       2.735   5.949  20.014  0.00  0.00    +0.000 OA
ATOM     23  C   UNL     1       1.950   5.021  20.746  0.00  0.00    +0.000 C 
ENDBRANCH  19  22
ENDBRANCH   5  16
BRANCH   4  24
ATOM     24  C   UNL     1      -2.164  10.126  17.762  0.00  0.00    +0.000 C 
ATOM     25  O   UNL     1      -3.242   9.550  17.893  0.00  0.00    +0.000 OA
BRANCH  24  26
ATOM     26  O   UNL     1      -1.628  10.344  16.538  0.00  0.00    +0.000 OA
ATOM     27  H   UNL     1      -2.199  10.828  15.914  0.00  0.00    +0.000 HD
ENDBRANCH  24  26
ENDBRANCH   4  24
BRANCH   1  28
ATOM     28  C   UNL     1       1.300  12.522  19.815  0.00  0.00    +0.000 C 
BRANCH  28  31
ATOM     29  N   UNL     1       2.029  14.821  20.576  0.00  0.00    +0.000 N 
ATOM     30  C   UNL     1       0.955  14.846  21.556  0.00  0.00    +0.000 C 
ATOM     31  C   UNL     1       2.226  13.769  19.674  0.00  0.00    +0.000 C 
ATOM     32  O   UNL     1       3.074  13.883  18.785  0.00  0.00    +0.000 OA
BRANCH  29  33
ATOM     33  C   UNL     1       2.835  16.034  20.410  0.00  0.00    +0.000 C 
BRANCH  33  35
ATOM     34  C   UNL     1       1.341  17.051  18.598  0.00  0.00    +0.000 C 
ATOM     35  C   UNL     1       2.048  17.258  19.927  0.00  0.00    +0.000 C 
ENDBRANCH  33  35
ENDBRANCH  29  33
ENDBRANCH  28  31
ENDBRANCH   1  28
TORSDOF 9
ENDMDL
MODEL 7
REMARK VINA RESULT:      -7.8      7.839     10.183
REMARK  Name = 
REMARK  12 active torsions:
REMARK  status: ('A' for Active; 'I' for Inactive)
REMARK    1  A    between atoms: C_1  and  C_2
REMARK    2  A    between atoms: C_2  and  C_3
REMARK    3  A    between atoms: C_3  and  N_4
REMARK    4  A    between atoms: N_4  and  C_5
REMARK    5  A    between atoms: C_6  and  C_8
REMARK    6  A    between atoms: C_8  and  N_9
REMARK    7  A    between atoms: C_11  and  C_12
REMARK    8  A    between atoms: C_21  and  C_22
REMARK    9  A    between atoms: C_22  and  O_24
REMARK   10  A    between atoms: C_25  and  C_26
REMARK   11  A    between atoms: C_29  and  O_30
REMARK   12  A    between atoms: O_30  and  C_31
REMARK                            x       y       z     vdW  Elec       q    Type
REMARK                         _______ _______ _______ _____ _____    ______ ____
ROOT
ATOM      1  N   UNL     1       9.131  14.886  20.582  0.00  0.00    +0.000 NA
ATOM      2  C   UNL     1       8.963  16.297  20.171  0.00  0.00    +0.000 C 
ATOM      3  C   UNL     1       8.449  16.269  18.720  0.00  0.00    +0.000 C 
ATOM      4  C   UNL     1       9.306  15.120  18.152  0.00  0.00    +0.000 C 
ATOM      5  C   UNL     1       9.775  14.299  19.381  0.00  0.00    +0.000 C 
ENDROOT
BRANCH   3   6
ATOM      6  C   UNL     1       6.925  16.195  18.545  0.00  0.00    +0.000 A 
ATOM      7  C   UNL     1       6.056  17.167  19.068  0.00  0.00    +0.000 A 
ATOM      8  C   UNL     1       4.661  16.990  19.089  0.00  0.00    +0.000 A 
ATOM      9  C   UNL     1       4.115  15.776  18.633  0.00  0.00    +0.000 A 
ATOM     10  C   UNL     1       2.811  15.203  18.639  0.00  0.00    +0.000 A 
ATOM     11  C   UNL     1       2.913  13.934  18.115  0.00  0.00    +0.000 A 
ATOM     12  N   UNL     1       4.212  13.743  17.729  0.00  0.00    +0.000 N 
ATOM     13  C   UNL     1       4.973  14.834  18.082  0.00  0.00    +0.000 A 
ATOM     14  C   UNL     1       6.356  15.025  17.998  0.00  0.00    +0.000 A 
ATOM     15  H   UNL     1       4.585  12.898  17.318  0.00  0.00    +0.000 HD
ENDBRANCH   3   6
BRANCH   5  16
ATOM     16  C   UNL     1       9.725  12.796  19.132  0.00  0.00    +0.000 A 
ATOM     17  C   UNL     1       9.030  12.310  18.014  0.00  0.00    +0.000 A 
ATOM     18  C   UNL     1       8.724  10.950  17.893  0.00  0.00    +0.000 A 
ATOM     19  C   UNL     1       9.135  10.037  18.864  0.00  0.00    +0.000 A 
ATOM     20  C   UNL     1       9.912  10.488  19.928  0.00  0.00    +0.000 A 
ATOM     21  C   UNL     1      10.202  11.855  20.061  0.00  0.00    +0.000 A 
BRANCH  19  22
ATOM     22  O   UNL     1       8.654   8.770  18.692  0.00  0.00    +0.000 OA
ATOM     23  C   UNL     1       7.723   8.555  17.642  0.00  0.00    +0.000 C 
ENDBRANCH  19  22
ENDBRANCH   5  16
BRANCH   4  24
ATOM     24  C   UNL     1      10.530  15.679  17.454  0.00  0.00    +0.000 C 
ATOM     25  O   UNL     1      11.668  15.669  17.916  0.00  0.00    +0.000 OA
BRANCH  24  26
ATOM     26  O   UNL     1      10.274  16.187  16.226  0.00  0.00    +0.000 OA
ATOM     27  H   UNL     1       9.905  17.090  16.218  0.00  0.00    +0.000 HD
ENDBRANCH  24  26
ENDBRANCH   4  24
BRANCH   1  28
ATOM     28  C   UNL     1       7.881  14.249  21.045  0.00  0.00    +0.000 C 
BRANCH  28  31
ATOM     29  N   UNL     1       6.720  13.528  23.173  0.00  0.00    +0.000 N 
ATOM     30  C   UNL     1       5.428  13.840  22.584  0.00  0.00    +0.000 C 
ATOM     31  C   UNL     1       7.938  13.745  22.520  0.00  0.00    +0.000 C 
ATOM     32  O   UNL     1       8.995  13.582  23.136  0.00  0.00    +0.000 OA
BRANCH  29  33
ATOM     33  C   UNL     1       6.754  13.131  24.583  0.00  0.00    +0.000 C 
BRANCH  33  35
ATOM     34  C   UNL     1       6.492  11.235  26.282  0.00  0.00    +0.000 C 
ATOM     35  C   UNL     1       6.274  11.699  24.851  0.00  0.00    +0.000 C 
ENDBRANCH  33  35
ENDBRANCH  29  33
ENDBRANCH  28  31
ENDBRANCH   1  28
TORSDOF 9
ENDMDL
MODEL 8
REMARK VINA RESULT:      -7.7      5.178      9.919
REMARK  Name = 
REMARK  12 active torsions:
REMARK  status: ('A' for Active; 'I' for Inactive)
REMARK    1  A    between atoms: C_1  and  C_2
REMARK    2  A    between atoms: C_2  and  C_3
REMARK    3  A    between atoms: C_3  and  N_4
REMARK    4  A    between atoms: N_4  and  C_5
REMARK    5  A    between atoms: C_6  and  C_8
REMARK    6  A    between atoms: C_8  and  N_9
REMARK    7  A    between atoms: C_11  and  C_12
REMARK    8  A    between atoms: C_21  and  C_22
REMARK    9  A    between atoms: C_22  and  O_24
REMARK   10  A    between atoms: C_25  and  C_26
REMARK   11  A    between atoms: C_29  and  O_30
REMARK   12  A    between atoms: O_30  and  C_31
REMARK                            x       y       z     vdW  Elec       q    Type
REMARK                         _______ _______ _______ _____ _____    ______ ____
ROOT
ATOM      1  N   UNL     1       0.514  12.153  18.561  0.00  0.00    +0.000 NA
ATOM      2  C   UNL     1      -0.766  12.870  18.367  0.00  0.00    +0.000 C 
ATOM      3  C   UNL     1      -1.819  12.110  19.194  0.00  0.00    +0.000 C 
ATOM      4  C   UNL     1      -1.393  10.657  18.904  0.00  0.00    +0.000 C 
ATOM      5  C   UNL     1       0.085  10.738  18.441  0.00  0.00    +0.000 C 
ENDROOT
BRANCH   3   6
ATOM      6  C   UNL     1      -1.971  12.546  20.659  0.00  0.00    +0.000 A 
ATOM      7  C   UNL     1      -1.586  11.728  21.734  0.00  0.00    +0.000 A 
ATOM      8  C   UNL     1      -1.917  12.039  23.066  0.00  0.00    +0.000 A 
ATOM      9  C   UNL     1      -2.712  13.169  23.331  0.00  0.00    +0.000 A 
ATOM     10  C   UNL     1      -3.343  13.694  24.494  0.00  0.00    +0.000 A 
ATOM     11  C   UNL     1      -4.064  14.802  24.111  0.00  0.00    +0.000 A 
ATOM     12  N   UNL     1      -3.838  15.009  22.777  0.00  0.00    +0.000 N 
ATOM     13  C   UNL     1      -3.057  13.995  22.270  0.00  0.00    +0.000 A 
ATOM     14  C   UNL     1      -2.681  13.730  20.949  0.00  0.00    +0.000 A 
ATOM     15  H   UNL     1      -4.244  15.747  22.219  0.00  0.00    +0.000 HD
ENDBRANCH   3   6
BRANCH   5  16
ATOM     16  C   UNL     1       0.940   9.616  19.019  0.00  0.00    +0.000 A 
ATOM     17  C   UNL     1       1.801   8.904  18.170  0.00  0.00    +0.000 A 
ATOM     18  C   UNL     1       2.392   7.706  18.586  0.00  0.00    +0.000 A 
ATOM     19  C   UNL     1       2.168   7.207  19.869  0.00  0.00    +0.000 A 
ATOM     20  C   UNL     1       1.396   7.952  20.757  0.00  0.00    +0.000 A 
ATOM     21  C   UNL     1       0.786   9.145  20.335  0.00  0.00    +0.000 A 
BRANCH  19  22
ATOM     22  O   UNL     1       2.692   5.967  20.095  0.00  0.00    +0.000 OA
ATOM     23  C   UNL     1       3.820   5.577  19.326  0.00  0.00    +0.000 C 
ENDBRANCH  19  22
ENDBRANCH   5  16
BRANCH   4  24
ATOM     24  C   UNL     1      -2.221  10.087  17.770  0.00  0.00    +0.000 C 
ATOM     25  O   UNL     1      -3.377   9.684  17.876  0.00  0.00    +0.000 OA
BRANCH  24  26
ATOM     26  O   UNL     1      -1.580  10.077  16.578  0.00  0.00    +0.000 OA
ATOM     27  H   UNL     1      -1.994  10.615  15.878  0.00  0.00    +0.000 HD
ENDBRANCH  24  26
ENDBRANCH   4  24
BRANCH   1  28
ATOM     28  C   UNL     1       1.225  12.529  19.800  0.00  0.00    +0.000 C 
BRANCH  28  31
ATOM     29  N   UNL     1       2.513  14.613  19.170  0.00  0.00    +0.000 N 
ATOM     30  C   UNL     1       3.402  13.820  18.335  0.00  0.00    +0.000 C 
ATOM     31  C   UNL     1       1.483  14.061  19.940  0.00  0.00    +0.000 C 
ATOM     32  O   UNL     1       0.859  14.780  20.725  0.00  0.00    +0.000 OA
BRANCH  29  33
ATOM     33  C   UNL     1       2.822  16.034  19.346  0.00  0.00    +0.000 C 
BRANCH  33  35
ATOM     34  C   UNL     1       5.193  16.973  19.135  0.00  0.00    +0.000 C 
ATOM     35  C   UNL     1       3.918  16.565  18.415  0.00  0.00    +0.000 C 
ENDBRANCH  33  35
ENDBRANCH  29  33
ENDBRANCH  28  31
ENDBRANCH   1  28
TORSDOF 9
ENDMDL
MODEL 9
REMARK VINA RESULT:      -7.7      0.795      1.008
REMARK  Name = 
REMARK  12 active torsions:
REMARK  status: ('A' for Active; 'I' for Inactive)
REMARK    1  A    between atoms: C_1  and  C_2
REMARK    2  A    between atoms: C_2  and  C_3
REMARK    3  A    between atoms: C_3  and  N_4
REMARK    4  A    between atoms: N_4  and  C_5
REMARK    5  A    between atoms: C_6  and  C_8
REMARK    6  A    between atoms: C_8  and  N_9
REMARK    7  A    between atoms: C_11  and  C_12
REMARK    8  A    between atoms: C_21  and  C_22
REMARK    9  A    between atoms: C_22  and  O_24
REMARK   10  A    between atoms: C_25  and  C_26
REMARK   11  A    between atoms: C_29  and  O_30
REMARK   12  A    between atoms: O_30  and  C_31
REMARK                            x       y       z     vdW  Elec       q    Type
REMARK                         _______ _______ _______ _____ _____    ______ ____
ROOT
ATOM      1  N   UNL     1       5.229   3.687  17.926  0.00  0.00    +0.000 NA
ATOM      2  C   UNL     1       5.197   4.286  19.278  0.00  0.00    +0.000 C 
ATOM      3  C   UNL     1       5.324   5.808  19.082  0.00  0.00    +0.000 C 
ATOM      4  C   UNL     1       6.376   5.849  17.955  0.00  0.00    +0.000 C 
ATOM      5  C   UNL     1       6.327   4.451  17.284  0.00  0.00    +0.000 C 
ENDROOT
BRANCH   3   6
ATOM      6  C   UNL     1       4.009   6.574  18.876  0.00  0.00    +0.000 A 
ATOM      7  C   UNL     1       3.723   7.283  17.697  0.00  0.00    +0.000 A 
ATOM      8  C   UNL     1       2.619   8.149  17.595  0.00  0.00    +0.000 A 
ATOM      9  C   UNL     1       1.809   8.367  18.724  0.00  0.00    +0.000 A 
ATOM     10  C   UNL     1       0.735   9.253  19.026  0.00  0.00    +0.000 A 
ATOM     11  C   UNL     1       0.390   9.053  20.344  0.00  0.00    +0.000 A 
ATOM     12  N   UNL     1       1.165   8.035  20.830  0.00  0.00    +0.000 N 
ATOM     13  C   UNL     1       2.072   7.637  19.875  0.00  0.00    +0.000 A 
ATOM     14  C   UNL     1       3.129   6.725  19.969  0.00  0.00    +0.000 A 
ATOM     15  H   UNL     1       1.139   7.675  21.774  0.00  0.00    +0.000 HD
ENDBRANCH   3   6
BRANCH   5  16
ATOM     16  C   UNL     1       6.434   4.528  15.766  0.00  0.00    +0.000 A 
ATOM     17  C   UNL     1       5.758   3.580  14.983  0.00  0.00    +0.000 A 
ATOM     18  C   UNL     1       6.042   3.440  13.620  0.00  0.00    +0.000 A 
ATOM     19  C   UNL     1       6.978   4.265  12.997  0.00  0.00    +0.000 A 
ATOM     20  C   UNL     1       7.584   5.276  13.738  0.00  0.00    +0.000 A 
ATOM     21  C   UNL     1       7.316   5.405  15.110  0.00  0.00    +0.000 A 
BRANCH  19  22
ATOM     22  O   UNL     1       7.256   3.931  11.702  0.00  0.00    +0.000 OA
ATOM     23  C   UNL     1       7.050   2.583  11.310  0.00  0.00    +0.000 C 
ENDBRANCH  19  22
ENDBRANCH   5  16
BRANCH   4  24
ATOM     24  C   UNL     1       7.759   6.051  18.541  0.00  0.00    +0.000 C 
ATOM     25  O   UNL     1       8.421   5.178  19.099  0.00  0.00    +0.000 OA
BRANCH  24  26
ATOM     26  O   UNL     1       8.244   7.304  18.378  0.00  0.00    +0.000 OA
ATOM     27  H   UNL     1       8.701   7.678  19.155  0.00  0.00    +0.000 HD
ENDBRANCH  24  26
ENDBRANCH   4  24
BRANCH   1  28
ATOM     28  C   UNL     1       3.920   3.700  17.239  0.00  0.00    +0.000 C 
BRANCH  28  31
ATOM     29  N   UNL     1       1.568   3.297  18.077  0.00  0.00    +0.000 N 
ATOM     30  C   UNL     1       1.216   4.676  17.776  0.00  0.00    +0.000 C 
ATOM     31  C   UNL     1       2.853   2.773  17.896  0.00  0.00    +0.000 C 
ATOM     32  O   UNL     1       3.106   1.635  18.301  0.00  0.00    +0.000 OA
BRANCH  29  33
ATOM     33  C   UNL     1       0.574   2.470  18.765  0.00  0.00    +0.000 C 
BRANCH  33  35
ATOM     34  C   UNL     1       1.414   2.678  21.173  0.00  0.00    +0.000 C 
ATOM     35  C   UNL     1       0.268   2.908  20.202  0.00  0.00    +0.000 C 
ENDBRANCH  33  35
ENDBRANCH  29  33
ENDBRANCH  28  31
ENDBRANCH   1  28
TORSDOF 9
ENDMDL
