MODEL 1
REMARK VINA RESULT:      -7.5      0.000      0.000
REMARK  Name = 
REMARK  7 active torsions:
REMARK  status: ('A' for Active; 'I' for Inactive)
REMARK    1  A    between atoms: C_1  and  C_2
REMARK    2  A    between atoms: C_2  and  C_3
REMARK    3  A    between atoms: C_3  and  N_4
REMARK    4  A    between atoms: C_5  and  C_6
REMARK    5  A    between atoms: C_7  and  C_8
REMARK    6  A    between atoms: C_10  and  O_11
REMARK    7  A    between atoms: O_11  and  C_12
REMARK                            x       y       z     vdW  Elec       q    Type
REMARK                         _______ _______ _______ _____ _____    ______ ____
ROOT
ATOM      1  N   UNL     1       3.339   5.183  19.804  0.00  0.00    +0.000 N 
ATOM      2  C   UNL     1       2.907   6.418  19.238  0.00  0.00    +0.000 A 
ATOM      3  C   UNL     1       1.633   7.079  19.722  0.00  0.00    +0.000 C 
ATOM      4  C   UNL     1       3.581   6.951  18.191  0.00  0.00    +0.000 A 
ATOM      5  C   UNL     1       3.184   8.186  17.422  0.00  0.00    +0.000 C 
ATOM      6  C   UNL     1       4.827   6.344  17.762  0.00  0.00    +0.000 A 
ATOM      7  C   UNL     1       5.197   5.131  18.191  0.00  0.00    +0.000 A 
ATOM      8  C   UNL     1       4.208   4.361  19.033  0.00  0.00    +0.000 A 
ATOM      9  S   UNL     1       4.087   2.673  18.930  0.00  0.00    +0.000 S 
ENDROOT
BRANCH   1  10
ATOM     10  C   UNL     1       2.639   4.654  20.997  0.00  0.00    +0.000 C 
BRANCH  10  12
ATOM     11  C   UNL     1       1.319   2.550  21.614  0.00  0.00    +0.000 C 
ATOM     12  C   UNL     1       1.375   3.809  20.763  0.00  0.00    +0.000 C 
ENDBRANCH  10  12
ENDBRANCH   1  10
BRANCH   7  13
ATOM     13  O   UNL     1       6.374   4.552  17.737  0.00  0.00    +0.000 OA
BRANCH  13  14
ATOM     14  C   UNL     1       6.623   4.529  16.430  0.00  0.00    +0.000 A 
ATOM     15  N   UNL     1       7.478   5.251  15.736  0.00  0.00    +0.000 NA
ATOM     16  C   UNL     1       7.226   4.858  14.441  0.00  0.00    +0.000 A 
ATOM     17  C   UNL     1       7.788   5.271  13.224  0.00  0.00    +0.000 A 
ATOM     18  C   UNL     1       7.278   4.720  12.036  0.00  0.00    +0.000 A 
ATOM     19  C   UNL     1       6.255   3.764  12.061  0.00  0.00    +0.000 A 
ATOM     20  C   UNL     1       5.702   3.321  13.269  0.00  0.00    +0.000 A 
ATOM     21  C   UNL     1       6.213   3.911  14.419  0.00  0.00    +0.000 A 
ATOM     22  O   UNL     1       5.821   3.691  15.708  0.00  0.00    +0.000 OA
ENDBRANCH  13  14
ENDBRANCH   7  13
TORSDOF 4
ENDMDL
MODEL 2
REMARK VINA RESULT:      -7.3      0.817      1.361
REMARK  Name = 
REMARK  7 active torsions:
REMARK  status: ('A' for Active; 'I' for Inactive)
REMARK    1  A    between atoms: C_1  and  C_2
REMARK    2  A    between atoms: C_2  and  C_3
REMARK    3  A    between atoms: C_3  and  N_4
REMARK    4  A    between atoms: C_5  and  C_6
REMARK    5  A    between atoms: C_7  and  C_8
REMARK    6  A    between atoms: C_10  and  O_11
REMARK    7  A    between atoms: O_11  and  C_12
REMARK                            x       y       z     vdW  Elec       q    Type
REMARK                         _______ _______ _______ _____ _____    ______ ____
ROOT
ATOM      1  N   UNL     1       3.338   4.942  19.974  0.00  0.00    +0.000 N 
ATOM      2  C   UNL     1       2.791   6.184  19.537  0.00  0.00    +0.000 A 
ATOM      3  C   UNL     1       1.529   6.731  20.170  0.00  0.00    +0.000 C 
ATOM      4  C   UNL     1       3.342   6.828  18.480  0.00  0.00    +0.000 A 
ATOM      5  C   UNL     1       2.813   8.085  17.838  0.00  0.00    +0.000 C 
ATOM      6  C   UNL     1       4.578   6.329  17.908  0.00  0.00    +0.000 A 
ATOM      7  C   UNL     1       5.051   5.114  18.215  0.00  0.00    +0.000 A 
ATOM      8  C   UNL     1       4.181   4.229  19.076  0.00  0.00    +0.000 A 
ATOM      9  S   UNL     1       4.146   2.548  18.861  0.00  0.00    +0.000 S 
ENDROOT
BRANCH   1  10
ATOM     10  C   UNL     1       2.773   4.291  21.178  0.00  0.00    +0.000 C 
BRANCH  10  12
ATOM     11  C   UNL     1       0.696   3.292  20.066  0.00  0.00    +0.000 C 
ATOM     12  C   UNL     1       1.896   3.044  20.967  0.00  0.00    +0.000 C 
ENDBRANCH  10  12
ENDBRANCH   1  10
BRANCH   7  13
ATOM     13  O   UNL     1       6.215   4.640  17.625  0.00  0.00    +0.000 OA
BRANCH  13  14
ATOM     14  C   UNL     1       6.268   4.522  16.301  0.00  0.00    +0.000 A 
ATOM     15  N   UNL     1       5.596   3.707  15.514  0.00  0.00    +0.000 NA
ATOM     16  C   UNL     1       6.132   3.973  14.274  0.00  0.00    +0.000 A 
ATOM     17  C   UNL     1       5.862   3.420  13.014  0.00  0.00    +0.000 A 
ATOM     18  C   UNL     1       6.624   3.862  11.918  0.00  0.00    +0.000 A 
ATOM     19  C   UNL     1       7.609   4.846  12.069  0.00  0.00    +0.000 A 
ATOM     20  C   UNL     1       7.871   5.428  13.316  0.00  0.00    +0.000 A 
ATOM     21  C   UNL     1       7.118   4.943  14.379  0.00  0.00    +0.000 A 
ATOM     22  O   UNL     1       7.206   5.306  15.692  0.00  0.00    +0.000 OA
ENDBRANCH  13  14
ENDBRANCH   7  13
TORSDOF 4
ENDMDL
MODEL 3
REMARK VINA RESULT:      -7.1      4.717      7.020
REMARK  Name = 
REMARK  7 active torsions:
REMARK  status: ('A' for Active; 'I' for Inactive)
REMARK    1  A    between atoms: C_1  and  C_2
REMARK    2  A    between atoms: C_2  and  C_3
REMARK    3  A    between atoms: C_3  and  N_4
REMARK    4  A    between atoms: C_5  and  C_6
REMARK    5  A    between atoms: C_7  and  C_8
REMARK    6  A    between atoms: C_10  and  O_11
REMARK    7  A    between atoms: O_11  and  C_12
REMARK                            x       y       z     vdW  Elec       q    Type
REMARK                         _______ _______ _______ _____ _____    ______ ____
ROOT
ATOM      1  N   UNL     1      -0.280  10.167  19.448  0.00  0.00    +0.000 N 
ATOM      2  C   UNL     1      -0.691  10.370  20.798  0.00  0.00    +0.000 A 
ATOM      3  C   UNL     1      -1.780  11.370  21.126  0.00  0.00    +0.000 C 
ATOM      4  C   UNL     1      -0.034   9.742  21.803  0.00  0.00    +0.000 A 
ATOM      5  C   UNL     1      -0.282   9.939  23.278  0.00  0.00    +0.000 C 
ATOM      6  C   UNL     1       0.973   8.748  21.485  0.00  0.00    +0.000 A 
ATOM      7  C   UNL     1       1.460   8.619  20.244  0.00  0.00    +0.000 A 
ATOM      8  C   UNL     1       1.020   9.635  19.217  0.00  0.00    +0.000 A 
ATOM      9  S   UNL     1       2.068  10.165  17.995  0.00  0.00    +0.000 S 
ENDROOT
BRANCH   1  10
ATOM     10  C   UNL     1      -1.056  10.799  18.357  0.00  0.00    +0.000 C 
BRANCH  10  12
ATOM     11  C   UNL     1      -3.149   9.719  17.355  0.00  0.00    +0.000 C 
ATOM     12  C   UNL     1      -1.639   9.876  17.272  0.00  0.00    +0.000 C 
ENDBRANCH  10  12
ENDBRANCH   1  10
BRANCH   7  13
ATOM     13  O   UNL     1       2.453   7.688  19.970  0.00  0.00    +0.000 OA
BRANCH  13  14
ATOM     14  C   UNL     1       2.111   6.418  19.772  0.00  0.00    +0.000 A 
ATOM     15  N   UNL     1       1.547   5.572  20.610  0.00  0.00    +0.000 NA
ATOM     16  C   UNL     1       1.525   4.400  19.887  0.00  0.00    +0.000 A 
ATOM     17  C   UNL     1       1.070   3.116  20.223  0.00  0.00    +0.000 A 
ATOM     18  C   UNL     1       1.232   2.086  19.280  0.00  0.00    +0.000 A 
ATOM     19  C   UNL     1       1.808   2.334  18.027  0.00  0.00    +0.000 A 
ATOM     20  C   UNL     1       2.241   3.616  17.666  0.00  0.00    +0.000 A 
ATOM     21  C   UNL     1       2.090   4.601  18.636  0.00  0.00    +0.000 A 
ATOM     22  O   UNL     1       2.468   5.910  18.556  0.00  0.00    +0.000 OA
ENDBRANCH  13  14
ENDBRANCH   7  13
TORSDOF 4
ENDMDL
MODEL 4
REMARK VINA RESULT:      -7.0      3.841      8.141
REMARK  Name = 
REMARK  7 active torsions:
REMARK  status: ('A' for Active; 'I' for Inactive)
REMARK    1  A    between atoms: C_1  and  C_2
REMARK    2  A    between atoms: C_2  and  C_3
REMARK    3  A    between atoms: C_3  and  N_4
REMARK    4  A    between atoms: C_5  and  C_6
REMARK    5  A    between atoms: C_7  and  C_8
REMARK    6  A    between atoms: C_10  and  O_11
REMARK    7  A    between atoms: O_11  and  C_12
REMARK                            x       y       z     vdW  Elec       q    Type
REMARK                         _______ _______ _______ _____ _____    ______ ____
ROOT
ATOM      1  N   UNL     1       4.551   4.999  19.008  0.00  0.00    +0.000 N 
ATOM      2  C   UNL     1       3.709   4.043  19.647  0.00  0.00    +0.000 A 
ATOM      3  C   UNL     1       4.199   2.632  19.891  0.00  0.00    +0.000 C 
ATOM      4  C   UNL     1       2.427   4.367  19.945  0.00  0.00    +0.000 A 
ATOM      5  C   UNL     1       1.391   3.434  20.519  0.00  0.00    +0.000 C 
ATOM      6  C   UNL     1       1.975   5.732  19.757  0.00  0.00    +0.000 A 
ATOM      7  C   UNL     1       2.697   6.618  19.057  0.00  0.00    +0.000 A 
ATOM      8  C   UNL     1       3.934   6.106  18.359  0.00  0.00    +0.000 A 
ATOM      9  S   UNL     1       4.428   6.736  16.865  0.00  0.00    +0.000 S 
ENDROOT
BRANCH   1  10
ATOM     10  C   UNL     1       5.970   4.657  18.760  0.00  0.00    +0.000 C 
BRANCH  10  12
ATOM     11  C   UNL     1       7.730   6.497  18.508  0.00  0.00    +0.000 C 
ATOM     12  C   UNL     1       7.041   5.521  19.448  0.00  0.00    +0.000 C 
ENDBRANCH  10  12
ENDBRANCH   1  10
BRANCH   7  13
ATOM     13  O   UNL     1       2.227   7.908  18.855  0.00  0.00    +0.000 OA
BRANCH  13  14
ATOM     14  C   UNL     1       1.600   8.532  19.850  0.00  0.00    +0.000 A 
ATOM     15  N   UNL     1       1.491   8.174  21.113  0.00  0.00    +0.000 NA
ATOM     16  C   UNL     1       0.665   9.146  21.632  0.00  0.00    +0.000 A 
ATOM     17  C   UNL     1       0.146   9.325  22.923  0.00  0.00    +0.000 A 
ATOM     18  C   UNL     1      -0.732  10.401  23.143  0.00  0.00    +0.000 A 
ATOM     19  C   UNL     1      -1.063  11.289  22.111  0.00  0.00    +0.000 A 
ATOM     20  C   UNL     1      -0.532  11.140  20.824  0.00  0.00    +0.000 A 
ATOM     21  C   UNL     1       0.309  10.048  20.640  0.00  0.00    +0.000 A 
ATOM     22  O   UNL     1       0.917   9.656  19.483  0.00  0.00    +0.000 OA
ENDBRANCH  13  14
ENDBRANCH   7  13
TORSDOF 4
ENDMDL
MODEL 5
REMARK VINA RESULT:      -7.0      2.407      6.952
REMARK  Name = 
REMARK  7 active torsions:
REMARK  status: ('A' for Active; 'I' for Inactive)
REMARK    1  A    between atoms: C_1  and  C_2
REMARK    2  A    between atoms: C_2  and  C_3
REMARK    3  A    between atoms: C_3  and  N_4
REMARK    4  A    between atoms: C_5  and  C_6
REMARK    5  A    between atoms: C_7  and  C_8
REMARK    6  A    between atoms: C_10  and  O_11
REMARK    7  A    between atoms: O_11  and  C_12
REMARK                            x       y       z     vdW  Elec       q    Type
REMARK                         _______ _______ _______ _____ _____    ______ ____
ROOT
ATOM      1  N   UNL     1       5.282   4.151  17.047  0.00  0.00    +0.000 N 
ATOM      2  C   UNL     1       6.457   4.668  17.666  0.00  0.00    +0.000 A 
ATOM      3  C   UNL     1       7.820   4.416  17.056  0.00  0.00    +0.000 C 
ATOM      4  C   UNL     1       6.366   5.299  18.862  0.00  0.00    +0.000 A 
ATOM      5  C   UNL     1       7.525   5.800  19.686  0.00  0.00    +0.000 C 
ATOM      6  C   UNL     1       5.058   5.582  19.420  0.00  0.00    +0.000 A 
ATOM      7  C   UNL     1       3.950   5.015  18.927  0.00  0.00    +0.000 A 
ATOM      8  C   UNL     1       4.126   3.965  17.856  0.00  0.00    +0.000 A 
ATOM      9  S   UNL     1       3.089   2.628  17.752  0.00  0.00    +0.000 S 
ENDROOT
BRANCH   1  10
ATOM     10  C   UNL     1       5.388   3.533  15.705  0.00  0.00    +0.000 C 
BRANCH  10  12
ATOM     11  C   UNL     1       5.989   3.795  13.231  0.00  0.00    +0.000 C 
ATOM     12  C   UNL     1       5.482   4.477  14.493  0.00  0.00    +0.000 C 
ENDBRANCH  10  12
ENDBRANCH   1  10
BRANCH   7  13
ATOM     13  O   UNL     1       2.712   5.270  19.502  0.00  0.00    +0.000 OA
BRANCH  13  14
ATOM     14  C   UNL     1       2.301   6.529  19.622  0.00  0.00    +0.000 A 
ATOM     15  N   UNL     1       1.759   7.128  20.663  0.00  0.00    +0.000 NA
ATOM     16  C   UNL     1       1.463   8.380  20.172  0.00  0.00    +0.000 A 
ATOM     17  C   UNL     1       0.850   9.488  20.776  0.00  0.00    +0.000 A 
ATOM     18  C   UNL     1       0.628  10.633  19.992  0.00  0.00    +0.000 A 
ATOM     19  C   UNL     1       1.027  10.682  18.650  0.00  0.00    +0.000 A 
ATOM     20  C   UNL     1       1.665   9.594  18.040  0.00  0.00    +0.000 A 
ATOM     21  C   UNL     1       1.841   8.471  18.841  0.00  0.00    +0.000 A 
ATOM     22  O   UNL     1       2.390   7.274  18.481  0.00  0.00    +0.000 OA
ENDBRANCH  13  14
ENDBRANCH   7  13
TORSDOF 4
ENDMDL
MODEL 6
REMARK VINA RESULT:      -6.9      3.782      7.632
REMARK  Name = 
REMARK  7 active torsions:
REMARK  status: ('A' for Active; 'I' for Inactive)
REMARK    1  A    between atoms: C_1  and  C_2
REMARK    2  A    between atoms: C_2  and  C_3
REMARK    3  A    between atoms: C_3  and  N_4
REMARK    4  A    between atoms: C_5  and  C_6
REMARK    5  A    between atoms: C_7  and  C_8
REMARK    6  A    between atoms: C_10  and  O_11
REMARK    7  A    between atoms: O_11  and  C_12
REMARK                            x       y       z     vdW  Elec       q    Type
REMARK                         _______ _______ _______ _____ _____    ______ ____
ROOT
ATOM      1  N   UNL     1       4.644   4.930  18.285  0.00  0.00    +0.000 N 
ATOM      2  C   UNL     1       3.646   3.947  18.547  0.00  0.00    +0.000 A 
ATOM      3  C   UNL     1       4.035   2.502  18.778  0.00  0.00    +0.000 C 
ATOM      4  C   UNL     1       2.335   4.285  18.487  0.00  0.00    +0.000 A 
ATOM      5  C   UNL     1       1.171   3.337  18.632  0.00  0.00    +0.000 C 
ATOM      6  C   UNL     1       1.965   5.676  18.315  0.00  0.00    +0.000 A 
ATOM      7  C   UNL     1       2.865   6.600  17.953  0.00  0.00    +0.000 A 
ATOM      8  C   UNL     1       4.252   6.115  17.600  0.00  0.00    +0.000 A 
ATOM      9  S   UNL     1       5.168   6.869  16.390  0.00  0.00    +0.000 S 
ENDROOT
BRANCH   1  10
ATOM     10  C   UNL     1       6.071   4.565  18.430  0.00  0.00    +0.000 C 
BRANCH  10  12
ATOM     11  C   UNL     1       7.918   6.303  18.772  0.00  0.00    +0.000 C 
ATOM     12  C   UNL     1       6.913   5.372  19.433  0.00  0.00    +0.000 C 
ENDBRANCH  10  12
ENDBRANCH   1  10
BRANCH   7  13
ATOM     13  O   UNL     1       2.482   7.919  17.756  0.00  0.00    +0.000 OA
BRANCH  13  14
ATOM     14  C   UNL     1       1.735   8.521  18.678  0.00  0.00    +0.000 A 
ATOM     15  N   UNL     1       0.894   9.525  18.537  0.00  0.00    +0.000 NA
ATOM     16  C   UNL     1       0.495   9.770  19.831  0.00  0.00    +0.000 A 
ATOM     17  C   UNL     1      -0.378  10.731  20.362  0.00  0.00    +0.000 A 
ATOM     18  C   UNL     1      -0.549  10.774  21.757  0.00  0.00    +0.000 A 
ATOM     19  C   UNL     1       0.110   9.867  22.597  0.00  0.00    +0.000 A 
ATOM     20  C   UNL     1       0.964   8.885  22.080  0.00  0.00    +0.000 A 
ATOM     21  C   UNL     1       1.129   8.893  20.699  0.00  0.00    +0.000 A 
ATOM     22  O   UNL     1       1.932   8.078  19.955  0.00  0.00    +0.000 OA
ENDBRANCH  13  14
ENDBRANCH   7  13
TORSDOF 4
ENDMDL
MODEL 7
REMARK VINA RESULT:      -6.9      2.536      7.004
REMARK  Name = 
REMARK  7 active torsions:
REMARK  status: ('A' for Active; 'I' for Inactive)
REMARK    1  A    between atoms: C_1  and  C_2
REMARK    2  A    between atoms: C_2  and  C_3
REMARK    3  A    between atoms: C_3  and  N_4
REMARK    4  A    between atoms: C_5  and  C_6
REMARK    5  A    between atoms: C_7  and  C_8
REMARK    6  A    between atoms: C_10  and  O_11
REMARK    7  A    between atoms: O_11  and  C_12
REMARK                            x       y       z     vdW  Elec       q    Type
REMARK                         _______ _______ _______ _____ _____    ______ ____
ROOT
ATOM      1  N   UNL     1       5.274   4.210  17.018  0.00  0.00    +0.000 N 
ATOM      2  C   UNL     1       6.487   4.672  17.609  0.00  0.00    +0.000 A 
ATOM      3  C   UNL     1       7.821   4.353  16.969  0.00  0.00    +0.000 C 
ATOM      4  C   UNL     1       6.453   5.309  18.804  0.00  0.00    +0.000 A 
ATOM      5  C   UNL     1       7.653   5.756  19.600  0.00  0.00    +0.000 C 
ATOM      6  C   UNL     1       5.173   5.658  19.390  0.00  0.00    +0.000 A 
ATOM      7  C   UNL     1       4.028   5.143  18.925  0.00  0.00    +0.000 A 
ATOM      8  C   UNL     1       4.128   4.083  17.853  0.00  0.00    +0.000 A 
ATOM      9  S   UNL     1       3.027   2.798  17.778  0.00  0.00    +0.000 S 
ENDROOT
BRANCH   1  10
ATOM     10  C   UNL     1       5.319   3.585  15.676  0.00  0.00    +0.000 C 
BRANCH  10  12
ATOM     11  C   UNL     1       6.351   3.921  13.358  0.00  0.00    +0.000 C 
ATOM     12  C   UNL     1       5.490   4.515  14.463  0.00  0.00    +0.000 C 
ENDBRANCH  10  12
ENDBRANCH   1  10
BRANCH   7  13
ATOM     13  O   UNL     1       2.817   5.459  19.525  0.00  0.00    +0.000 OA
BRANCH  13  14
ATOM     14  C   UNL     1       2.323   6.686  19.381  0.00  0.00    +0.000 A 
ATOM     15  N   UNL     1       2.374   7.481  18.332  0.00  0.00    +0.000 NA
ATOM     16  C   UNL     1       1.786   8.635  18.798  0.00  0.00    +0.000 A 
ATOM     17  C   UNL     1       1.554   9.871  18.175  0.00  0.00    +0.000 A 
ATOM     18  C   UNL     1       0.973  10.899  18.936  0.00  0.00    +0.000 A 
ATOM     19  C   UNL     1       0.608  10.695  20.273  0.00  0.00    +0.000 A 
ATOM     20  C   UNL     1       0.808   9.460  20.901  0.00  0.00    +0.000 A 
ATOM     21  C   UNL     1       1.411   8.477  20.124  0.00  0.00    +0.000 A 
ATOM     22  O   UNL     1       1.754   7.212  20.505  0.00  0.00    +0.000 OA
ENDBRANCH  13  14
ENDBRANCH   7  13
TORSDOF 4
ENDMDL
MODEL 8
REMARK VINA RESULT:      -6.7      1.600      3.249
REMARK  Name = 
REMARK  7 active torsions:
REMARK  status: ('A' for Active; 'I' for Inactive)
REMARK    1  A    between atoms: C_1  and  C_2
REMARK    2  A    between atoms: C_2  and  C_3
REMARK    3  A    between atoms: C_3  and  N_4
REMARK    4  A    between atoms: C_5  and  C_6
REMARK    5  A    between atoms: C_7  and  C_8
REMARK    6  A    between atoms: C_10  and  O_11
REMARK    7  A    between atoms: O_11  and  C_12
REMARK                            x       y       z     vdW  Elec       q    Type
REMARK                         _______ _______ _______ _____ _____    ______ ____
ROOT
ATOM      1  N   UNL     1       3.166   5.610  18.423  0.00  0.00    +0.000 N 
ATOM      2  C   UNL     1       2.780   4.674  19.427  0.00  0.00    +0.000 A 
ATOM      3  C   UNL     1       1.477   4.850  20.179  0.00  0.00    +0.000 C 
ATOM      4  C   UNL     1       3.629   3.680  19.783  0.00  0.00    +0.000 A 
ATOM      5  C   UNL     1       3.408   2.686  20.895  0.00  0.00    +0.000 C 
ATOM      6  C   UNL     1       4.852   3.483  19.029  0.00  0.00    +0.000 A 
ATOM      7  C   UNL     1       5.297   4.405  18.165  0.00  0.00    +0.000 A 
ATOM      8  C   UNL     1       4.549   5.716  18.104  0.00  0.00    +0.000 A 
ATOM      9  S   UNL     1       5.355   7.178  17.811  0.00  0.00    +0.000 S 
ENDROOT
BRANCH   1  10
ATOM     10  C   UNL     1       2.197   6.642  17.990  0.00  0.00    +0.000 C 
BRANCH  10  12
ATOM     11  C   UNL     1       1.976   9.187  17.836  0.00  0.00    +0.000 C 
ATOM     12  C   UNL     1       2.206   7.986  18.740  0.00  0.00    +0.000 C 
ENDBRANCH  10  12
ENDBRANCH   1  10
BRANCH   7  13
ATOM     13  O   UNL     1       6.491   4.214  17.483  0.00  0.00    +0.000 OA
BRANCH  13  14
ATOM     14  C   UNL     1       6.483   4.215  16.153  0.00  0.00    +0.000 A 
ATOM     15  N   UNL     1       5.783   3.463  15.328  0.00  0.00    +0.000 NA
ATOM     16  C   UNL     1       6.258   3.845  14.093  0.00  0.00    +0.000 A 
ATOM     17  C   UNL     1       5.935   3.403  12.802  0.00  0.00    +0.000 A 
ATOM     18  C   UNL     1       6.639   3.951  11.716  0.00  0.00    +0.000 A 
ATOM     19  C   UNL     1       7.621   4.931  11.910  0.00  0.00    +0.000 A 
ATOM     20  C   UNL     1       7.936   5.403  13.190  0.00  0.00    +0.000 A 
ATOM     21  C   UNL     1       7.238   4.817  14.239  0.00  0.00    +0.000 A 
ATOM     22  O   UNL     1       7.384   5.063  15.574  0.00  0.00    +0.000 OA
ENDBRANCH  13  14
ENDBRANCH   7  13
TORSDOF 4
ENDMDL
MODEL 9
REMARK VINA RESULT:      -6.7      5.032      7.180
REMARK  Name = 
REMARK  7 active torsions:
REMARK  status: ('A' for Active; 'I' for Inactive)
REMARK    1  A    between atoms: C_1  and  C_2
REMARK    2  A    between atoms: C_2  and  C_3
REMARK    3  A    between atoms: C_3  and  N_4
REMARK    4  A    between atoms: C_5  and  C_6
REMARK    5  A    between atoms: C_7  and  C_8
REMARK    6  A    between atoms: C_10  and  O_11
REMARK    7  A    between atoms: O_11  and  C_12
REMARK                            x       y       z     vdW  Elec       q    Type
REMARK                         _______ _______ _______ _____ _____    ______ ____
ROOT
ATOM      1  N   UNL     1      -0.264  10.171  19.282  0.00  0.00    +0.000 N 
ATOM      2  C   UNL     1      -0.757  10.402  20.599  0.00  0.00    +0.000 A 
ATOM      3  C   UNL     1      -1.907  11.360  20.831  0.00  0.00    +0.000 C 
ATOM      4  C   UNL     1      -0.128   9.843  21.661  0.00  0.00    +0.000 A 
ATOM      5  C   UNL     1      -0.464  10.081  23.111  0.00  0.00    +0.000 C 
ATOM      6  C   UNL     1       0.939   8.888  21.435  0.00  0.00    +0.000 A 
ATOM      7  C   UNL     1       1.499   8.738  20.227  0.00  0.00    +0.000 A 
ATOM      8  C   UNL     1       1.069   9.694  19.140  0.00  0.00    +0.000 A 
ATOM      9  S   UNL     1       2.157  10.229  17.955  0.00  0.00    +0.000 S 
ENDROOT
BRANCH   1  10
ATOM     10  C   UNL     1      -1.008  10.726  18.127  0.00  0.00    +0.000 C 
BRANCH  10  12
ATOM     11  C   UNL     1      -3.391  10.310  17.294  0.00  0.00    +0.000 C 
ATOM     12  C   UNL     1      -1.967   9.783  17.380  0.00  0.00    +0.000 C 
ENDBRANCH  10  12
ENDBRANCH   1  10
BRANCH   7  13
ATOM     13  O   UNL     1       2.547   7.846  20.042  0.00  0.00    +0.000 OA
BRANCH  13  14
ATOM     14  C   UNL     1       2.274   6.588  19.707  0.00  0.00    +0.000 A 
ATOM     15  N   UNL     1       2.266   6.031  18.513  0.00  0.00    +0.000 NA
ATOM     16  C   UNL     1       1.826   4.753  18.778  0.00  0.00    +0.000 A 
ATOM     17  C   UNL     1       1.580   3.666  17.927  0.00  0.00    +0.000 A 
ATOM     18  C   UNL     1       1.074   2.482  18.491  0.00  0.00    +0.000 A 
ATOM     19  C   UNL     1       0.843   2.376  19.869  0.00  0.00    +0.000 A 
ATOM     20  C   UNL     1       1.110   3.443  20.736  0.00  0.00    +0.000 A 
ATOM     21  C   UNL     1       1.583   4.605  20.136  0.00  0.00    +0.000 A 
ATOM     22  O   UNL     1       1.876   5.792  20.743  0.00  0.00    +0.000 OA
ENDBRANCH  13  14
ENDBRANCH   7  13
TORSDOF 4
ENDMDL
