MODEL 1
REMARK VINA RESULT:      -8.2      0.000      0.000
REMARK  Name = 
REMARK  6 active torsions:
REMARK  status: ('A' for Active; 'I' for Inactive)
REMARK    1  A    between atoms: O_1  and  C_2
REMARK    2  A    between atoms: C_5  and  S_6
REMARK    3  A    between atoms: S_6  and  C_7
REMARK    4  A    between atoms: N_13  and  C_14
REMARK    5  A    between atoms: C_17  and  O_18
REMARK    6  A    between atoms: O_18  and  C_19
REMARK                            x       y       z     vdW  Elec       q    Type
REMARK                         _______ _______ _______ _____ _____    ______ ____
ROOT
ATOM      1  C   UNL     1       5.298   6.860  17.293  0.00  0.00    +0.000 A 
ATOM      2  N   UNL     1       6.017   7.822  17.849  0.00  0.00    +0.000 NA
ATOM      3  C   UNL     1       7.276   7.816  17.442  0.00  0.00    +0.000 A 
ATOM      4 CL   UNL     1       8.275   9.028  18.106  0.00  0.00    +0.000 Cl
ATOM      5  N   UNL     1       7.860   6.986  16.589  0.00  0.00    +0.000 NA
ATOM      6  C   UNL     1       7.040   6.087  16.071  0.00  0.00    +0.000 A 
ATOM      7  N   UNL     1       7.576   5.175  15.168  0.00  0.00    +0.000 N 
ATOM      8  N   UNL     1       5.752   5.992  16.396  0.00  0.00    +0.000 NA
ATOM      9  H   UNL     1       8.575   5.276  15.058  0.00  0.00    +0.000 HD
ENDROOT
BRANCH   7  10
ATOM     10  C   UNL     1       6.909   4.522  14.115  0.00  0.00    +0.000 A 
ATOM     11  C   UNL     1       7.434   4.473  12.818  0.00  0.00    +0.000 A 
ATOM     12  C   UNL     1       6.734   3.873  11.767  0.00  0.00    +0.000 A 
ATOM     13  C   UNL     1       5.496   3.285  12.003  0.00  0.00    +0.000 A 
ATOM     14  C   UNL     1       4.950   3.351  13.288  0.00  0.00    +0.000 A 
ATOM     15  C   UNL     1       5.655   3.948  14.339  0.00  0.00    +0.000 A 
BRANCH  13  16
ATOM     16  O   UNL     1       4.712   2.655  11.087  0.00  0.00    +0.000 OA
BRANCH  16  17
ATOM     17  C   UNL     1       3.501   3.264  10.666  0.00  0.00    +0.000 C 
ATOM     18  F   UNL     1       3.537   4.613  10.676  0.00  0.00    +0.000 F 
ATOM     19  F   UNL     1       3.253   2.874   9.395  0.00  0.00    +0.000 F 
ATOM     20  F   UNL     1       2.481   2.843  11.442  0.00  0.00    +0.000 F 
ENDBRANCH  16  17
ENDBRANCH  13  16
ENDBRANCH   7  10
BRANCH   1  21
ATOM     21  S   UNL     1       3.646   6.599  17.892  0.00  0.00    +0.000 S 
BRANCH  21  25
ATOM     22  C   UNL     1       3.715   2.059  18.418  0.00  0.00    +0.000 A 
ATOM     23  C   UNL     1       2.916   2.627  17.432  0.00  0.00    +0.000 A 
ATOM     24  C   UNL     1       2.870   4.019  17.305  0.00  0.00    +0.000 A 
ATOM     25  C   UNL     1       3.617   4.840  18.161  0.00  0.00    +0.000 A 
ATOM     26  C   UNL     1       4.411   4.249  19.151  0.00  0.00    +0.000 A 
ATOM     27  C   UNL     1       4.455   2.859  19.282  0.00  0.00    +0.000 A 
BRANCH  22  28
ATOM     28  O   UNL     1       3.812   0.708  18.565  0.00  0.00    +0.000 OA
ATOM     29  H   UNL     1       4.033   0.507  19.489  0.00  0.00    +0.000 HD
ENDBRANCH  22  28
ENDBRANCH  21  25
ENDBRANCH   1  21
TORSDOF 6
ENDMDL
MODEL 2
REMARK VINA RESULT:      -8.1      0.149      1.182
REMARK  Name = 
REMARK  6 active torsions:
REMARK  status: ('A' for Active; 'I' for Inactive)
REMARK    1  A    between atoms: O_1  and  C_2
REMARK    2  A    between atoms: C_5  and  S_6
REMARK    3  A    between atoms: S_6  and  C_7
REMARK    4  A    between atoms: N_13  and  C_14
REMARK    5  A    between atoms: C_17  and  O_18
REMARK    6  A    between atoms: O_18  and  C_19
REMARK                            x       y       z     vdW  Elec       q    Type
REMARK                         _______ _______ _______ _____ _____    ______ ____
ROOT
ATOM      1  C   UNL     1       5.301   6.764  17.333  0.00  0.00    +0.000 A 
ATOM      2  N   UNL     1       6.004   7.737  17.891  0.00  0.00    +0.000 NA
ATOM      3  C   UNL     1       7.255   7.770  17.464  0.00  0.00    +0.000 A 
ATOM      4 CL   UNL     1       8.234   8.998  18.128  0.00  0.00    +0.000 Cl
ATOM      5  N   UNL     1       7.847   6.967  16.589  0.00  0.00    +0.000 NA
ATOM      6  C   UNL     1       7.041   6.054  16.071  0.00  0.00    +0.000 A 
ATOM      7  N   UNL     1       7.586   5.170  15.146  0.00  0.00    +0.000 N 
ATOM      8  N   UNL     1       5.762   5.921  16.417  0.00  0.00    +0.000 NA
ATOM      9  H   UNL     1       8.580   5.299  15.021  0.00  0.00    +0.000 HD
ENDROOT
BRANCH   7  10
ATOM     10  C   UNL     1       6.917   4.514  14.095  0.00  0.00    +0.000 A 
ATOM     11  C   UNL     1       7.437   4.473  12.795  0.00  0.00    +0.000 A 
ATOM     12  C   UNL     1       6.735   3.869  11.746  0.00  0.00    +0.000 A 
ATOM     13  C   UNL     1       5.503   3.272  11.987  0.00  0.00    +0.000 A 
ATOM     14  C   UNL     1       4.963   3.332  13.275  0.00  0.00    +0.000 A 
ATOM     15  C   UNL     1       5.669   3.930  14.324  0.00  0.00    +0.000 A 
BRANCH  13  16
ATOM     16  O   UNL     1       4.719   2.639  11.074  0.00  0.00    +0.000 OA
BRANCH  16  17
ATOM     17  C   UNL     1       3.522   3.259  10.629  0.00  0.00    +0.000 C 
ATOM     18  F   UNL     1       3.215   2.992   9.343  0.00  0.00    +0.000 F 
ATOM     19  F   UNL     1       2.503   2.805  11.393  0.00  0.00    +0.000 F 
ATOM     20  F   UNL     1       3.609   4.596  10.794  0.00  0.00    +0.000 F 
ENDBRANCH  16  17
ENDBRANCH  13  16
ENDBRANCH   7  10
BRANCH   1  21
ATOM     21  S   UNL     1       3.667   6.452  17.955  0.00  0.00    +0.000 S 
BRANCH  21  25
ATOM     22  C   UNL     1       3.515   1.925  18.572  0.00  0.00    +0.000 A 
ATOM     23  C   UNL     1       4.357   2.701  19.362  0.00  0.00    +0.000 A 
ATOM     24  C   UNL     1       4.428   4.080  19.139  0.00  0.00    +0.000 A 
ATOM     25  C   UNL     1       3.662   4.681  18.129  0.00  0.00    +0.000 A 
ATOM     26  C   UNL     1       2.825   3.881  17.343  0.00  0.00    +0.000 A 
ATOM     27  C   UNL     1       2.757   2.503  17.561  0.00  0.00    +0.000 A 
BRANCH  22  28
ATOM     28  O   UNL     1       3.394   0.582  18.768  0.00  0.00    +0.000 OA
ATOM     29  H   UNL     1       3.982   0.120  18.148  0.00  0.00    +0.000 HD
ENDBRANCH  22  28
ENDBRANCH  21  25
ENDBRANCH   1  21
TORSDOF 6
ENDMDL
MODEL 3
REMARK VINA RESULT:      -7.9      5.934      7.885
REMARK  Name = 
REMARK  6 active torsions:
REMARK  status: ('A' for Active; 'I' for Inactive)
REMARK    1  A    between atoms: O_1  and  C_2
REMARK    2  A    between atoms: C_5  and  S_6
REMARK    3  A    between atoms: S_6  and  C_7
REMARK    4  A    between atoms: N_13  and  C_14
REMARK    5  A    between atoms: C_17  and  O_18
REMARK    6  A    between atoms: O_18  and  C_19
REMARK                            x       y       z     vdW  Elec       q    Type
REMARK                         _______ _______ _______ _____ _____    ______ ____
ROOT
ATOM      1  C   UNL     1       4.163   4.004  16.961  0.00  0.00    +0.000 A 
ATOM      2  N   UNL     1       5.324   3.941  16.329  0.00  0.00    +0.000 NA
ATOM      3  C   UNL     1       5.840   5.137  16.094  0.00  0.00    +0.000 A 
ATOM      4 CL   UNL     1       7.342   5.152  15.287  0.00  0.00    +0.000 Cl
ATOM      5  N   UNL     1       5.336   6.325  16.402  0.00  0.00    +0.000 NA
ATOM      6  C   UNL     1       4.191   6.265  17.061  0.00  0.00    +0.000 A 
ATOM      7  N   UNL     1       3.594   7.470  17.419  0.00  0.00    +0.000 N 
ATOM      8  N   UNL     1       3.573   5.125  17.360  0.00  0.00    +0.000 NA
ATOM      9  H   UNL     1       4.096   8.274  17.069  0.00  0.00    +0.000 HD
ENDROOT
BRANCH   7  10
ATOM     10  C   UNL     1       2.745   7.709  18.515  0.00  0.00    +0.000 A 
ATOM     11  C   UNL     1       2.601   6.787  19.560  0.00  0.00    +0.000 A 
ATOM     12  C   UNL     1       1.709   7.010  20.614  0.00  0.00    +0.000 A 
ATOM     13  C   UNL     1       0.958   8.179  20.654  0.00  0.00    +0.000 A 
ATOM     14  C   UNL     1       1.075   9.094  19.603  0.00  0.00    +0.000 A 
ATOM     15  C   UNL     1       1.971   8.872  18.552  0.00  0.00    +0.000 A 
BRANCH  13  16
ATOM     16  O   UNL     1       0.068   8.537  21.618  0.00  0.00    +0.000 OA
BRANCH  16  17
ATOM     17  C   UNL     1       0.470   9.435  22.642  0.00  0.00    +0.000 C 
ATOM     18  F   UNL     1      -0.148   9.226  23.824  0.00  0.00    +0.000 F 
ATOM     19  F   UNL     1       1.798   9.276  22.845  0.00  0.00    +0.000 F 
ATOM     20  F   UNL     1       0.252  10.707  22.248  0.00  0.00    +0.000 F 
ENDBRANCH  16  17
ENDBRANCH  13  16
ENDBRANCH   7  10
BRANCH   1  21
ATOM     21  S   UNL     1       3.240   2.500  17.161  0.00  0.00    +0.000 S 
BRANCH  21  25
ATOM     22  C   UNL     1       1.524   2.722  21.393  0.00  0.00    +0.000 A 
ATOM     23  C   UNL     1       0.684   2.895  20.297  0.00  0.00    +0.000 A 
ATOM     24  C   UNL     1       1.225   2.866  19.007  0.00  0.00    +0.000 A 
ATOM     25  C   UNL     1       2.599   2.668  18.813  0.00  0.00    +0.000 A 
ATOM     26  C   UNL     1       3.428   2.500  19.928  0.00  0.00    +0.000 A 
ATOM     27  C   UNL     1       2.890   2.533  21.217  0.00  0.00    +0.000 A 
BRANCH  22  28
ATOM     28  O   UNL     1       1.041   2.717  22.666  0.00  0.00    +0.000 OA
ATOM     29  H   UNL     1       0.709   1.828  22.873  0.00  0.00    +0.000 HD
ENDBRANCH  22  28
ENDBRANCH  21  25
ENDBRANCH   1  21
TORSDOF 6
ENDMDL
MODEL 4
REMARK VINA RESULT:      -7.9      0.173      1.202
REMARK  Name = 
REMARK  6 active torsions:
REMARK  status: ('A' for Active; 'I' for Inactive)
REMARK    1  A    between atoms: O_1  and  C_2
REMARK    2  A    between atoms: C_5  and  S_6
REMARK    3  A    between atoms: S_6  and  C_7
REMARK    4  A    between atoms: N_13  and  C_14
REMARK    5  A    between atoms: C_17  and  O_18
REMARK    6  A    between atoms: O_18  and  C_19
REMARK                            x       y       z     vdW  Elec       q    Type
REMARK                         _______ _______ _______ _____ _____    ______ ____
ROOT
ATOM      1  C   UNL     1       5.319   6.837  17.413  0.00  0.00    +0.000 A 
ATOM      2  N   UNL     1       6.084   7.764  17.967  0.00  0.00    +0.000 NA
ATOM      3  C   UNL     1       7.321   7.751  17.497  0.00  0.00    +0.000 A 
ATOM      4 CL   UNL     1       8.376   8.919  18.153  0.00  0.00    +0.000 Cl
ATOM      5  N   UNL     1       7.846   6.943  16.586  0.00  0.00    +0.000 NA
ATOM      6  C   UNL     1       6.983   6.079  16.077  0.00  0.00    +0.000 A 
ATOM      7  N   UNL     1       7.455   5.193  15.115  0.00  0.00    +0.000 N 
ATOM      8  N   UNL     1       5.712   5.995  16.463  0.00  0.00    +0.000 NA
ATOM      9  H   UNL     1       8.450   5.280  14.958  0.00  0.00    +0.000 HD
ENDROOT
BRANCH   7  10
ATOM     10  C   UNL     1       6.724   4.592  14.074  0.00  0.00    +0.000 A 
ATOM     11  C   UNL     1       5.446   4.054  14.278  0.00  0.00    +0.000 A 
ATOM     12  C   UNL     1       4.753   3.406  13.250  0.00  0.00    +0.000 A 
ATOM     13  C   UNL     1       5.321   3.306  11.985  0.00  0.00    +0.000 A 
ATOM     14  C   UNL     1       6.606   3.815  11.778  0.00  0.00    +0.000 A 
ATOM     15  C   UNL     1       7.295   4.468  12.806  0.00  0.00    +0.000 A 
BRANCH  13  16
ATOM     16  O   UNL     1       4.761   2.721  10.891  0.00  0.00    +0.000 OA
BRANCH  16  17
ATOM     17  C   UNL     1       3.503   3.181  10.419  0.00  0.00    +0.000 C 
ATOM     18  F   UNL     1       2.450   2.678  11.097  0.00  0.00    +0.000 F 
ATOM     19  F   UNL     1       3.469   4.526  10.554  0.00  0.00    +0.000 F 
ATOM     20  F   UNL     1       3.368   2.885   9.110  0.00  0.00    +0.000 F 
ENDBRANCH  16  17
ENDBRANCH  13  16
ENDBRANCH   7  10
BRANCH   1  21
ATOM     21  S   UNL     1       3.695   6.583  18.084  0.00  0.00    +0.000 S 
BRANCH  21  25
ATOM     22  C   UNL     1       3.705   2.026  18.446  0.00  0.00    +0.000 A 
ATOM     23  C   UNL     1       2.883   2.642  17.508  0.00  0.00    +0.000 A 
ATOM     24  C   UNL     1       2.856   4.039  17.432  0.00  0.00    +0.000 A 
ATOM     25  C   UNL     1       3.645   4.816  18.292  0.00  0.00    +0.000 A 
ATOM     26  C   UNL     1       4.461   4.177  19.232  0.00  0.00    +0.000 A 
ATOM     27  C   UNL     1       4.486   2.783  19.312  0.00  0.00    +0.000 A 
BRANCH  22  28
ATOM     28  O   UNL     1       3.784   0.669  18.541  0.00  0.00    +0.000 OA
ATOM     29  H   UNL     1       4.459   0.439  19.200  0.00  0.00    +0.000 HD
ENDBRANCH  22  28
ENDBRANCH  21  25
ENDBRANCH   1  21
TORSDOF 6
ENDMDL
MODEL 5
REMARK VINA RESULT:      -7.9      5.959      7.837
REMARK  Name = 
REMARK  6 active torsions:
REMARK  status: ('A' for Active; 'I' for Inactive)
REMARK    1  A    between atoms: O_1  and  C_2
REMARK    2  A    between atoms: C_5  and  S_6
REMARK    3  A    between atoms: S_6  and  C_7
REMARK    4  A    between atoms: N_13  and  C_14
REMARK    5  A    between atoms: C_17  and  O_18
REMARK    6  A    between atoms: O_18  and  C_19
REMARK                            x       y       z     vdW  Elec       q    Type
REMARK                         _______ _______ _______ _____ _____    ______ ____
ROOT
ATOM      1  C   UNL     1       4.136   4.068  16.945  0.00  0.00    +0.000 A 
ATOM      2  N   UNL     1       5.332   3.971  16.385  0.00  0.00    +0.000 NA
ATOM      3  C   UNL     1       5.887   5.151  16.164  0.00  0.00    +0.000 A 
ATOM      4 CL   UNL     1       7.435   5.120  15.447  0.00  0.00    +0.000 Cl
ATOM      5  N   UNL     1       5.393   6.354  16.423  0.00  0.00    +0.000 NA
ATOM      6  C   UNL     1       4.209   6.330  17.013  0.00  0.00    +0.000 A 
ATOM      7  N   UNL     1       3.619   7.552  17.317  0.00  0.00    +0.000 N 
ATOM      8  N   UNL     1       3.549   5.208  17.291  0.00  0.00    +0.000 NA
ATOM      9  H   UNL     1       4.159   8.340  16.986  0.00  0.00    +0.000 HD
ENDROOT
BRANCH   7  10
ATOM     10  C   UNL     1       2.712   7.828  18.356  0.00  0.00    +0.000 A 
ATOM     11  C   UNL     1       1.931   8.990  18.372  0.00  0.00    +0.000 A 
ATOM     12  C   UNL     1       1.076   9.283  19.441  0.00  0.00    +0.000 A 
ATOM     13  C   UNL     1       0.970   8.398  20.508  0.00  0.00    +0.000 A 
ATOM     14  C   UNL     1       1.765   7.248  20.514  0.00  0.00    +0.000 A 
ATOM     15  C   UNL     1       2.615   6.955  19.442  0.00  0.00    +0.000 A 
BRANCH  13  16
ATOM     16  O   UNL     1       0.174   8.541  21.601  0.00  0.00    +0.000 OA
BRANCH  16  17
ATOM     17  C   UNL     1       0.577   9.408  22.651  0.00  0.00    +0.000 C 
ATOM     18  F   UNL     1       1.899   9.363  22.919  0.00  0.00    +0.000 F 
ATOM     19  F   UNL     1       0.280  10.677  22.286  0.00  0.00    +0.000 F 
ATOM     20  F   UNL     1      -0.113   9.121  23.775  0.00  0.00    +0.000 F 
ENDBRANCH  16  17
ENDBRANCH  13  16
ENDBRANCH   7  10
BRANCH   1  21
ATOM     21  S   UNL     1       3.169   2.588  17.112  0.00  0.00    +0.000 S 
BRANCH  21  25
ATOM     22  C   UNL     1       1.520   2.728  21.373  0.00  0.00    +0.000 A 
ATOM     23  C   UNL     1       0.672   2.966  20.296  0.00  0.00    +0.000 A 
ATOM     24  C   UNL     1       1.193   2.961  18.998  0.00  0.00    +0.000 A 
ATOM     25  C   UNL     1       2.557   2.723  18.777  0.00  0.00    +0.000 A 
ATOM     26  C   UNL     1       3.395   2.491  19.874  0.00  0.00    +0.000 A 
ATOM     27  C   UNL     1       2.876   2.500  21.172  0.00  0.00    +0.000 A 
BRANCH  22  28
ATOM     28  O   UNL     1       1.054   2.698  22.653  0.00  0.00    +0.000 OA
ATOM     29  H   UNL     1       1.554   3.339  23.185  0.00  0.00    +0.000 HD
ENDBRANCH  22  28
ENDBRANCH  21  25
ENDBRANCH   1  21
TORSDOF 6
ENDMDL
MODEL 6
REMARK VINA RESULT:      -7.8      6.567      7.994
REMARK  Name = 
REMARK  6 active torsions:
REMARK  status: ('A' for Active; 'I' for Inactive)
REMARK    1  A    between atoms: O_1  and  C_2
REMARK    2  A    between atoms: C_5  and  S_6
REMARK    3  A    between atoms: S_6  and  C_7
REMARK    4  A    between atoms: N_13  and  C_14
REMARK    5  A    between atoms: C_17  and  O_18
REMARK    6  A    between atoms: O_18  and  C_19
REMARK                            x       y       z     vdW  Elec       q    Type
REMARK                         _______ _______ _______ _____ _____    ______ ____
ROOT
ATOM      1  C   UNL     1       0.943   9.912  19.819  0.00  0.00    +0.000 A 
ATOM      2  N   UNL     1       0.438  10.159  21.017  0.00  0.00    +0.000 NA
ATOM      3  C   UNL     1       0.595   9.146  21.854  0.00  0.00    +0.000 A 
ATOM      4 CL   UNL     1      -0.023   9.381  23.426  0.00  0.00    +0.000 Cl
ATOM      5  N   UNL     1       1.166   7.972  21.625  0.00  0.00    +0.000 NA
ATOM      6  C   UNL     1       1.665   7.848  20.406  0.00  0.00    +0.000 A 
ATOM      7  N   UNL     1       2.280   6.643  20.084  0.00  0.00    +0.000 N 
ATOM      8  N   UNL     1       1.574   8.796  19.475  0.00  0.00    +0.000 NA
ATOM      9  H   UNL     1       2.217   5.962  20.828  0.00  0.00    +0.000 HD
ENDROOT
BRANCH   7  10
ATOM     10  C   UNL     1       3.309   6.432  19.148  0.00  0.00    +0.000 A 
ATOM     11  C   UNL     1       4.429   5.644  19.439  0.00  0.00    +0.000 A 
ATOM     12  C   UNL     1       5.474   5.490  18.522  0.00  0.00    +0.000 A 
ATOM     13  C   UNL     1       5.404   6.109  17.279  0.00  0.00    +0.000 A 
ATOM     14  C   UNL     1       4.303   6.919  16.988  0.00  0.00    +0.000 A 
ATOM     15  C   UNL     1       3.256   7.067  17.905  0.00  0.00    +0.000 A 
BRANCH  13  16
ATOM     16  O   UNL     1       6.331   6.037  16.286  0.00  0.00    +0.000 OA
BRANCH  16  17
ATOM     17  C   UNL     1       6.821   4.768  15.877  0.00  0.00    +0.000 C 
ATOM     18  F   UNL     1       7.720   4.231  16.728  0.00  0.00    +0.000 F 
ATOM     19  F   UNL     1       5.773   3.917  15.802  0.00  0.00    +0.000 F 
ATOM     20  F   UNL     1       7.375   4.864  14.651  0.00  0.00    +0.000 F 
ENDBRANCH  16  17
ENDBRANCH  13  16
ENDBRANCH   7  10
BRANCH   1  21
ATOM     21  S   UNL     1       0.627  11.083  18.522  0.00  0.00    +0.000 S 
BRANCH  21  25
ATOM     22  C   UNL     1      -3.890  10.903  17.841  0.00  0.00    +0.000 A 
ATOM     23  C   UNL     1      -3.361  11.846  18.716  0.00  0.00    +0.000 A 
ATOM     24  C   UNL     1      -1.982  11.867  18.950  0.00  0.00    +0.000 A 
ATOM     25  C   UNL     1      -1.136  10.948  18.313  0.00  0.00    +0.000 A 
ATOM     26  C   UNL     1      -1.688  10.005  17.439  0.00  0.00    +0.000 A 
ATOM     27  C   UNL     1      -3.065   9.980  17.208  0.00  0.00    +0.000 A 
BRANCH  22  28
ATOM     28  O   UNL     1      -5.223  10.859  17.562  0.00  0.00    +0.000 OA
ATOM     29  H   UNL     1      -5.459   9.955  17.297  0.00  0.00    +0.000 HD
ENDBRANCH  22  28
ENDBRANCH  21  25
ENDBRANCH   1  21
TORSDOF 6
ENDMDL
MODEL 7
REMARK VINA RESULT:      -7.7      6.378      8.522
REMARK  Name = 
REMARK  6 active torsions:
REMARK  status: ('A' for Active; 'I' for Inactive)
REMARK    1  A    between atoms: O_1  and  C_2
REMARK    2  A    between atoms: C_5  and  S_6
REMARK    3  A    between atoms: S_6  and  C_7
REMARK    4  A    between atoms: N_13  and  C_14
REMARK    5  A    between atoms: C_17  and  O_18
REMARK    6  A    between atoms: O_18  and  C_19
REMARK                            x       y       z     vdW  Elec       q    Type
REMARK                         _______ _______ _______ _____ _____    ______ ____
ROOT
ATOM      1  C   UNL     1       3.053   4.454  18.805  0.00  0.00    +0.000 A 
ATOM      2  N   UNL     1       2.868   3.310  19.445  0.00  0.00    +0.000 NA
ATOM      3  C   UNL     1       2.347   3.479  20.649  0.00  0.00    +0.000 A 
ATOM      4 CL   UNL     1       2.069   2.054  21.544  0.00  0.00    +0.000 Cl
ATOM      5  N   UNL     1       2.017   4.614  21.251  0.00  0.00    +0.000 NA
ATOM      6  C   UNL     1       2.213   5.690  20.507  0.00  0.00    +0.000 A 
ATOM      7  N   UNL     1       1.895   6.923  21.066  0.00  0.00    +0.000 N 
ATOM      8  N   UNL     1       2.728   5.651  19.279  0.00  0.00    +0.000 NA
ATOM      9  H   UNL     1       1.597   6.850  22.029  0.00  0.00    +0.000 HD
ENDROOT
BRANCH   7  10
ATOM     10  C   UNL     1       1.495   8.090  20.390  0.00  0.00    +0.000 A 
ATOM     11  C   UNL     1       1.904   8.367  19.079  0.00  0.00    +0.000 A 
ATOM     12  C   UNL     1       1.548   9.559  18.438  0.00  0.00    +0.000 A 
ATOM     13  C   UNL     1       0.750  10.489  19.095  0.00  0.00    +0.000 A 
ATOM     14  C   UNL     1       0.359  10.235  20.412  0.00  0.00    +0.000 A 
ATOM     15  C   UNL     1       0.711   9.040  21.049  0.00  0.00    +0.000 A 
BRANCH  13  16
ATOM     16  O   UNL     1       0.315  11.677  18.595  0.00  0.00    +0.000 OA
BRANCH  16  17
ATOM     17  C   UNL     1      -1.060  11.841  18.278  0.00  0.00    +0.000 C 
ATOM     18  F   UNL     1      -1.828  12.172  19.336  0.00  0.00    +0.000 F 
ATOM     19  F   UNL     1      -1.166  12.838  17.370  0.00  0.00    +0.000 F 
ATOM     20  F   UNL     1      -1.540  10.710  17.720  0.00  0.00    +0.000 F 
ENDBRANCH  16  17
ENDBRANCH  13  16
ENDBRANCH   7  10
BRANCH   1  21
ATOM     21  S   UNL     1       3.939   4.417  17.267  0.00  0.00    +0.000 S 
BRANCH  21  25
ATOM     22  C   UNL     1       7.626   6.870  18.400  0.00  0.00    +0.000 A 
ATOM     23  C   UNL     1       6.839   7.264  17.323  0.00  0.00    +0.000 A 
ATOM     24  C   UNL     1       5.736   6.485  16.958  0.00  0.00    +0.000 A 
ATOM     25  C   UNL     1       5.423   5.315  17.664  0.00  0.00    +0.000 A 
ATOM     26  C   UNL     1       6.230   4.933  18.742  0.00  0.00    +0.000 A 
ATOM     27  C   UNL     1       7.334   5.708  19.105  0.00  0.00    +0.000 A 
BRANCH  22  28
ATOM     28  O   UNL     1       8.695   7.609  18.808  0.00  0.00    +0.000 OA
ATOM     29  H   UNL     1       9.289   7.747  18.052  0.00  0.00    +0.000 HD
ENDBRANCH  22  28
ENDBRANCH  21  25
ENDBRANCH   1  21
TORSDOF 6
ENDMDL
MODEL 8
REMARK VINA RESULT:      -7.7      6.227      7.693
REMARK  Name = 
REMARK  6 active torsions:
REMARK  status: ('A' for Active; 'I' for Inactive)
REMARK    1  A    between atoms: O_1  and  C_2
REMARK    2  A    between atoms: C_5  and  S_6
REMARK    3  A    between atoms: S_6  and  C_7
REMARK    4  A    between atoms: N_13  and  C_14
REMARK    5  A    between atoms: C_17  and  O_18
REMARK    6  A    between atoms: O_18  and  C_19
REMARK                            x       y       z     vdW  Elec       q    Type
REMARK                         _______ _______ _______ _____ _____    ______ ____
ROOT
ATOM      1  C   UNL     1       1.122   9.506  19.703  0.00  0.00    +0.000 A 
ATOM      2  N   UNL     1       0.769   9.942  20.901  0.00  0.00    +0.000 NA
ATOM      3  C   UNL     1       0.844   9.000  21.827  0.00  0.00    +0.000 A 
ATOM      4 CL   UNL     1       0.411   9.476  23.407  0.00  0.00    +0.000 Cl
ATOM      5  N   UNL     1       1.207   7.732  21.684  0.00  0.00    +0.000 NA
ATOM      6  C   UNL     1       1.571   7.417  20.452  0.00  0.00    +0.000 A 
ATOM      7  N   UNL     1       1.965   6.104  20.216  0.00  0.00    +0.000 N 
ATOM      8  N   UNL     1       1.543   8.275  19.434  0.00  0.00    +0.000 NA
ATOM      9  H   UNL     1       1.866   5.514  21.031  0.00  0.00    +0.000 HD
ENDROOT
BRANCH   7  10
ATOM     10  C   UNL     1       2.863   5.644  19.235  0.00  0.00    +0.000 A 
ATOM     11  C   UNL     1       2.444   4.857  18.155  0.00  0.00    +0.000 A 
ATOM     12  C   UNL     1       3.355   4.357  17.218  0.00  0.00    +0.000 A 
ATOM     13  C   UNL     1       4.707   4.658  17.335  0.00  0.00    +0.000 A 
ATOM     14  C   UNL     1       5.139   5.420  18.424  0.00  0.00    +0.000 A 
ATOM     15  C   UNL     1       4.226   5.924  19.356  0.00  0.00    +0.000 A 
BRANCH  13  16
ATOM     16  O   UNL     1       5.701   4.257  16.496  0.00  0.00    +0.000 OA
BRANCH  16  17
ATOM     17  C   UNL     1       5.827   4.867  15.220  0.00  0.00    +0.000 C 
ATOM     18  F   UNL     1       5.286   6.101  15.149  0.00  0.00    +0.000 F 
ATOM     19  F   UNL     1       7.145   4.985  14.939  0.00  0.00    +0.000 F 
ATOM     20  F   UNL     1       5.264   4.082  14.278  0.00  0.00    +0.000 F 
ENDBRANCH  16  17
ENDBRANCH  13  16
ENDBRANCH   7  10
BRANCH   1  21
ATOM     21  S   UNL     1       0.874  10.586  18.315  0.00  0.00    +0.000 S 
BRANCH  21  25
ATOM     22  C   UNL     1      -3.664  10.915  17.873  0.00  0.00    +0.000 A 
ATOM     23  C   UNL     1      -2.989  11.781  18.727  0.00  0.00    +0.000 A 
ATOM     24  C   UNL     1      -1.606  11.647  18.887  0.00  0.00    +0.000 A 
ATOM     25  C   UNL     1      -0.901  10.649  18.199  0.00  0.00    +0.000 A 
ATOM     26  C   UNL     1      -1.600   9.784  17.349  0.00  0.00    +0.000 A 
ATOM     27  C   UNL     1      -2.982   9.914  17.191  0.00  0.00    +0.000 A 
BRANCH  22  28
ATOM     28  O   UNL     1      -5.007  11.022  17.666  0.00  0.00    +0.000 OA
ATOM     29  H   UNL     1      -5.308  11.884  17.998  0.00  0.00    +0.000 HD
ENDBRANCH  22  28
ENDBRANCH  21  25
ENDBRANCH   1  21
TORSDOF 6
ENDMDL
MODEL 9
REMARK VINA RESULT:      -7.7      5.931      7.896
REMARK  Name = 
REMARK  6 active torsions:
REMARK  status: ('A' for Active; 'I' for Inactive)
REMARK    1  A    between atoms: O_1  and  C_2
REMARK    2  A    between atoms: C_5  and  S_6
REMARK    3  A    between atoms: S_6  and  C_7
REMARK    4  A    between atoms: N_13  and  C_14
REMARK    5  A    between atoms: C_17  and  O_18
REMARK    6  A    between atoms: O_18  and  C_19
REMARK                            x       y       z     vdW  Elec       q    Type
REMARK                         _______ _______ _______ _____ _____    ______ ____
ROOT
ATOM      1  C   UNL     1       4.024   4.015  16.867  0.00  0.00    +0.000 A 
ATOM      2  N   UNL     1       5.232   3.880  16.343  0.00  0.00    +0.000 NA
ATOM      3  C   UNL     1       5.858   5.038  16.204  0.00  0.00    +0.000 A 
ATOM      4 CL   UNL     1       7.427   4.958  15.541  0.00  0.00    +0.000 Cl
ATOM      5  N   UNL     1       5.419   6.252  16.510  0.00  0.00    +0.000 NA
ATOM      6  C   UNL     1       4.215   6.263  17.057  0.00  0.00    +0.000 A 
ATOM      7  N   UNL     1       3.681   7.499  17.405  0.00  0.00    +0.000 N 
ATOM      8  N   UNL     1       3.486   5.167  17.252  0.00  0.00    +0.000 NA
ATOM      9  H   UNL     1       4.274   8.271  17.135  0.00  0.00    +0.000 HD
ENDROOT
BRANCH   7  10
ATOM     10  C   UNL     1       2.752   7.771  18.426  0.00  0.00    +0.000 A 
ATOM     11  C   UNL     1       1.984   8.943  18.440  0.00  0.00    +0.000 A 
ATOM     12  C   UNL     1       1.107   9.230  19.491  0.00  0.00    +0.000 A 
ATOM     13  C   UNL     1       0.965   8.332  20.543  0.00  0.00    +0.000 A 
ATOM     14  C   UNL     1       1.746   7.173  20.552  0.00  0.00    +0.000 A 
ATOM     15  C   UNL     1       2.618   6.884  19.497  0.00  0.00    +0.000 A 
BRANCH  13  16
ATOM     16  O   UNL     1       0.144   8.470  21.619  0.00  0.00    +0.000 OA
BRANCH  16  17
ATOM     17  C   UNL     1       0.485   9.389  22.645  0.00  0.00    +0.000 C 
ATOM     18  F   UNL     1      -0.107   9.128  23.830  0.00  0.00    +0.000 F 
ATOM     19  F   UNL     1       1.823   9.329  22.837  0.00  0.00    +0.000 F 
ATOM     20  F   UNL     1       0.171  10.644  22.261  0.00  0.00    +0.000 F 
ENDBRANCH  16  17
ENDBRANCH  13  16
ENDBRANCH   7  10
BRANCH   1  21
ATOM     21  S   UNL     1       2.973   2.584  16.922  0.00  0.00    +0.000 S 
BRANCH  21  25
ATOM     22  C   UNL     1       1.670   2.769  21.299  0.00  0.00    +0.000 A 
ATOM     23  C   UNL     1       2.997   2.493  20.985  0.00  0.00    +0.000 A 
ATOM     24  C   UNL     1       3.378   2.397  19.643  0.00  0.00    +0.000 A 
ATOM     25  C   UNL     1       2.437   2.575  18.619  0.00  0.00    +0.000 A 
ATOM     26  C   UNL     1       1.106   2.848  18.956  0.00  0.00    +0.000 A 
ATOM     27  C   UNL     1       0.723   2.939  20.296  0.00  0.00    +0.000 A 
BRANCH  22  28
ATOM     28  O   UNL     1       1.256   2.895  22.591  0.00  0.00    +0.000 OA
ATOM     29  H   UNL     1       1.136   3.838  22.792  0.00  0.00    +0.000 HD
ENDBRANCH  22  28
ENDBRANCH  21  25
ENDBRANCH   1  21
TORSDOF 6
ENDMDL
