MODEL 1
REMARK VINA RESULT:      -7.1      0.000      0.000
REMARK  Name = 
REMARK  7 active torsions:
REMARK  status: ('A' for Active; 'I' for Inactive)
REMARK    1  A    between atoms: C_1  and  C_2
REMARK    2  A    between atoms: C_2  and  C_3
REMARK    3  A    between atoms: C_2  and  O_14
REMARK    4  A    between atoms: C_3  and  N_4
REMARK    5  A    between atoms: N_4  and  C_5
REMARK    6  A    between atoms: C_5  and  C_6
REMARK    7  A    between atoms: O_14  and  C_15
REMARK                            x       y       z     vdW  Elec       q    Type
REMARK                         _______ _______ _______ _____ _____    ______ ____
ROOT
ATOM      1  N   UNL     1       4.570   7.328  17.560  0.00  0.00    +0.000 NA
ATOM      2  H   UNL     1       4.919   8.314  17.511  0.00  0.00    +0.000 HD
ENDROOT
BRANCH   1   3
ATOM      3  C   UNL     1       5.067   6.562  16.400  0.00  0.00    +0.000 C 
BRANCH   3   5
ATOM      4  C   UNL     1       6.385   5.426  18.247  0.00  0.00    +0.000 C 
ATOM      5  C   UNL     1       5.939   5.344  16.788  0.00  0.00    +0.000 C 
BRANCH   5   6
ATOM      6  O   UNL     1       7.066   5.286  15.982  0.00  0.00    +0.000 OA
BRANCH   6   7
ATOM      7  C   UNL     1       7.069   4.912  14.679  0.00  0.00    +0.000 A 
ATOM      8  C   UNL     1       6.209   3.892  14.255  0.00  0.00    +0.000 A 
ATOM      9  C   UNL     1       6.188   3.529  12.906  0.00  0.00    +0.000 A 
ATOM     10  C   UNL     1       7.020   4.182  11.995  0.00  0.00    +0.000 A 
ATOM     11  C   UNL     1       7.870   5.192  12.450  0.00  0.00    +0.000 A 
ATOM     12  N   UNL     1       7.873   5.533  13.767  0.00  0.00    +0.000 NA
ENDBRANCH   6   7
ENDBRANCH   5   6
ENDBRANCH   3   5
ENDBRANCH   1   3
BRANCH   1  13
ATOM     13  C   UNL     1       3.104   7.315  17.661  0.00  0.00    +0.000 C 
BRANCH  13  14
ATOM     14  C   UNL     1       2.626   6.183  18.533  0.00  0.00    +0.000 A 
ATOM     15  C   UNL     1       2.320   6.421  19.883  0.00  0.00    +0.000 A 
ATOM     16  C   UNL     1       1.850   5.388  20.695  0.00  0.00    +0.000 A 
ATOM     17  C   UNL     1       1.675   4.103  20.172  0.00  0.00    +0.000 A 
ATOM     18 CL   UNL     1       1.066   2.834  21.226  0.00  0.00    +0.000 Cl
ATOM     19  C   UNL     1       1.981   3.853  18.823  0.00  0.00    +0.000 A 
ATOM     20 CL   UNL     1       1.765   2.251  18.127  0.00  0.00    +0.000 Cl
ATOM     21  C   UNL     1       2.457   4.890  18.009  0.00  0.00    +0.000 A 
ENDBRANCH  13  14
ENDBRANCH   1  13
TORSDOF 6
ENDMDL
MODEL 2
REMARK VINA RESULT:      -6.8      3.890      6.681
REMARK  Name = 
REMARK  7 active torsions:
REMARK  status: ('A' for Active; 'I' for Inactive)
REMARK    1  A    between atoms: C_1  and  C_2
REMARK    2  A    between atoms: C_2  and  C_3
REMARK    3  A    between atoms: C_2  and  O_14
REMARK    4  A    between atoms: C_3  and  N_4
REMARK    5  A    between atoms: N_4  and  C_5
REMARK    6  A    between atoms: C_5  and  C_6
REMARK    7  A    between atoms: O_14  and  C_15
REMARK                            x       y       z     vdW  Elec       q    Type
REMARK                         _______ _______ _______ _____ _____    ______ ____
ROOT
ATOM      1  N   UNL     1       4.337   2.377  18.103  0.00  0.00    +0.000 NA
ATOM      2  H   UNL     1       4.626   1.444  17.726  0.00  0.00    +0.000 HD
ENDROOT
BRANCH   1   3
ATOM      3  C   UNL     1       3.118   2.231  18.924  0.00  0.00    +0.000 C 
BRANCH   3   5
ATOM      4  C   UNL     1       2.651   2.780  21.358  0.00  0.00    +0.000 C 
ATOM      5  C   UNL     1       2.937   3.356  19.971  0.00  0.00    +0.000 C 
BRANCH   5   6
ATOM      6  O   UNL     1       1.884   4.183  19.609  0.00  0.00    +0.000 OA
BRANCH   6   7
ATOM      7  C   UNL     1       1.955   5.534  19.521  0.00  0.00    +0.000 A 
ATOM      8  C   UNL     1       2.295   6.126  18.298  0.00  0.00    +0.000 A 
ATOM      9  C   UNL     1       2.335   7.519  18.197  0.00  0.00    +0.000 A 
ATOM     10  C   UNL     1       2.039   8.307  19.311  0.00  0.00    +0.000 A 
ATOM     11  C   UNL     1       1.707   7.686  20.517  0.00  0.00    +0.000 A 
ATOM     12  N   UNL     1       1.670   6.329  20.593  0.00  0.00    +0.000 NA
ENDBRANCH   6   7
ENDBRANCH   5   6
ENDBRANCH   3   5
ENDBRANCH   1   3
BRANCH   1  13
ATOM     13  C   UNL     1       4.167   3.337  17.003  0.00  0.00    +0.000 C 
BRANCH  13  14
ATOM     14  C   UNL     1       5.104   4.508  17.148  0.00  0.00    +0.000 A 
ATOM     15  C   UNL     1       5.038   5.573  16.236  0.00  0.00    +0.000 A 
ATOM     16  C   UNL     1       5.881   6.677  16.374  0.00  0.00    +0.000 A 
ATOM     17  C   UNL     1       6.799   6.736  17.427  0.00  0.00    +0.000 A 
ATOM     18 CL   UNL     1       7.831   8.152  17.574  0.00  0.00    +0.000 Cl
ATOM     19  C   UNL     1       6.875   5.673  18.345  0.00  0.00    +0.000 A 
ATOM     20 CL   UNL     1       8.012   5.716  19.687  0.00  0.00    +0.000 Cl
ATOM     21  C   UNL     1       6.031   4.563  18.202  0.00  0.00    +0.000 A 
ENDBRANCH  13  14
ENDBRANCH   1  13
TORSDOF 6
ENDMDL
MODEL 3
REMARK VINA RESULT:      -6.8      0.916      1.248
REMARK  Name = 
REMARK  7 active torsions:
REMARK  status: ('A' for Active; 'I' for Inactive)
REMARK    1  A    between atoms: C_1  and  C_2
REMARK    2  A    between atoms: C_2  and  C_3
REMARK    3  A    between atoms: C_2  and  O_14
REMARK    4  A    between atoms: C_3  and  N_4
REMARK    5  A    between atoms: N_4  and  C_5
REMARK    6  A    between atoms: C_5  and  C_6
REMARK    7  A    between atoms: O_14  and  C_15
REMARK                            x       y       z     vdW  Elec       q    Type
REMARK                         _______ _______ _______ _____ _____    ______ ____
ROOT
ATOM      1  N   UNL     1       4.329   6.559  16.714  0.00  0.00    +0.000 NA
ATOM      2  H   UNL     1       4.161   5.533  16.592  0.00  0.00    +0.000 HD
ENDROOT
BRANCH   1   3
ATOM      3  C   UNL     1       5.766   6.809  16.942  0.00  0.00    +0.000 C 
BRANCH   3   5
ATOM      4  C   UNL     1       7.586   5.427  18.046  0.00  0.00    +0.000 C 
ATOM      5  C   UNL     1       6.640   5.535  16.851  0.00  0.00    +0.000 C 
BRANCH   5   6
ATOM      6  O   UNL     1       7.395   5.555  15.687  0.00  0.00    +0.000 OA
BRANCH   6   7
ATOM      7  C   UNL     1       7.025   4.987  14.514  0.00  0.00    +0.000 A 
ATOM      8  C   UNL     1       7.838   5.150  13.385  0.00  0.00    +0.000 A 
ATOM      9  C   UNL     1       7.474   4.537  12.183  0.00  0.00    +0.000 A 
ATOM     10  C   UNL     1       6.309   3.771  12.116  0.00  0.00    +0.000 A 
ATOM     11  C   UNL     1       5.518   3.631  13.258  0.00  0.00    +0.000 A 
ATOM     12  N   UNL     1       5.892   4.233  14.419  0.00  0.00    +0.000 NA
ENDBRANCH   6   7
ENDBRANCH   5   6
ENDBRANCH   3   5
ENDBRANCH   1   3
BRANCH   1  13
ATOM     13  C   UNL     1       3.483   7.085  17.794  0.00  0.00    +0.000 C 
BRANCH  13  14
ATOM     14  C   UNL     1       2.969   5.977  18.676  0.00  0.00    +0.000 A 
ATOM     15  C   UNL     1       2.317   6.288  19.881  0.00  0.00    +0.000 A 
ATOM     16  C   UNL     1       1.811   5.273  20.694  0.00  0.00    +0.000 A 
ATOM     17  C   UNL     1       1.945   3.933  20.316  0.00  0.00    +0.000 A 
ATOM     18 CL   UNL     1       1.280   2.687  21.363  0.00  0.00    +0.000 Cl
ATOM     19  C   UNL     1       2.598   3.611  19.114  0.00  0.00    +0.000 A 
ATOM     20 CL   UNL     1       2.777   1.937  18.601  0.00  0.00    +0.000 Cl
ATOM     21  C   UNL     1       3.110   4.631  18.300  0.00  0.00    +0.000 A 
ENDBRANCH  13  14
ENDBRANCH   1  13
TORSDOF 6
ENDMDL
MODEL 4
REMARK VINA RESULT:      -6.7      1.107      1.143
REMARK  Name = 
REMARK  7 active torsions:
REMARK  status: ('A' for Active; 'I' for Inactive)
REMARK    1  A    between atoms: C_1  and  C_2
REMARK    2  A    between atoms: C_2  and  C_3
REMARK    3  A    between atoms: C_2  and  O_14
REMARK    4  A    between atoms: C_3  and  N_4
REMARK    5  A    between atoms: N_4  and  C_5
REMARK    6  A    between atoms: C_5  and  C_6
REMARK    7  A    between atoms: O_14  and  C_15
REMARK                            x       y       z     vdW  Elec       q    Type
REMARK                         _______ _______ _______ _____ _____    ______ ____
ROOT
ATOM      1  N   UNL     1       4.453   6.392  16.760  0.00  0.00    +0.000 NA
ATOM      2  H   UNL     1       4.441   5.348  16.829  0.00  0.00    +0.000 HD
ENDROOT
BRANCH   1   3
ATOM      3  C   UNL     1       5.845   6.874  16.673  0.00  0.00    +0.000 C 
BRANCH   3   5
ATOM      4  C   UNL     1       7.937   6.991  18.107  0.00  0.00    +0.000 C 
ATOM      5  C   UNL     1       6.833   6.083  17.564  0.00  0.00    +0.000 C 
BRANCH   5   6
ATOM      6  O   UNL     1       7.420   5.058  16.837  0.00  0.00    +0.000 OA
BRANCH   6   7
ATOM      7  C   UNL     1       7.173   4.797  15.530  0.00  0.00    +0.000 A 
ATOM      8  C   UNL     1       6.195   3.854  15.190  0.00  0.00    +0.000 A 
ATOM      9  C   UNL     1       5.917   3.608  13.843  0.00  0.00    +0.000 A 
ATOM     10  C   UNL     1       6.614   4.299  12.851  0.00  0.00    +0.000 A 
ATOM     11  C   UNL     1       7.587   5.230  13.222  0.00  0.00    +0.000 A 
ATOM     12  N   UNL     1       7.839   5.457  14.538  0.00  0.00    +0.000 NA
ENDBRANCH   6   7
ENDBRANCH   5   6
ENDBRANCH   3   5
ENDBRANCH   1   3
BRANCH   1  13
ATOM     13  C   UNL     1       3.719   6.983  17.888  0.00  0.00    +0.000 C 
BRANCH  13  14
ATOM     14  C   UNL     1       3.199   5.918  18.820  0.00  0.00    +0.000 A 
ATOM     15  C   UNL     1       2.234   6.246  19.787  0.00  0.00    +0.000 A 
ATOM     16  C   UNL     1       1.724   5.265  20.638  0.00  0.00    +0.000 A 
ATOM     17  C   UNL     1       2.165   3.942  20.534  0.00  0.00    +0.000 A 
ATOM     18 CL   UNL     1       1.484   2.735  21.617  0.00  0.00    +0.000 Cl
ATOM     19  C   UNL     1       3.133   3.604  19.573  0.00  0.00    +0.000 A 
ATOM     20 CL   UNL     1       3.706   1.948  19.408  0.00  0.00    +0.000 Cl
ATOM     21  C   UNL     1       3.648   4.591  18.721  0.00  0.00    +0.000 A 
ENDBRANCH  13  14
ENDBRANCH   1  13
TORSDOF 6
ENDMDL
MODEL 5
REMARK VINA RESULT:      -6.6      1.383      2.127
REMARK  Name = 
REMARK  7 active torsions:
REMARK  status: ('A' for Active; 'I' for Inactive)
REMARK    1  A    between atoms: C_1  and  C_2
REMARK    2  A    between atoms: C_2  and  C_3
REMARK    3  A    between atoms: C_2  and  O_14
REMARK    4  A    between atoms: C_3  and  N_4
REMARK    5  A    between atoms: N_4  and  C_5
REMARK    6  A    between atoms: C_5  and  C_6
REMARK    7  A    between atoms: O_14  and  C_15
REMARK                            x       y       z     vdW  Elec       q    Type
REMARK                         _______ _______ _______ _____ _____    ______ ____
ROOT
ATOM      1  N   UNL     1       6.150   5.080  18.840  0.00  0.00    +0.000 NA
ATOM      2  H   UNL     1       6.652   4.493  19.548  0.00  0.00    +0.000 HD
ENDROOT
BRANCH   1   3
ATOM      3  C   UNL     1       7.068   6.096  18.289  0.00  0.00    +0.000 C 
BRANCH   3   5
ATOM      4  C   UNL     1       5.596   6.667  16.301  0.00  0.00    +0.000 C 
ATOM      5  C   UNL     1       6.991   6.232  16.749  0.00  0.00    +0.000 C 
BRANCH   5   6
ATOM      6  O   UNL     1       7.293   5.020  16.145  0.00  0.00    +0.000 OA
BRANCH   6   7
ATOM      7  C   UNL     1       7.179   4.765  14.819  0.00  0.00    +0.000 A 
ATOM      8  C   UNL     1       6.258   3.807  14.380  0.00  0.00    +0.000 A 
ATOM      9  C   UNL     1       6.116   3.567  13.010  0.00  0.00    +0.000 A 
ATOM     10  C   UNL     1       6.891   4.282  12.095  0.00  0.00    +0.000 A 
ATOM     11  C   UNL     1       7.804   5.228  12.565  0.00  0.00    +0.000 A 
ATOM     12  N   UNL     1       7.924   5.448  13.901  0.00  0.00    +0.000 NA
ENDBRANCH   6   7
ENDBRANCH   5   6
ENDBRANCH   3   5
ENDBRANCH   1   3
BRANCH   1  13
ATOM     13  C   UNL     1       4.944   5.670  19.436  0.00  0.00    +0.000 C 
BRANCH  13  14
ATOM     14  C   UNL     1       3.750   4.766  19.263  0.00  0.00    +0.000 A 
ATOM     15  C   UNL     1       3.278   4.471  17.973  0.00  0.00    +0.000 A 
ATOM     16  C   UNL     1       2.191   3.614  17.797  0.00  0.00    +0.000 A 
ATOM     17  C   UNL     1       1.561   3.036  18.903  0.00  0.00    +0.000 A 
ATOM     18 CL   UNL     1       0.204   1.950  18.635  0.00  0.00    +0.000 Cl
ATOM     19  C   UNL     1       2.023   3.327  20.198  0.00  0.00    +0.000 A 
ATOM     20 CL   UNL     1       1.261   2.612  21.614  0.00  0.00    +0.000 Cl
ATOM     21  C   UNL     1       3.113   4.192  20.375  0.00  0.00    +0.000 A 
ENDBRANCH  13  14
ENDBRANCH   1  13
TORSDOF 6
ENDMDL
MODEL 6
REMARK VINA RESULT:      -6.5      2.555      4.117
REMARK  Name = 
REMARK  7 active torsions:
REMARK  status: ('A' for Active; 'I' for Inactive)
REMARK    1  A    between atoms: C_1  and  C_2
REMARK    2  A    between atoms: C_2  and  C_3
REMARK    3  A    between atoms: C_2  and  O_14
REMARK    4  A    between atoms: C_3  and  N_4
REMARK    5  A    between atoms: N_4  and  C_5
REMARK    6  A    between atoms: C_5  and  C_6
REMARK    7  A    between atoms: O_14  and  C_15
REMARK                            x       y       z     vdW  Elec       q    Type
REMARK                         _______ _______ _______ _____ _____    ______ ____
ROOT
ATOM      1  N   UNL     1       4.767   3.320  17.322  0.00  0.00    +0.000 NA
ATOM      2  H   UNL     1       5.130   4.251  17.636  0.00  0.00    +0.000 HD
ENDROOT
BRANCH   1   3
ATOM      3  C   UNL     1       4.851   3.218  15.852  0.00  0.00    +0.000 C 
BRANCH   3   5
ATOM      4  C   UNL     1       6.014   3.976  13.727  0.00  0.00    +0.000 C 
ATOM      5  C   UNL     1       5.785   4.272  15.209  0.00  0.00    +0.000 C 
BRANCH   5   6
ATOM      6  O   UNL     1       7.013   4.281  15.854  0.00  0.00    +0.000 OA
BRANCH   6   7
ATOM      7  C   UNL     1       7.357   5.130  16.853  0.00  0.00    +0.000 A 
ATOM      8  C   UNL     1       7.327   6.511  16.621  0.00  0.00    +0.000 A 
ATOM      9  C   UNL     1       7.650   7.389  17.660  0.00  0.00    +0.000 A 
ATOM     10  C   UNL     1       7.997   6.884  18.915  0.00  0.00    +0.000 A 
ATOM     11  C   UNL     1       8.021   5.502  19.113  0.00  0.00    +0.000 A 
ATOM     12  N   UNL     1       7.701   4.666  18.089  0.00  0.00    +0.000 NA
ENDBRANCH   6   7
ENDBRANCH   5   6
ENDBRANCH   3   5
ENDBRANCH   1   3
BRANCH   1  13
ATOM     13  C   UNL     1       3.403   3.113  17.827  0.00  0.00    +0.000 C 
BRANCH  13  14
ATOM     14  C   UNL     1       2.905   4.324  18.573  0.00  0.00    +0.000 A 
ATOM     15  C   UNL     1       2.429   4.189  19.888  0.00  0.00    +0.000 A 
ATOM     16  C   UNL     1       1.991   5.306  20.600  0.00  0.00    +0.000 A 
ATOM     17  C   UNL     1       2.025   6.575  20.014  0.00  0.00    +0.000 A 
ATOM     18 CL   UNL     1       1.478   7.957  20.952  0.00  0.00    +0.000 Cl
ATOM     19  C   UNL     1       2.496   6.721  18.698  0.00  0.00    +0.000 A 
ATOM     20 CL   UNL     1       2.561   8.303  17.930  0.00  0.00    +0.000 Cl
ATOM     21  C   UNL     1       2.932   5.597  17.981  0.00  0.00    +0.000 A 
ENDBRANCH  13  14
ENDBRANCH   1  13
TORSDOF 6
ENDMDL
MODEL 7
REMARK VINA RESULT:      -6.5      2.787      3.591
REMARK  Name = 
REMARK  7 active torsions:
REMARK  status: ('A' for Active; 'I' for Inactive)
REMARK    1  A    between atoms: C_1  and  C_2
REMARK    2  A    between atoms: C_2  and  C_3
REMARK    3  A    between atoms: C_2  and  O_14
REMARK    4  A    between atoms: C_3  and  N_4
REMARK    5  A    between atoms: N_4  and  C_5
REMARK    6  A    between atoms: C_5  and  C_6
REMARK    7  A    between atoms: O_14  and  C_15
REMARK                            x       y       z     vdW  Elec       q    Type
REMARK                         _______ _______ _______ _____ _____    ______ ____
ROOT
ATOM      1  N   UNL     1       3.779   5.325  17.845  0.00  0.00    +0.000 NA
ATOM      2  H   UNL     1       2.958   4.909  17.346  0.00  0.00    +0.000 HD
ENDROOT
BRANCH   1   3
ATOM      3  C   UNL     1       4.885   4.348  17.892  0.00  0.00    +0.000 C 
BRANCH   3   5
ATOM      4  C   UNL     1       6.938   5.842  17.891  0.00  0.00    +0.000 C 
ATOM      5  C   UNL     1       6.143   4.796  17.109  0.00  0.00    +0.000 C 
BRANCH   5   6
ATOM      6  O   UNL     1       5.778   5.339  15.886  0.00  0.00    +0.000 OA
BRANCH   6   7
ATOM      7  C   UNL     1       6.255   4.933  14.684  0.00  0.00    +0.000 A 
ATOM      8  C   UNL     1       5.528   4.000  13.936  0.00  0.00    +0.000 A 
ATOM      9  C   UNL     1       6.002   3.605  12.682  0.00  0.00    +0.000 A 
ATOM     10  C   UNL     1       7.192   4.141  12.187  0.00  0.00    +0.000 A 
ATOM     11  C   UNL     1       7.897   5.067  12.960  0.00  0.00    +0.000 A 
ATOM     12  N   UNL     1       7.416   5.440  14.176  0.00  0.00    +0.000 NA
ENDBRANCH   6   7
ENDBRANCH   5   6
ENDBRANCH   3   5
ENDBRANCH   1   3
BRANCH   1  13
ATOM     13  C   UNL     1       3.378   5.791  19.179  0.00  0.00    +0.000 C 
BRANCH  13  14
ATOM     14  C   UNL     1       2.635   7.100  19.101  0.00  0.00    +0.000 A 
ATOM     15  C   UNL     1       2.656   7.846  17.911  0.00  0.00    +0.000 A 
ATOM     16  C   UNL     1       1.950   9.046  17.815  0.00  0.00    +0.000 A 
ATOM     17  C   UNL     1       1.208   9.516  18.903  0.00  0.00    +0.000 A 
ATOM     18 CL   UNL     1       0.320  11.025  18.735  0.00  0.00    +0.000 Cl
ATOM     19  C   UNL     1       1.182   8.779  20.100  0.00  0.00    +0.000 A 
ATOM     20 CL   UNL     1       0.254   9.336  21.487  0.00  0.00    +0.000 Cl
ATOM     21  C   UNL     1       1.896   7.576  20.196  0.00  0.00    +0.000 A 
ENDBRANCH  13  14
ENDBRANCH   1  13
TORSDOF 6
ENDMDL
MODEL 8
REMARK VINA RESULT:      -6.4      4.276      5.725
REMARK  Name = 
REMARK  7 active torsions:
REMARK  status: ('A' for Active; 'I' for Inactive)
REMARK    1  A    between atoms: C_1  and  C_2
REMARK    2  A    between atoms: C_2  and  C_3
REMARK    3  A    between atoms: C_2  and  O_14
REMARK    4  A    between atoms: C_3  and  N_4
REMARK    5  A    between atoms: N_4  and  C_5
REMARK    6  A    between atoms: C_5  and  C_6
REMARK    7  A    between atoms: O_14  and  C_15
REMARK                            x       y       z     vdW  Elec       q    Type
REMARK                         _______ _______ _______ _____ _____    ______ ____
ROOT
ATOM      1  N   UNL     1       2.112   5.677  20.873  0.00  0.00    +0.000 NA
ATOM      2  H   UNL     1       2.938   5.086  21.125  0.00  0.00    +0.000 HD
ENDROOT
BRANCH   1   3
ATOM      3  C   UNL     1       0.976   4.815  20.492  0.00  0.00    +0.000 C 
BRANCH   3   5
ATOM      4  C   UNL     1       2.344   3.189  21.879  0.00  0.00    +0.000 C 
ATOM      5  C   UNL     1       1.064   3.381  21.067  0.00  0.00    +0.000 C 
BRANCH   5   6
ATOM      6  O   UNL     1       1.047   2.450  20.039  0.00  0.00    +0.000 OA
BRANCH   6   7
ATOM      7  C   UNL     1       1.922   2.422  19.005  0.00  0.00    +0.000 A 
ATOM      8  C   UNL     1       1.726   3.280  17.915  0.00  0.00    +0.000 A 
ATOM      9  C   UNL     1       2.646   3.275  16.863  0.00  0.00    +0.000 A 
ATOM     10  C   UNL     1       3.748   2.419  16.906  0.00  0.00    +0.000 A 
ATOM     11  C   UNL     1       3.913   1.573  18.005  0.00  0.00    +0.000 A 
ATOM     12  N   UNL     1       3.008   1.596  19.019  0.00  0.00    +0.000 NA
ENDBRANCH   6   7
ENDBRANCH   5   6
ENDBRANCH   3   5
ENDBRANCH   1   3
BRANCH   1  13
ATOM     13  C   UNL     1       2.477   6.633  19.818  0.00  0.00    +0.000 C 
BRANCH  13  14
ATOM     14  C   UNL     1       3.668   6.151  19.031  0.00  0.00    +0.000 A 
ATOM     15  C   UNL     1       4.568   5.242  19.611  0.00  0.00    +0.000 A 
ATOM     16  C   UNL     1       5.659   4.766  18.883  0.00  0.00    +0.000 A 
ATOM     17  C   UNL     1       5.867   5.186  17.566  0.00  0.00    +0.000 A 
ATOM     18 CL   UNL     1       7.247   4.550  16.681  0.00  0.00    +0.000 Cl
ATOM     19  C   UNL     1       4.975   6.098  16.977  0.00  0.00    +0.000 A 
ATOM     20 CL   UNL     1       5.200   6.643  15.319  0.00  0.00    +0.000 Cl
ATOM     21  C   UNL     1       3.881   6.579  17.710  0.00  0.00    +0.000 A 
ENDBRANCH  13  14
ENDBRANCH   1  13
TORSDOF 6
ENDMDL
MODEL 9
REMARK VINA RESULT:      -6.4      4.077      6.650
REMARK  Name = 
REMARK  7 active torsions:
REMARK  status: ('A' for Active; 'I' for Inactive)
REMARK    1  A    between atoms: C_1  and  C_2
REMARK    2  A    between atoms: C_2  and  C_3
REMARK    3  A    between atoms: C_2  and  O_14
REMARK    4  A    between atoms: C_3  and  N_4
REMARK    5  A    between atoms: N_4  and  C_5
REMARK    6  A    between atoms: C_5  and  C_6
REMARK    7  A    between atoms: O_14  and  C_15
REMARK                            x       y       z     vdW  Elec       q    Type
REMARK                         _______ _______ _______ _____ _____    ______ ____
ROOT
ATOM      1  N   UNL     1       2.423   8.025  18.557  0.00  0.00    +0.000 NA
ATOM      2  H   UNL     1       2.912   8.424  19.392  0.00  0.00    +0.000 HD
ENDROOT
BRANCH   1   3
ATOM      3  C   UNL     1       3.416   7.568  17.564  0.00  0.00    +0.000 C 
BRANCH   3   5
ATOM      4  C   UNL     1       4.791   5.649  16.632  0.00  0.00    +0.000 C 
ATOM      5  C   UNL     1       3.824   6.085  17.733  0.00  0.00    +0.000 C 
BRANCH   5   6
ATOM      6  O   UNL     1       2.703   5.270  17.686  0.00  0.00    +0.000 OA
BRANCH   6   7
ATOM      7  C   UNL     1       2.194   4.591  18.743  0.00  0.00    +0.000 A 
ATOM      8  C   UNL     1       1.397   3.462  18.515  0.00  0.00    +0.000 A 
ATOM      9  C   UNL     1       0.899   2.742  19.604  0.00  0.00    +0.000 A 
ATOM     10  C   UNL     1       1.200   3.150  20.905  0.00  0.00    +0.000 A 
ATOM     11  C   UNL     1       1.994   4.282  21.099  0.00  0.00    +0.000 A 
ATOM     12  N   UNL     1       2.471   4.967  20.025  0.00  0.00    +0.000 NA
ENDBRANCH   6   7
ENDBRANCH   5   6
ENDBRANCH   3   5
ENDBRANCH   1   3
BRANCH   1  13
ATOM     13  C   UNL     1       1.482   9.009  18.004  0.00  0.00    +0.000 C 
BRANCH  13  14
ATOM     14  C   UNL     1       0.723   9.715  19.099  0.00  0.00    +0.000 A 
ATOM     15  C   UNL     1      -0.158  10.760  18.776  0.00  0.00    +0.000 A 
ATOM     16  C   UNL     1      -0.887  11.404  19.777  0.00  0.00    +0.000 A 
ATOM     17  C   UNL     1      -0.752  11.013  21.112  0.00  0.00    +0.000 A 
ATOM     18 CL   UNL     1      -1.701  11.841  22.339  0.00  0.00    +0.000 Cl
ATOM     19  C   UNL     1       0.130   9.970  21.446  0.00  0.00    +0.000 A 
ATOM     20 CL   UNL     1       0.320   9.445  23.115  0.00  0.00    +0.000 Cl
ATOM     21  C   UNL     1       0.866   9.327  20.441  0.00  0.00    +0.000 A 
ENDBRANCH  13  14
ENDBRANCH   1  13
TORSDOF 6
ENDMDL
