MODEL 1
REMARK VINA RESULT:      -7.7      0.000      0.000
REMARK  Name = 
REMARK  5 active torsions:
REMARK  status: ('A' for Active; 'I' for Inactive)
REMARK    1  A    between atoms: C_1  and  O_2
REMARK    2  A    between atoms: O_2  and  C_3
REMARK    3  A    between atoms: C_6  and  C_7
REMARK    4  A    between atoms: C_14  and  C_15
REMARK    5  A    between atoms: C_15  and  C_16
REMARK                            x       y       z     vdW  Elec       q    Type
REMARK                         _______ _______ _______ _____ _____    ______ ____
ROOT
ATOM      1  C   UNL     1      -0.071  12.076  19.950  0.00  0.00    +0.000 C 
ATOM      2  O   UNL     1       0.114  12.850  19.012  0.00  0.00    +0.000 OA
ATOM      3  N   UNL     1       0.497  10.781  19.996  0.00  0.00    +0.000 N 
ATOM      4  C   UNL     1       0.263   9.835  21.097  0.00  0.00    +0.000 C 
ATOM      5  C   UNL     1       1.214   8.664  21.226  0.00  0.00    +0.000 C 
ATOM      6  N   UNL     1       1.683   8.227  19.941  0.00  0.00    +0.000 N 
ATOM      7  N   UNL     1       2.341   7.066  19.838  0.00  0.00    +0.000 NA
ATOM      8  C   UNL     1       2.675   7.001  18.542  0.00  0.00    +0.000 A 
ATOM      9  C   UNL     1       2.226   8.151  17.840  0.00  0.00    +0.000 A 
ATOM     10  C   UNL     1       1.596   8.937  18.785  0.00  0.00    +0.000 A 
ATOM     11  C   UNL     1       0.934  10.261  18.698  0.00  0.00    +0.000 C 
ENDROOT
BRANCH   1  15
ATOM     12  C   UNL     1      -2.621  13.222  23.112  0.00  0.00    +0.000 A 
ATOM     13  C   UNL     1      -1.272  13.530  23.231  0.00  0.00    +0.000 A 
ATOM     14  C   UNL     1      -0.411  13.182  22.184  0.00  0.00    +0.000 A 
ATOM     15  C   UNL     1      -0.936  12.543  21.060  0.00  0.00    +0.000 A 
ATOM     16  C   UNL     1      -2.315  12.419  20.987  0.00  0.00    +0.000 A 
ATOM     17  N   UNL     1      -3.163  12.695  21.998  0.00  0.00    +0.000 NA
BRANCH  12  19
ATOM     18  C   UNL     1      -4.266  12.359  24.518  0.00  0.00    +0.000 C 
ATOM     19  O   UNL     1      -3.437  13.477  24.193  0.00  0.00    +0.000 OA
ENDBRANCH  12  19
ENDBRANCH   1  15
BRANCH   8  20
ATOM     20  C   UNL     1       3.499   5.866  18.034  0.00  0.00    +0.000 C 
BRANCH  20  21
ATOM     21  C   UNL     1       2.866   4.594  18.541  0.00  0.00    +0.000 A 
ATOM     22  C   UNL     1       1.623   4.167  18.048  0.00  0.00    +0.000 A 
ATOM     23  C   UNL     1       1.050   2.975  18.501  0.00  0.00    +0.000 A 
ATOM     24  C   UNL     1       1.716   2.200  19.448  0.00  0.00    +0.000 A 
ATOM     25  C   UNL     1       2.950   2.612  19.948  0.00  0.00    +0.000 A 
ATOM     26  C   UNL     1       3.520   3.805  19.500  0.00  0.00    +0.000 A 
ENDBRANCH  20  21
ENDBRANCH   8  20
TORSDOF 4
ENDMDL
MODEL 2
REMARK VINA RESULT:      -7.7      1.740      2.836
REMARK  Name = 
REMARK  5 active torsions:
REMARK  status: ('A' for Active; 'I' for Inactive)
REMARK    1  A    between atoms: C_1  and  O_2
REMARK    2  A    between atoms: O_2  and  C_3
REMARK    3  A    between atoms: C_6  and  C_7
REMARK    4  A    between atoms: C_14  and  C_15
REMARK    5  A    between atoms: C_15  and  C_16
REMARK                            x       y       z     vdW  Elec       q    Type
REMARK                         _______ _______ _______ _____ _____    ______ ____
ROOT
ATOM      1  C   UNL     1       0.223  11.810  19.671  0.00  0.00    +0.000 C 
ATOM      2  O   UNL     1       0.510  12.631  18.802  0.00  0.00    +0.000 OA
ATOM      3  N   UNL     1       0.752  10.499  19.690  0.00  0.00    +0.000 N 
ATOM      4  C   UNL     1       0.396   9.498  20.707  0.00  0.00    +0.000 C 
ATOM      5  C   UNL     1       1.302   8.294  20.849  0.00  0.00    +0.000 C 
ATOM      6  N   UNL     1       1.874   7.918  19.587  0.00  0.00    +0.000 N 
ATOM      7  N   UNL     1       2.509   6.745  19.473  0.00  0.00    +0.000 NA
ATOM      8  C   UNL     1       2.958   6.744  18.210  0.00  0.00    +0.000 A 
ATOM      9  C   UNL     1       2.603   7.946  17.542  0.00  0.00    +0.000 A 
ATOM     10  C   UNL     1       1.909   8.695  18.472  0.00  0.00    +0.000 A 
ATOM     11  C   UNL     1       1.291  10.041  18.406  0.00  0.00    +0.000 C 
ENDROOT
BRANCH   1  15
ATOM     12  C   UNL     1      -2.584  12.856  22.646  0.00  0.00    +0.000 A 
ATOM     13  C   UNL     1      -1.238  13.015  22.948  0.00  0.00    +0.000 A 
ATOM     14  C   UNL     1      -0.290  12.698  21.968  0.00  0.00    +0.000 A 
ATOM     15  C   UNL     1      -0.728  12.239  20.726  0.00  0.00    +0.000 A 
ATOM     16  C   UNL     1      -2.093  12.260  20.488  0.00  0.00    +0.000 A 
ATOM     17  N   UNL     1      -3.030  12.508  21.424  0.00  0.00    +0.000 NA
BRANCH  12  19
ATOM     18  C   UNL     1      -3.141  14.184  24.478  0.00  0.00    +0.000 C 
ATOM     19  O   UNL     1      -3.500  13.073  23.652  0.00  0.00    +0.000 OA
ENDBRANCH  12  19
ENDBRANCH   1  15
BRANCH   8  20
ATOM     20  C   UNL     1       3.796   5.617  17.710  0.00  0.00    +0.000 C 
BRANCH  20  21
ATOM     21  C   UNL     1       5.233   5.959  18.018  0.00  0.00    +0.000 A 
ATOM     22  C   UNL     1       5.899   5.353  19.094  0.00  0.00    +0.000 A 
ATOM     23  C   UNL     1       7.238   5.653  19.362  0.00  0.00    +0.000 A 
ATOM     24  C   UNL     1       7.921   6.560  18.556  0.00  0.00    +0.000 A 
ATOM     25  C   UNL     1       7.272   7.173  17.485  0.00  0.00    +0.000 A 
ATOM     26  C   UNL     1       5.934   6.877  17.219  0.00  0.00    +0.000 A 
ENDBRANCH  20  21
ENDBRANCH   8  20
TORSDOF 4
ENDMDL
MODEL 3
REMARK VINA RESULT:      -7.7      1.820      2.916
REMARK  Name = 
REMARK  5 active torsions:
REMARK  status: ('A' for Active; 'I' for Inactive)
REMARK    1  A    between atoms: C_1  and  O_2
REMARK    2  A    between atoms: O_2  and  C_3
REMARK    3  A    between atoms: C_6  and  C_7
REMARK    4  A    between atoms: C_14  and  C_15
REMARK    5  A    between atoms: C_15  and  C_16
REMARK                            x       y       z     vdW  Elec       q    Type
REMARK                         _______ _______ _______ _____ _____    ______ ____
ROOT
ATOM      1  C   UNL     1       0.261  11.766  19.565  0.00  0.00    +0.000 C 
ATOM      2  O   UNL     1       0.524  12.575  18.676  0.00  0.00    +0.000 OA
ATOM      3  N   UNL     1       0.808  10.462  19.599  0.00  0.00    +0.000 N 
ATOM      4  C   UNL     1       0.481   9.476  20.640  0.00  0.00    +0.000 C 
ATOM      5  C   UNL     1       1.406   8.287  20.789  0.00  0.00    +0.000 C 
ATOM      6  N   UNL     1       1.963   7.895  19.525  0.00  0.00    +0.000 N 
ATOM      7  N   UNL     1       2.613   6.729  19.423  0.00  0.00    +0.000 NA
ATOM      8  C   UNL     1       3.041   6.711  18.153  0.00  0.00    +0.000 A 
ATOM      9  C   UNL     1       2.660   7.896  17.469  0.00  0.00    +0.000 A 
ATOM     10  C   UNL     1       1.971   8.652  18.397  0.00  0.00    +0.000 A 
ATOM     11  C   UNL     1       1.334   9.989  18.316  0.00  0.00    +0.000 C 
ENDROOT
BRANCH   1  15
ATOM     12  C   UNL     1      -2.306  13.175  22.606  0.00  0.00    +0.000 A 
ATOM     13  C   UNL     1      -2.892  12.668  21.454  0.00  0.00    +0.000 A 
ATOM     14  C   UNL     1      -2.061  12.172  20.442  0.00  0.00    +0.000 A 
ATOM     15  C   UNL     1      -0.679  12.201  20.626  0.00  0.00    +0.000 A 
ATOM     16  C   UNL     1      -0.213  12.594  21.871  0.00  0.00    +0.000 A 
ATOM     17  N   UNL     1      -0.982  13.125  22.844  0.00  0.00    +0.000 NA
BRANCH  12  19
ATOM     18  C   UNL     1      -3.927  12.785  24.233  0.00  0.00    +0.000 C 
ATOM     19  O   UNL     1      -3.130  13.753  23.547  0.00  0.00    +0.000 OA
ENDBRANCH  12  19
ENDBRANCH   1  15
BRANCH   8  20
ATOM     20  C   UNL     1       3.887   5.586  17.661  0.00  0.00    +0.000 C 
BRANCH  20  21
ATOM     21  C   UNL     1       5.321   5.936  17.974  0.00  0.00    +0.000 A 
ATOM     22  C   UNL     1       6.014   6.878  17.197  0.00  0.00    +0.000 A 
ATOM     23  C   UNL     1       7.334   7.219  17.504  0.00  0.00    +0.000 A 
ATOM     24  C   UNL     1       7.972   6.623  18.590  0.00  0.00    +0.000 A 
ATOM     25  C   UNL     1       7.297   5.683  19.368  0.00  0.00    +0.000 A 
ATOM     26  C   UNL     1       5.980   5.339  19.060  0.00  0.00    +0.000 A 
ENDBRANCH  20  21
ENDBRANCH   8  20
TORSDOF 4
ENDMDL
MODEL 4
REMARK VINA RESULT:      -7.5      1.817      2.977
REMARK  Name = 
REMARK  5 active torsions:
REMARK  status: ('A' for Active; 'I' for Inactive)
REMARK    1  A    between atoms: C_1  and  O_2
REMARK    2  A    between atoms: O_2  and  C_3
REMARK    3  A    between atoms: C_6  and  C_7
REMARK    4  A    between atoms: C_14  and  C_15
REMARK    5  A    between atoms: C_15  and  C_16
REMARK                            x       y       z     vdW  Elec       q    Type
REMARK                         _______ _______ _______ _____ _____    ______ ____
ROOT
ATOM      1  C   UNL     1       0.339  11.910  19.643  0.00  0.00    +0.000 C 
ATOM      2  O   UNL     1       0.637  12.719  18.766  0.00  0.00    +0.000 OA
ATOM      3  N   UNL     1       0.841  10.588  19.667  0.00  0.00    +0.000 N 
ATOM      4  C   UNL     1       0.472   9.602  20.694  0.00  0.00    +0.000 C 
ATOM      5  C   UNL     1       1.353   8.380  20.837  0.00  0.00    +0.000 C 
ATOM      6  N   UNL     1       1.906   7.983  19.573  0.00  0.00    +0.000 N 
ATOM      7  N   UNL     1       2.516   6.796  19.462  0.00  0.00    +0.000 NA
ATOM      8  C   UNL     1       2.953   6.777  18.196  0.00  0.00    +0.000 A 
ATOM      9  C   UNL     1       2.618   7.982  17.522  0.00  0.00    +0.000 A 
ATOM     10  C   UNL     1       1.949   8.751  18.453  0.00  0.00    +0.000 A 
ATOM     11  C   UNL     1       1.359  10.110  18.383  0.00  0.00    +0.000 C 
ENDROOT
BRANCH   1  15
ATOM     12  C   UNL     1      -2.222  13.389  22.655  0.00  0.00    +0.000 A 
ATOM     13  C   UNL     1      -2.805  12.713  21.592  0.00  0.00    +0.000 A 
ATOM     14  C   UNL     1      -1.973  12.192  20.594  0.00  0.00    +0.000 A 
ATOM     15  C   UNL     1      -0.593  12.367  20.703  0.00  0.00    +0.000 A 
ATOM     16  C   UNL     1      -0.116  12.928  21.877  0.00  0.00    +0.000 A 
ATOM     17  N   UNL     1      -0.890  13.485  22.829  0.00  0.00    +0.000 NA
BRANCH  12  19
ATOM     18  C   UNL     1      -4.254  14.485  22.971  0.00  0.00    +0.000 C 
ATOM     19  O   UNL     1      -3.058  13.985  23.575  0.00  0.00    +0.000 OA
ENDBRANCH  12  19
ENDBRANCH   1  15
BRANCH   8  20
ATOM     20  C   UNL     1       3.763   5.629  17.698  0.00  0.00    +0.000 C 
BRANCH  20  21
ATOM     21  C   UNL     1       5.207   5.928  18.019  0.00  0.00    +0.000 A 
ATOM     22  C   UNL     1       5.828   5.342  19.133  0.00  0.00    +0.000 A 
ATOM     23  C   UNL     1       7.172   5.601  19.416  0.00  0.00    +0.000 A 
ATOM     24  C   UNL     1       7.906   6.446  18.586  0.00  0.00    +0.000 A 
ATOM     25  C   UNL     1       7.302   7.038  17.478  0.00  0.00    +0.000 A 
ATOM     26  C   UNL     1       5.958   6.783  17.198  0.00  0.00    +0.000 A 
ENDBRANCH  20  21
ENDBRANCH   8  20
TORSDOF 4
ENDMDL
MODEL 5
REMARK VINA RESULT:      -7.4      0.747      1.467
REMARK  Name = 
REMARK  5 active torsions:
REMARK  status: ('A' for Active; 'I' for Inactive)
REMARK    1  A    between atoms: C_1  and  O_2
REMARK    2  A    between atoms: O_2  and  C_3
REMARK    3  A    between atoms: C_6  and  C_7
REMARK    4  A    between atoms: C_14  and  C_15
REMARK    5  A    between atoms: C_15  and  C_16
REMARK                            x       y       z     vdW  Elec       q    Type
REMARK                         _______ _______ _______ _____ _____    ______ ____
ROOT
ATOM      1  C   UNL     1      -0.121  12.052  19.944  0.00  0.00    +0.000 C 
ATOM      2  O   UNL     1       0.071  12.870  19.046  0.00  0.00    +0.000 OA
ATOM      3  N   UNL     1       0.468  10.766  19.947  0.00  0.00    +0.000 N 
ATOM      4  C   UNL     1       0.225   9.769  21.000  0.00  0.00    +0.000 C 
ATOM      5  C   UNL     1       1.193   8.609  21.099  0.00  0.00    +0.000 C 
ATOM      6  N   UNL     1       1.699   8.237  19.808  0.00  0.00    +0.000 N 
ATOM      7  N   UNL     1       2.378   7.092  19.670  0.00  0.00    +0.000 NA
ATOM      8  C   UNL     1       2.743   7.090  18.380  0.00  0.00    +0.000 A 
ATOM      9  C   UNL     1       2.291   8.263  17.719  0.00  0.00    +0.000 A 
ATOM     10  C   UNL     1       1.626   8.995  18.682  0.00  0.00    +0.000 A 
ATOM     11  C   UNL     1       0.943  10.311  18.638  0.00  0.00    +0.000 C 
ENDROOT
BRANCH   1  15
ATOM     12  C   UNL     1      -2.585  13.381  23.104  0.00  0.00    +0.000 A 
ATOM     13  C   UNL     1      -3.203  12.774  22.019  0.00  0.00    +0.000 A 
ATOM     14  C   UNL     1      -2.404  12.302  20.971  0.00  0.00    +0.000 A 
ATOM     15  C   UNL     1      -1.020  12.456  21.053  0.00  0.00    +0.000 A 
ATOM     16  C   UNL     1      -0.505  12.943  22.244  0.00  0.00    +0.000 A 
ATOM     17  N   UNL     1      -1.248  13.452  23.247  0.00  0.00    +0.000 NA
BRANCH  12  19
ATOM     18  C   UNL     1      -3.955  15.179  23.669  0.00  0.00    +0.000 C 
ATOM     19  O   UNL     1      -3.389  13.931  24.079  0.00  0.00    +0.000 OA
ENDBRANCH  12  19
ENDBRANCH   1  15
BRANCH   8  20
ATOM     20  C   UNL     1       3.598   5.993  17.843  0.00  0.00    +0.000 C 
BRANCH  20  21
ATOM     21  C   UNL     1       3.013   4.691  18.333  0.00  0.00    +0.000 A 
ATOM     22  C   UNL     1       3.720   3.884  19.238  0.00  0.00    +0.000 A 
ATOM     23  C   UNL     1       3.165   2.690  19.710  0.00  0.00    +0.000 A 
ATOM     24  C   UNL     1       1.900   2.295  19.281  0.00  0.00    +0.000 A 
ATOM     25  C   UNL     1       1.187   3.085  18.380  0.00  0.00    +0.000 A 
ATOM     26  C   UNL     1       1.742   4.274  17.905  0.00  0.00    +0.000 A 
ENDBRANCH  20  21
ENDBRANCH   8  20
TORSDOF 4
ENDMDL
MODEL 6
REMARK VINA RESULT:      -7.4      0.956      1.343
REMARK  Name = 
REMARK  5 active torsions:
REMARK  status: ('A' for Active; 'I' for Inactive)
REMARK    1  A    between atoms: C_1  and  O_2
REMARK    2  A    between atoms: O_2  and  C_3
REMARK    3  A    between atoms: C_6  and  C_7
REMARK    4  A    between atoms: C_14  and  C_15
REMARK    5  A    between atoms: C_15  and  C_16
REMARK                            x       y       z     vdW  Elec       q    Type
REMARK                         _______ _______ _______ _____ _____    ______ ____
ROOT
ATOM      1  C   UNL     1       0.172  11.584  19.604  0.00  0.00    +0.000 C 
ATOM      2  O   UNL     1       0.473  12.451  18.785  0.00  0.00    +0.000 OA
ATOM      3  N   UNL     1       0.785  10.309  19.629  0.00  0.00    +0.000 N 
ATOM      4  C   UNL     1       0.415   9.253  20.583  0.00  0.00    +0.000 C 
ATOM      5  C   UNL     1       1.386   8.107  20.765  0.00  0.00    +0.000 C 
ATOM      6  N   UNL     1       2.084   7.812  19.545  0.00  0.00    +0.000 N 
ATOM      7  N   UNL     1       2.804   6.687  19.451  0.00  0.00    +0.000 NA
ATOM      8  C   UNL     1       3.353   6.760  18.231  0.00  0.00    +0.000 A 
ATOM      9  C   UNL     1       2.974   7.958  17.570  0.00  0.00    +0.000 A 
ATOM     10  C   UNL     1       2.158   8.628  18.461  0.00  0.00    +0.000 A 
ATOM     11  C   UNL     1       1.457   9.932  18.382  0.00  0.00    +0.000 C 
ENDROOT
BRANCH   1  15
ATOM     12  C   UNL     1      -2.966  12.385  22.311  0.00  0.00    +0.000 A 
ATOM     13  C   UNL     1      -1.699  12.178  22.840  0.00  0.00    +0.000 A 
ATOM     14  C   UNL     1      -0.638  11.936  21.959  0.00  0.00    +0.000 A 
ATOM     15  C   UNL     1      -0.888  11.913  20.587  0.00  0.00    +0.000 A 
ATOM     16  C   UNL     1      -2.159  12.277  20.168  0.00  0.00    +0.000 A 
ATOM     17  N   UNL     1      -3.211  12.463  20.989  0.00  0.00    +0.000 NA
BRANCH  12  19
ATOM     18  C   UNL     1      -3.648  13.252  24.364  0.00  0.00    +0.000 C 
ATOM     19  O   UNL     1      -4.017  12.520  23.192  0.00  0.00    +0.000 OA
ENDBRANCH  12  19
ENDBRANCH   1  15
BRANCH   8  20
ATOM     20  C   UNL     1       4.304   5.707  17.771  0.00  0.00    +0.000 C 
BRANCH  20  21
ATOM     21  C   UNL     1       3.720   4.374  18.170  0.00  0.00    +0.000 A 
ATOM     22  C   UNL     1       4.279   3.633  19.223  0.00  0.00    +0.000 A 
ATOM     23  C   UNL     1       3.722   2.410  19.606  0.00  0.00    +0.000 A 
ATOM     24  C   UNL     1       2.600   1.919  18.942  0.00  0.00    +0.000 A 
ATOM     25  C   UNL     1       2.035   2.642  17.893  0.00  0.00    +0.000 A 
ATOM     26  C   UNL     1       2.594   3.861  17.506  0.00  0.00    +0.000 A 
ENDBRANCH  20  21
ENDBRANCH   8  20
TORSDOF 4
ENDMDL
MODEL 7
REMARK VINA RESULT:      -7.4      2.564      4.167
REMARK  Name = 
REMARK  5 active torsions:
REMARK  status: ('A' for Active; 'I' for Inactive)
REMARK    1  A    between atoms: C_1  and  O_2
REMARK    2  A    between atoms: O_2  and  C_3
REMARK    3  A    between atoms: C_6  and  C_7
REMARK    4  A    between atoms: C_14  and  C_15
REMARK    5  A    between atoms: C_15  and  C_16
REMARK                            x       y       z     vdW  Elec       q    Type
REMARK                         _______ _______ _______ _____ _____    ______ ____
ROOT
ATOM      1  C   UNL     1       0.303  10.042  20.841  0.00  0.00    +0.000 C 
ATOM      2  O   UNL     1      -0.174   9.733  21.931  0.00  0.00    +0.000 OA
ATOM      3  N   UNL     1       1.006   9.124  20.026  0.00  0.00    +0.000 N 
ATOM      4  C   UNL     1       1.605   9.487  18.732  0.00  0.00    +0.000 C 
ATOM      5  C   UNL     1       1.977   8.358  17.795  0.00  0.00    +0.000 C 
ATOM      6  N   UNL     1       2.393   7.191  18.520  0.00  0.00    +0.000 N 
ATOM      7  N   UNL     1       2.979   6.180  17.865  0.00  0.00    +0.000 NA
ATOM      8  C   UNL     1       3.178   5.256  18.815  0.00  0.00    +0.000 A 
ATOM      9  C   UNL     1       2.691   5.702  20.072  0.00  0.00    +0.000 A 
ATOM     10  C   UNL     1       2.174   6.961  19.841  0.00  0.00    +0.000 A 
ATOM     11  C   UNL     1       1.509   7.944  20.732  0.00  0.00    +0.000 C 
ENDROOT
BRANCH   1  15
ATOM     12  C   UNL     1      -0.015  14.027  19.484  0.00  0.00    +0.000 A 
ATOM     13  C   UNL     1      -1.076  13.171  19.219  0.00  0.00    +0.000 A 
ATOM     14  C   UNL     1      -1.003  11.852  19.681  0.00  0.00    +0.000 A 
ATOM     15  C   UNL     1       0.126  11.444  20.392  0.00  0.00    +0.000 A 
ATOM     16  C   UNL     1       1.052  12.420  20.723  0.00  0.00    +0.000 A 
ATOM     17  N   UNL     1       1.038  13.682  20.250  0.00  0.00    +0.000 NA
BRANCH  12  19
ATOM     18  C   UNL     1       1.253  15.850  18.779  0.00  0.00    +0.000 C 
ATOM     19  O   UNL     1      -0.053  15.290  18.936  0.00  0.00    +0.000 OA
ENDBRANCH  12  19
ENDBRANCH   1  15
BRANCH   8  20
ATOM     20  C   UNL     1       3.753   3.927  18.460  0.00  0.00    +0.000 C 
BRANCH  20  21
ATOM     21  C   UNL     1       4.969   4.181  17.604  0.00  0.00    +0.000 A 
ATOM     22  C   UNL     1       6.177   4.604  18.182  0.00  0.00    +0.000 A 
ATOM     23  C   UNL     1       7.309   4.815  17.390  0.00  0.00    +0.000 A 
ATOM     24  C   UNL     1       7.243   4.605  16.014  0.00  0.00    +0.000 A 
ATOM     25  C   UNL     1       6.050   4.188  15.425  0.00  0.00    +0.000 A 
ATOM     26  C   UNL     1       4.918   3.981  16.215  0.00  0.00    +0.000 A 
ENDBRANCH  20  21
ENDBRANCH   8  20
TORSDOF 4
ENDMDL
MODEL 8
REMARK VINA RESULT:      -7.3      4.306     10.067
REMARK  Name = 
REMARK  5 active torsions:
REMARK  status: ('A' for Active; 'I' for Inactive)
REMARK    1  A    between atoms: C_1  and  O_2
REMARK    2  A    between atoms: O_2  and  C_3
REMARK    3  A    between atoms: C_6  and  C_7
REMARK    4  A    between atoms: C_14  and  C_15
REMARK    5  A    between atoms: C_15  and  C_16
REMARK                            x       y       z     vdW  Elec       q    Type
REMARK                         _______ _______ _______ _____ _____    ______ ____
ROOT
ATOM      1  C   UNL     1       5.123   5.014  18.016  0.00  0.00    +0.000 C 
ATOM      2  O   UNL     1       5.518   4.188  18.838  0.00  0.00    +0.000 OA
ATOM      3  N   UNL     1       4.168   6.009  18.331  0.00  0.00    +0.000 N 
ATOM      4  C   UNL     1       3.665   6.984  17.351  0.00  0.00    +0.000 C 
ATOM      5  C   UNL     1       2.965   8.214  17.888  0.00  0.00    +0.000 C 
ATOM      6  N   UNL     1       2.251   7.923  19.100  0.00  0.00    +0.000 N 
ATOM      7  N   UNL     1       1.386   8.820  19.588  0.00  0.00    +0.000 NA
ATOM      8  C   UNL     1       0.956   8.263  20.728  0.00  0.00    +0.000 A 
ATOM      9  C   UNL     1       1.580   7.006  20.950  0.00  0.00    +0.000 A 
ATOM     10  C   UNL     1       2.429   6.822  19.876  0.00  0.00    +0.000 A 
ATOM     11  C   UNL     1       3.367   5.728  19.525  0.00  0.00    +0.000 C 
ENDROOT
BRANCH   1  15
ATOM     12  C   UNL     1       6.889   4.727  14.193  0.00  0.00    +0.000 A 
ATOM     13  C   UNL     1       5.655   4.117  14.378  0.00  0.00    +0.000 A 
ATOM     14  C   UNL     1       5.039   4.221  15.630  0.00  0.00    +0.000 A 
ATOM     15  C   UNL     1       5.681   4.932  16.645  0.00  0.00    +0.000 A 
ATOM     16  C   UNL     1       6.835   5.619  16.304  0.00  0.00    +0.000 A 
ATOM     17  N   UNL     1       7.479   5.498  15.126  0.00  0.00    +0.000 NA
BRANCH  12  19
ATOM     18  C   UNL     1       6.781   3.687  12.110  0.00  0.00    +0.000 C 
ATOM     19  O   UNL     1       7.530   4.530  12.989  0.00  0.00    +0.000 OA
ENDBRANCH  12  19
ENDBRANCH   1  15
BRANCH   8  20
ATOM     20  C   UNL     1       0.017   9.003  21.620  0.00  0.00    +0.000 C 
BRANCH  20  21
ATOM     21  C   UNL     1      -0.343  10.290  20.918  0.00  0.00    +0.000 A 
ATOM     22  C   UNL     1       0.117  11.523  21.406  0.00  0.00    +0.000 A 
ATOM     23  C   UNL     1      -0.197  12.712  20.741  0.00  0.00    +0.000 A 
ATOM     24  C   UNL     1      -0.970  12.677  19.583  0.00  0.00    +0.000 A 
ATOM     25  C   UNL     1      -1.436  11.459  19.088  0.00  0.00    +0.000 A 
ATOM     26  C   UNL     1      -1.127  10.272  19.755  0.00  0.00    +0.000 A 
ENDBRANCH  20  21
ENDBRANCH   8  20
TORSDOF 4
ENDMDL
MODEL 9
REMARK VINA RESULT:      -7.3      1.321      1.363
REMARK  Name = 
REMARK  5 active torsions:
REMARK  status: ('A' for Active; 'I' for Inactive)
REMARK    1  A    between atoms: C_1  and  O_2
REMARK    2  A    between atoms: O_2  and  C_3
REMARK    3  A    between atoms: C_6  and  C_7
REMARK    4  A    between atoms: C_14  and  C_15
REMARK    5  A    between atoms: C_15  and  C_16
REMARK                            x       y       z     vdW  Elec       q    Type
REMARK                         _______ _______ _______ _____ _____    ______ ____
ROOT
ATOM      1  C   UNL     1      -0.854  12.640  19.363  0.00  0.00    +0.000 C 
ATOM      2  O   UNL     1      -0.613  13.225  18.309  0.00  0.00    +0.000 OA
ATOM      3  N   UNL     1      -0.235  11.420  19.720  0.00  0.00    +0.000 N 
ATOM      4  C   UNL     1      -0.534  10.695  20.964  0.00  0.00    +0.000 C 
ATOM      5  C   UNL     1       0.452   9.636  21.410  0.00  0.00    +0.000 C 
ATOM      6  N   UNL     1       1.066   8.987  20.286  0.00  0.00    +0.000 N 
ATOM      7  N   UNL     1       1.783   7.872  20.478  0.00  0.00    +0.000 NA
ATOM      8  C   UNL     1       2.247   7.576  19.256  0.00  0.00    +0.000 A 
ATOM      9  C   UNL     1       1.818   8.534  18.300  0.00  0.00    +0.000 A 
ATOM     10  C   UNL     1       1.062   9.448  19.008  0.00  0.00    +0.000 A 
ATOM     11  C   UNL     1       0.352  10.684  18.597  0.00  0.00    +0.000 C 
ENDROOT
BRANCH   1  15
ATOM     12  C   UNL     1      -3.737  14.218  22.012  0.00  0.00    +0.000 A 
ATOM     13  C   UNL     1      -2.453  14.742  22.075  0.00  0.00    +0.000 A 
ATOM     14  C   UNL     1      -1.486  14.252  21.188  0.00  0.00    +0.000 A 
ATOM     15  C   UNL     1      -1.845  13.260  20.275  0.00  0.00    +0.000 A 
ATOM     16  C   UNL     1      -3.187  12.918  20.206  0.00  0.00    +0.000 A 
ATOM     17  N   UNL     1      -4.129  13.332  21.077  0.00  0.00    +0.000 NA
BRANCH  12  19
ATOM     18  C   UNL     1      -5.494  13.569  23.399  0.00  0.00    +0.000 C 
ATOM     19  O   UNL     1      -4.649  14.635  22.957  0.00  0.00    +0.000 OA
ENDBRANCH  12  19
ENDBRANCH   1  15
BRANCH   8  20
ATOM     20  C   UNL     1       3.168   6.419  19.062  0.00  0.00    +0.000 C 
BRANCH  20  21
ATOM     21  C   UNL     1       2.349   5.163  19.231  0.00  0.00    +0.000 A 
ATOM     22  C   UNL     1       1.844   4.482  18.111  0.00  0.00    +0.000 A 
ATOM     23  C   UNL     1       1.106   3.306  18.268  0.00  0.00    +0.000 A 
ATOM     24  C   UNL     1       0.868   2.799  19.544  0.00  0.00    +0.000 A 
ATOM     25  C   UNL     1       1.361   3.466  20.665  0.00  0.00    +0.000 A 
ATOM     26  C   UNL     1       2.094   4.644  20.509  0.00  0.00    +0.000 A 
ENDBRANCH  20  21
ENDBRANCH   8  20
TORSDOF 4
ENDMDL
