MODEL 1
REMARK VINA RESULT:      -8.6      0.000      0.000
REMARK  Name = 
REMARK  6 active torsions:
REMARK  status: ('A' for Active; 'I' for Inactive)
REMARK    1  A    between atoms: C_1  and  C_2
REMARK    2  A    between atoms: C_10  and  C_11
REMARK    3  A    between atoms: C_11  and  C_12
REMARK    4  A    between atoms: C_12  and  N_13
REMARK    5  A    between atoms: N_16  and  C_17
REMARK    6  A    between atoms: C_20  and  C_21
REMARK                            x       y       z     vdW  Elec       q    Type
REMARK                         _______ _______ _______ _____ _____    ______ ____
ROOT
ATOM      1  C   UNL     1       7.822   8.323  17.678  0.00  0.00    +0.000 C 
ENDROOT
BRANCH   1  11
ATOM      2  C   UNL     1       9.121  17.666  18.134  0.00  0.00    +0.000 C 
ATOM      3  C   UNL     1       8.731  16.213  18.061  0.00  0.00    +0.000 C 
ATOM      4  O   UNL     1       7.591  15.863  17.779  0.00  0.00    +0.000 OA
ATOM      5  N   UNL     1       9.785  15.362  18.321  0.00  0.00    +0.000 N 
ATOM      6  C   UNL     1       9.580  14.011  18.391  0.00  0.00    +0.000 A 
ATOM      7  N   UNL     1      10.180  13.238  19.263  0.00  0.00    +0.000 NA
ATOM      8  C   UNL     1       9.642  11.989  19.053  0.00  0.00    +0.000 A 
ATOM      9  C   UNL     1       9.817  10.809  19.792  0.00  0.00    +0.000 A 
ATOM     10  C   UNL     1       9.198   9.638  19.345  0.00  0.00    +0.000 A 
ATOM     11  C   UNL     1       8.446   9.616  18.158  0.00  0.00    +0.000 A 
ATOM     12  C   UNL     1       8.232  10.806  17.433  0.00  0.00    +0.000 A 
ATOM     13  C   UNL     1       8.819  11.975  17.937  0.00  0.00    +0.000 A 
ATOM     14  N   UNL     1       8.751  13.296  17.564  0.00  0.00    +0.000 N 
ATOM     15  H   UNL     1      10.563  15.697  18.874  0.00  0.00    +0.000 HD
ATOM     16  H   UNL     1       8.188  13.694  16.824  0.00  0.00    +0.000 HD
ENDBRANCH   1  11
BRANCH   1  17
ATOM     17  C   UNL     1       8.149   7.105  18.564  0.00  0.00    +0.000 C 
BRANCH  17  18
ATOM     18  N   UNL     1       7.585   5.864  18.044  0.00  0.00    +0.000 N 
ATOM     19  C   UNL     1       6.258   5.591  18.306  0.00  0.00    +0.000 C 
ATOM     20  O   UNL     1       5.559   6.375  18.939  0.00  0.00    +0.000 OA
ATOM     21  N   UNL     1       5.880   4.352  17.837  0.00  0.00    +0.000 N 
ATOM     22  H   UNL     1       7.906   5.568  17.134  0.00  0.00    +0.000 HD
ATOM     23  H   UNL     1       6.628   3.753  17.522  0.00  0.00    +0.000 HD
BRANCH  21  24
ATOM     24  C   UNL     1       4.622   3.745  18.070  0.00  0.00    +0.000 A 
ATOM     25  C   UNL     1       3.693   3.508  17.054  0.00  0.00    +0.000 A 
ATOM     26  C   UNL     1       2.420   3.011  17.341  0.00  0.00    +0.000 A 
ATOM     27  C   UNL     1       2.050   2.717  18.655  0.00  0.00    +0.000 A 
ATOM     28  C   UNL     1       0.648   2.251  18.927  0.00  0.00    +0.000 C 
ATOM     29  C   UNL     1       3.001   2.898  19.669  0.00  0.00    +0.000 A 
ATOM     30 CL   UNL     1       2.630   2.534  21.319  0.00  0.00    +0.000 Cl
ATOM     31  C   UNL     1       4.279   3.401  19.381  0.00  0.00    +0.000 A 
ENDBRANCH  21  24
ENDBRANCH  17  18
ENDBRANCH   1  17
TORSDOF 4
ENDMDL
MODEL 2
REMARK VINA RESULT:      -8.2      1.593      1.878
REMARK  Name = 
REMARK  6 active torsions:
REMARK  status: ('A' for Active; 'I' for Inactive)
REMARK    1  A    between atoms: C_1  and  C_2
REMARK    2  A    between atoms: C_10  and  C_11
REMARK    3  A    between atoms: C_11  and  C_12
REMARK    4  A    between atoms: C_12  and  N_13
REMARK    5  A    between atoms: N_16  and  C_17
REMARK    6  A    between atoms: C_20  and  C_21
REMARK                            x       y       z     vdW  Elec       q    Type
REMARK                         _______ _______ _______ _____ _____    ______ ____
ROOT
ATOM      1  C   UNL     1       8.621   9.556  18.807  0.00  0.00    +0.000 C 
ENDROOT
BRANCH   1  11
ATOM      2  C   UNL     1      10.657  18.631  17.167  0.00  0.00    +0.000 C 
ATOM      3  C   UNL     1      10.182  17.246  17.519  0.00  0.00    +0.000 C 
ATOM      4  O   UNL     1       9.045  17.037  17.928  0.00  0.00    +0.000 OA
ATOM      5  N   UNL     1      11.143  16.280  17.309  0.00  0.00    +0.000 N 
ATOM      6  C   UNL     1      10.908  14.982  17.670  0.00  0.00    +0.000 A 
ATOM      7  N   UNL     1      11.821  14.206  18.200  0.00  0.00    +0.000 NA
ATOM      8  C   UNL     1      11.163  13.032  18.485  0.00  0.00    +0.000 A 
ATOM      9  C   UNL     1      11.617  11.904  19.184  0.00  0.00    +0.000 A 
ATOM     10  C   UNL     1      10.769  10.798  19.300  0.00  0.00    +0.000 A 
ATOM     11  C   UNL     1       9.500  10.784  18.698  0.00  0.00    +0.000 A 
ATOM     12  C   UNL     1       9.020  11.929  18.029  0.00  0.00    +0.000 A 
ATOM     13  C   UNL     1       9.872  13.042  17.979  0.00  0.00    +0.000 A 
ATOM     14  N   UNL     1       9.713  14.324  17.511  0.00  0.00    +0.000 N 
ATOM     15  H   UNL     1      12.119  16.547  17.320  0.00  0.00    +0.000 HD
ATOM     16  H   UNL     1       8.873  14.735  17.125  0.00  0.00    +0.000 HD
ENDBRANCH   1  11
BRANCH   1  17
ATOM     17  C   UNL     1       8.517   8.745  17.501  0.00  0.00    +0.000 C 
BRANCH  17  18
ATOM     18  N   UNL     1       7.155   8.305  17.219  0.00  0.00    +0.000 N 
ATOM     19  C   UNL     1       6.745   7.089  17.724  0.00  0.00    +0.000 C 
ATOM     20  O   UNL     1       7.491   6.399  18.410  0.00  0.00    +0.000 OA
ATOM     21  N   UNL     1       5.473   6.755  17.310  0.00  0.00    +0.000 N 
ATOM     22  H   UNL     1       6.442   9.020  17.207  0.00  0.00    +0.000 HD
ATOM     23  H   UNL     1       5.080   7.337  16.586  0.00  0.00    +0.000 HD
BRANCH  21  24
ATOM     24  C   UNL     1       4.838   5.515  17.560  0.00  0.00    +0.000 A 
ATOM     25  C   UNL     1       4.724   4.513  16.594  0.00  0.00    +0.000 A 
ATOM     26  C   UNL     1       3.992   3.350  16.842  0.00  0.00    +0.000 A 
ATOM     27  C   UNL     1       3.371   3.150  18.077  0.00  0.00    +0.000 A 
ATOM     28  C   UNL     1       2.536   1.917  18.279  0.00  0.00    +0.000 C 
ATOM     29  C   UNL     1       3.534   4.127  19.069  0.00  0.00    +0.000 A 
ATOM     30 CL   UNL     1       2.818   3.944  20.632  0.00  0.00    +0.000 Cl
ATOM     31  C   UNL     1       4.267   5.298  18.817  0.00  0.00    +0.000 A 
ENDBRANCH  21  24
ENDBRANCH  17  18
ENDBRANCH   1  17
TORSDOF 4
ENDMDL
MODEL 3
REMARK VINA RESULT:      -8.1      3.964     10.913
REMARK  Name = 
REMARK  6 active torsions:
REMARK  status: ('A' for Active; 'I' for Inactive)
REMARK    1  A    between atoms: C_1  and  C_2
REMARK    2  A    between atoms: C_10  and  C_11
REMARK    3  A    between atoms: C_11  and  C_12
REMARK    4  A    between atoms: C_12  and  N_13
REMARK    5  A    between atoms: N_16  and  C_17
REMARK    6  A    between atoms: C_20  and  C_21
REMARK                            x       y       z     vdW  Elec       q    Type
REMARK                         _______ _______ _______ _____ _____    ______ ____
ROOT
ATOM      1  C   UNL     1       7.495   6.253  16.641  0.00  0.00    +0.000 C 
ENDROOT
BRANCH   1  11
ATOM      2  C   UNL     1       0.972   2.257  22.178  0.00  0.00    +0.000 C 
ATOM      3  C   UNL     1       1.961   3.056  21.372  0.00  0.00    +0.000 C 
ATOM      4  O   UNL     1       2.242   4.215  21.657  0.00  0.00    +0.000 OA
ATOM      5  N   UNL     1       2.504   2.339  20.326  0.00  0.00    +0.000 N 
ATOM      6  C   UNL     1       3.347   2.946  19.437  0.00  0.00    +0.000 A 
ATOM      7  N   UNL     1       3.335   2.697  18.150  0.00  0.00    +0.000 NA
ATOM      8  C   UNL     1       4.262   3.562  17.616  0.00  0.00    +0.000 A 
ATOM      9  C   UNL     1       4.563   3.825  16.271  0.00  0.00    +0.000 A 
ATOM     10  C   UNL     1       5.596   4.720  15.976  0.00  0.00    +0.000 A 
ATOM     11  C   UNL     1       6.356   5.320  16.993  0.00  0.00    +0.000 A 
ATOM     12  C   UNL     1       6.033   5.093  18.347  0.00  0.00    +0.000 A 
ATOM     13  C   UNL     1       4.956   4.235  18.610  0.00  0.00    +0.000 A 
ATOM     14  N   UNL     1       4.312   3.865  19.767  0.00  0.00    +0.000 N 
ATOM     15  H   UNL     1       1.988   1.556  19.947  0.00  0.00    +0.000 HD
ATOM     16  H   UNL     1       4.491   4.205  20.703  0.00  0.00    +0.000 HD
ENDBRANCH   1  11
BRANCH   1  17
ATOM     17  C   UNL     1       7.278   7.706  17.107  0.00  0.00    +0.000 C 
BRANCH  17  18
ATOM     18  N   UNL     1       8.191   8.096  18.176  0.00  0.00    +0.000 N 
ATOM     19  C   UNL     1       8.441   9.440  18.363  0.00  0.00    +0.000 C 
ATOM     20  O   UNL     1       7.899  10.291  17.667  0.00  0.00    +0.000 OA
ATOM     21  N   UNL     1       9.385   9.662  19.342  0.00  0.00    +0.000 N 
ATOM     22  H   UNL     1       8.150   7.551  19.026  0.00  0.00    +0.000 HD
ATOM     23  H   UNL     1       9.877   8.845  19.672  0.00  0.00    +0.000 HD
BRANCH  21  24
ATOM     24  C   UNL     1       9.939  10.924  19.664  0.00  0.00    +0.000 A 
ATOM     25  C   UNL     1       9.637  11.607  20.844  0.00  0.00    +0.000 A 
ATOM     26  C   UNL     1      10.114  12.900  21.074  0.00  0.00    +0.000 A 
ATOM     27  C   UNL     1      10.928  13.535  20.133  0.00  0.00    +0.000 A 
ATOM     28  C   UNL     1      11.363  14.950  20.388  0.00  0.00    +0.000 C 
ATOM     29  C   UNL     1      11.282  12.828  18.975  0.00  0.00    +0.000 A 
ATOM     30 CL   UNL     1      12.305  13.535  17.774  0.00  0.00    +0.000 Cl
ATOM     31  C   UNL     1      10.798  11.531  18.744  0.00  0.00    +0.000 A 
ENDBRANCH  21  24
ENDBRANCH  17  18
ENDBRANCH   1  17
TORSDOF 4
ENDMDL
MODEL 4
REMARK VINA RESULT:      -8.1      1.415      1.580
REMARK  Name = 
REMARK  6 active torsions:
REMARK  status: ('A' for Active; 'I' for Inactive)
REMARK    1  A    between atoms: C_1  and  C_2
REMARK    2  A    between atoms: C_10  and  C_11
REMARK    3  A    between atoms: C_11  and  C_12
REMARK    4  A    between atoms: C_12  and  N_13
REMARK    5  A    between atoms: N_16  and  C_17
REMARK    6  A    between atoms: C_20  and  C_21
REMARK                            x       y       z     vdW  Elec       q    Type
REMARK                         _______ _______ _______ _____ _____    ______ ____
ROOT
ATOM      1  C   UNL     1       7.644   9.306  17.823  0.00  0.00    +0.000 C 
ENDROOT
BRANCH   1  11
ATOM      2  C   UNL     1      10.973  18.140  18.075  0.00  0.00    +0.000 C 
ATOM      3  C   UNL     1      10.273  16.807  18.056  0.00  0.00    +0.000 C 
ATOM      4  O   UNL     1       9.058  16.716  17.915  0.00  0.00    +0.000 OA
ATOM      5  N   UNL     1      11.141  15.744  18.192  0.00  0.00    +0.000 N 
ATOM      6  C   UNL     1      10.660  14.468  18.293  0.00  0.00    +0.000 A 
ATOM      7  N   UNL     1      11.177  13.565  19.090  0.00  0.00    +0.000 NA
ATOM      8  C   UNL     1      10.361  12.466  18.953  0.00  0.00    +0.000 A 
ATOM      9  C   UNL     1      10.363  11.261  19.671  0.00  0.00    +0.000 A 
ATOM     10  C   UNL     1       9.458  10.260  19.307  0.00  0.00    +0.000 A 
ATOM     11  C   UNL     1       8.585  10.425  18.219  0.00  0.00    +0.000 A 
ATOM     12  C   UNL     1       8.548  11.648  17.519  0.00  0.00    +0.000 A 
ATOM     13  C   UNL     1       9.429  12.653  17.944  0.00  0.00    +0.000 A 
ATOM     14  N   UNL     1       9.603  13.965  17.575  0.00  0.00    +0.000 N 
ATOM     15  H   UNL     1      12.033  15.893  18.647  0.00  0.00    +0.000 HD
ATOM     16  H   UNL     1       9.056  14.491  16.905  0.00  0.00    +0.000 HD
ENDBRANCH   1  11
BRANCH   1  17
ATOM     17  C   UNL     1       8.334   7.937  17.664  0.00  0.00    +0.000 C 
BRANCH  17  18
ATOM     18  N   UNL     1       7.769   6.917  18.541  0.00  0.00    +0.000 N 
ATOM     19  C   UNL     1       6.533   6.393  18.221  0.00  0.00    +0.000 C 
ATOM     20  O   UNL     1       5.929   6.754  17.216  0.00  0.00    +0.000 OA
ATOM     21  N   UNL     1       6.080   5.510  19.175  0.00  0.00    +0.000 N 
ATOM     22  H   UNL     1       8.418   6.255  18.941  0.00  0.00    +0.000 HD
ATOM     23  H   UNL     1       6.607   5.482  20.035  0.00  0.00    +0.000 HD
BRANCH  21  24
ATOM     24  C   UNL     1       4.795   4.915  19.186  0.00  0.00    +0.000 A 
ATOM     25  C   UNL     1       3.651   5.589  19.621  0.00  0.00    +0.000 A 
ATOM     26  C   UNL     1       2.422   4.933  19.723  0.00  0.00    +0.000 A 
ATOM     27  C   UNL     1       2.301   3.587  19.370  0.00  0.00    +0.000 A 
ATOM     28  C   UNL     1       0.978   2.902  19.561  0.00  0.00    +0.000 C 
ATOM     29  C   UNL     1       3.435   2.926  18.876  0.00  0.00    +0.000 A 
ATOM     30 CL   UNL     1       3.363   1.267  18.395  0.00  0.00    +0.000 Cl
ATOM     31  C   UNL     1       4.671   3.584  18.778  0.00  0.00    +0.000 A 
ENDBRANCH  21  24
ENDBRANCH  17  18
ENDBRANCH   1  17
TORSDOF 4
ENDMDL
MODEL 5
REMARK VINA RESULT:      -8.1      1.561      1.846
REMARK  Name = 
REMARK  6 active torsions:
REMARK  status: ('A' for Active; 'I' for Inactive)
REMARK    1  A    between atoms: C_1  and  C_2
REMARK    2  A    between atoms: C_10  and  C_11
REMARK    3  A    between atoms: C_11  and  C_12
REMARK    4  A    between atoms: C_12  and  N_13
REMARK    5  A    between atoms: N_16  and  C_17
REMARK    6  A    between atoms: C_20  and  C_21
REMARK                            x       y       z     vdW  Elec       q    Type
REMARK                         _______ _______ _______ _____ _____    ______ ____
ROOT
ATOM      1  C   UNL     1       8.804   9.037  18.919  0.00  0.00    +0.000 C 
ENDROOT
BRANCH   1  11
ATOM      2  C   UNL     1      11.547  17.941  17.375  0.00  0.00    +0.000 C 
ATOM      3  C   UNL     1      10.963  16.560  17.512  0.00  0.00    +0.000 C 
ATOM      4  O   UNL     1      10.072  16.158  16.772  0.00  0.00    +0.000 OA
ATOM      5  N   UNL     1      11.550  15.828  18.523  0.00  0.00    +0.000 N 
ATOM      6  C   UNL     1      11.071  14.588  18.846  0.00  0.00    +0.000 A 
ATOM      7  N   UNL     1      10.987  14.149  20.077  0.00  0.00    +0.000 NA
ATOM      8  C   UNL     1      10.387  12.915  19.970  0.00  0.00    +0.000 A 
ATOM      9  C   UNL     1       9.928  12.057  20.980  0.00  0.00    +0.000 A 
ATOM     10  C   UNL     1       9.395  10.816  20.618  0.00  0.00    +0.000 A 
ATOM     11  C   UNL     1       9.350  10.404  19.276  0.00  0.00    +0.000 A 
ATOM     12  C   UNL     1       9.771  11.277  18.252  0.00  0.00    +0.000 A 
ATOM     13  C   UNL     1      10.248  12.536  18.643  0.00  0.00    +0.000 A 
ATOM     14  N   UNL     1      10.642  13.649  17.941  0.00  0.00    +0.000 N 
ATOM     15  H   UNL     1      11.997  16.317  19.288  0.00  0.00    +0.000 HD
ATOM     16  H   UNL     1      10.617  13.781  16.938  0.00  0.00    +0.000 HD
ENDBRANCH   1  11
BRANCH   1  17
ATOM     17  C   UNL     1       7.991   9.013  17.610  0.00  0.00    +0.000 C 
BRANCH  17  18
ATOM     18  N   UNL     1       7.779   7.661  17.104  0.00  0.00    +0.000 N 
ATOM     19  C   UNL     1       6.578   7.042  17.381  0.00  0.00    +0.000 C 
ATOM     20  O   UNL     1       5.698   7.613  18.016  0.00  0.00    +0.000 OA
ATOM     21  N   UNL     1       6.545   5.742  16.924  0.00  0.00    +0.000 N 
ATOM     22  H   UNL     1       8.161   7.455  16.192  0.00  0.00    +0.000 HD
ATOM     23  H   UNL     1       7.425   5.366  16.605  0.00  0.00    +0.000 HD
BRANCH  21  24
ATOM     24  C   UNL     1       5.500   4.820  17.174  0.00  0.00    +0.000 A 
ATOM     25  C   UNL     1       4.443   4.612  16.286  0.00  0.00    +0.000 A 
ATOM     26  C   UNL     1       3.373   3.778  16.619  0.00  0.00    +0.000 A 
ATOM     27  C   UNL     1       3.346   3.110  17.845  0.00  0.00    +0.000 A 
ATOM     28  C   UNL     1       2.145   2.278  18.192  0.00  0.00    +0.000 C 
ATOM     29  C   UNL     1       4.436   3.270  18.713  0.00  0.00    +0.000 A 
ATOM     30 CL   UNL     1       4.491   2.459  20.239  0.00  0.00    +0.000 Cl
ATOM     31  C   UNL     1       5.508   4.112  18.379  0.00  0.00    +0.000 A 
ENDBRANCH  21  24
ENDBRANCH  17  18
ENDBRANCH   1  17
TORSDOF 4
ENDMDL
MODEL 6
REMARK VINA RESULT:      -8.1      3.697     11.316
REMARK  Name = 
REMARK  6 active torsions:
REMARK  status: ('A' for Active; 'I' for Inactive)
REMARK    1  A    between atoms: C_1  and  C_2
REMARK    2  A    between atoms: C_10  and  C_11
REMARK    3  A    between atoms: C_11  and  C_12
REMARK    4  A    between atoms: C_12  and  N_13
REMARK    5  A    between atoms: N_16  and  C_17
REMARK    6  A    between atoms: C_20  and  C_21
REMARK                            x       y       z     vdW  Elec       q    Type
REMARK                         _______ _______ _______ _____ _____    ______ ____
ROOT
ATOM      1  C   UNL     1       8.337   7.564  18.485  0.00  0.00    +0.000 C 
ENDROOT
BRANCH   1  11
ATOM      2  C   UNL     1       0.617   2.132  18.760  0.00  0.00    +0.000 C 
ATOM      3  C   UNL     1       1.744   3.130  18.797  0.00  0.00    +0.000 C 
ATOM      4  O   UNL     1       1.684   4.149  19.476  0.00  0.00    +0.000 OA
ATOM      5  N   UNL     1       2.817   2.756  18.016  0.00  0.00    +0.000 N 
ATOM      6  C   UNL     1       3.885   3.596  17.860  0.00  0.00    +0.000 A 
ATOM      7  N   UNL     1       4.524   3.744  16.726  0.00  0.00    +0.000 NA
ATOM      8  C   UNL     1       5.458   4.724  16.973  0.00  0.00    +0.000 A 
ATOM      9  C   UNL     1       6.322   5.376  16.081  0.00  0.00    +0.000 A 
ATOM     10  C   UNL     1       7.229   6.311  16.587  0.00  0.00    +0.000 A 
ATOM     11  C   UNL     1       7.316   6.575  17.964  0.00  0.00    +0.000 A 
ATOM     12  C   UNL     1       6.423   5.955  18.862  0.00  0.00    +0.000 A 
ATOM     13  C   UNL     1       5.487   5.064  18.317  0.00  0.00    +0.000 A 
ATOM     14  N   UNL     1       4.431   4.369  18.855  0.00  0.00    +0.000 N 
ATOM     15  H   UNL     1       2.664   2.125  17.239  0.00  0.00    +0.000 HD
ATOM     16  H   UNL     1       4.091   4.412  19.807  0.00  0.00    +0.000 HD
ENDBRANCH   1  11
BRANCH   1  17
ATOM     17  C   UNL     1       8.113   9.009  17.995  0.00  0.00    +0.000 C 
BRANCH  17  18
ATOM     18  N   UNL     1       9.123   9.935  18.496  0.00  0.00    +0.000 N 
ATOM     19  C   UNL     1       9.024  11.263  18.139  0.00  0.00    +0.000 C 
ATOM     20  O   UNL     1       8.104  11.667  17.437  0.00  0.00    +0.000 OA
ATOM     21  N   UNL     1      10.086  12.008  18.603  0.00  0.00    +0.000 N 
ATOM     22  H   UNL     1       9.459   9.773  19.435  0.00  0.00    +0.000 HD
ATOM     23  H   UNL     1      10.857  11.482  18.988  0.00  0.00    +0.000 HD
BRANCH  21  24
ATOM     24  C   UNL     1      10.326  13.367  18.286  0.00  0.00    +0.000 A 
ATOM     25  C   UNL     1      11.031  13.768  17.150  0.00  0.00    +0.000 A 
ATOM     26  C   UNL     1      11.344  15.112  16.931  0.00  0.00    +0.000 A 
ATOM     27  C   UNL     1      10.937  16.094  17.836  0.00  0.00    +0.000 A 
ATOM     28  C   UNL     1      11.354  17.518  17.599  0.00  0.00    +0.000 C 
ATOM     29  C   UNL     1      10.177  15.700  18.947  0.00  0.00    +0.000 A 
ATOM     30 CL   UNL     1       9.615  16.858  20.102  0.00  0.00    +0.000 Cl
ATOM     31  C   UNL     1       9.867  14.349  19.168  0.00  0.00    +0.000 A 
ENDBRANCH  21  24
ENDBRANCH  17  18
ENDBRANCH   1  17
TORSDOF 4
ENDMDL
MODEL 7
REMARK VINA RESULT:      -8.0      1.137      1.201
REMARK  Name = 
REMARK  6 active torsions:
REMARK  status: ('A' for Active; 'I' for Inactive)
REMARK    1  A    between atoms: C_1  and  C_2
REMARK    2  A    between atoms: C_10  and  C_11
REMARK    3  A    between atoms: C_11  and  C_12
REMARK    4  A    between atoms: C_12  and  N_13
REMARK    5  A    between atoms: N_16  and  C_17
REMARK    6  A    between atoms: C_20  and  C_21
REMARK                            x       y       z     vdW  Elec       q    Type
REMARK                         _______ _______ _______ _____ _____    ______ ____
ROOT
ATOM      1  C   UNL     1       7.649   8.840  17.835  0.00  0.00    +0.000 C 
ENDROOT
BRANCH   1  11
ATOM      2  C   UNL     1      10.399  17.875  17.907  0.00  0.00    +0.000 C 
ATOM      3  C   UNL     1       9.787  16.499  17.917  0.00  0.00    +0.000 C 
ATOM      4  O   UNL     1       8.580  16.327  17.783  0.00  0.00    +0.000 OA
ATOM      5  N   UNL     1      10.723  15.497  18.068  0.00  0.00    +0.000 N 
ATOM      6  C   UNL     1      10.326  14.195  18.195  0.00  0.00    +0.000 A 
ATOM      7  N   UNL     1      10.904  13.343  19.006  0.00  0.00    +0.000 NA
ATOM      8  C   UNL     1      10.160  12.190  18.893  0.00  0.00    +0.000 A 
ATOM      9  C   UNL     1      10.243  11.002  19.633  0.00  0.00    +0.000 A 
ATOM     10  C   UNL     1       9.404   9.937  19.292  0.00  0.00    +0.000 A 
ATOM     11  C   UNL     1       8.517  10.025  18.205  0.00  0.00    +0.000 A 
ATOM     12  C   UNL     1       8.399  11.230  17.483  0.00  0.00    +0.000 A 
ATOM     13  C   UNL     1       9.214  12.297  17.885  0.00  0.00    +0.000 A 
ATOM     14  N   UNL     1       9.302  13.611  17.491  0.00  0.00    +0.000 N 
ATOM     15  H   UNL     1      11.605  15.712  18.515  0.00  0.00    +0.000 HD
ATOM     16  H   UNL     1       8.719  14.087  16.815  0.00  0.00    +0.000 HD
ENDBRANCH   1  11
BRANCH   1  17
ATOM     17  C   UNL     1       8.363   7.480  17.963  0.00  0.00    +0.000 C 
BRANCH  17  18
ATOM     18  N   UNL     1       7.695   6.581  18.899  0.00  0.00    +0.000 N 
ATOM     19  C   UNL     1       6.620   5.847  18.444  0.00  0.00    +0.000 C 
ATOM     20  O   UNL     1       6.241   5.926  17.281  0.00  0.00    +0.000 OA
ATOM     21  N   UNL     1       6.030   5.111  19.449  0.00  0.00    +0.000 N 
ATOM     22  H   UNL     1       8.286   6.100  19.563  0.00  0.00    +0.000 HD
ATOM     23  H   UNL     1       6.340   5.319  20.386  0.00  0.00    +0.000 HD
BRANCH  21  24
ATOM     24  C   UNL     1       4.834   4.366  19.314  0.00  0.00    +0.000 A 
ATOM     25  C   UNL     1       4.752   3.192  18.561  0.00  0.00    +0.000 A 
ATOM     26  C   UNL     1       3.530   2.547  18.360  0.00  0.00    +0.000 A 
ATOM     27  C   UNL     1       2.357   3.051  18.927  0.00  0.00    +0.000 A 
ATOM     28  C   UNL     1       1.054   2.366  18.629  0.00  0.00    +0.000 C 
ATOM     29  C   UNL     1       2.447   4.195  19.733  0.00  0.00    +0.000 A 
ATOM     30 CL   UNL     1       1.046   4.867  20.491  0.00  0.00    +0.000 Cl
ATOM     31  C   UNL     1       3.675   4.845  19.931  0.00  0.00    +0.000 A 
ENDBRANCH  21  24
ENDBRANCH  17  18
ENDBRANCH   1  17
TORSDOF 4
ENDMDL
MODEL 8
REMARK VINA RESULT:      -8.0      4.654      9.014
REMARK  Name = 
REMARK  6 active torsions:
REMARK  status: ('A' for Active; 'I' for Inactive)
REMARK    1  A    between atoms: C_1  and  C_2
REMARK    2  A    between atoms: C_10  and  C_11
REMARK    3  A    between atoms: C_11  and  C_12
REMARK    4  A    between atoms: C_12  and  N_13
REMARK    5  A    between atoms: N_16  and  C_17
REMARK    6  A    between atoms: C_20  and  C_21
REMARK                            x       y       z     vdW  Elec       q    Type
REMARK                         _______ _______ _______ _____ _____    ______ ____
ROOT
ATOM      1  C   UNL     1       5.786   4.804  17.989  0.00  0.00    +0.000 C 
ENDROOT
BRANCH   1  11
ATOM      2  C   UNL     1      -0.352  10.218  22.700  0.00  0.00    +0.000 C 
ATOM      3  C   UNL     1       0.751   9.401  22.080  0.00  0.00    +0.000 C 
ATOM      4  O   UNL     1       1.782   9.139  22.689  0.00  0.00    +0.000 OA
ATOM      5  N   UNL     1       0.454   8.986  20.799  0.00  0.00    +0.000 N 
ATOM      6  C   UNL     1       1.388   8.317  20.056  0.00  0.00    +0.000 A 
ATOM      7  N   UNL     1       1.557   8.510  18.771  0.00  0.00    +0.000 NA
ATOM      8  C   UNL     1       2.630   7.717  18.435  0.00  0.00    +0.000 A 
ATOM      9  C   UNL     1       3.330   7.635  17.222  0.00  0.00    +0.000 A 
ATOM     10  C   UNL     1       4.366   6.703  17.106  0.00  0.00    +0.000 A 
ATOM     11  C   UNL     1       4.685   5.830  18.159  0.00  0.00    +0.000 A 
ATOM     12  C   UNL     1       4.013   5.935  19.395  0.00  0.00    +0.000 A 
ATOM     13  C   UNL     1       3.018   6.916  19.498  0.00  0.00    +0.000 A 
ATOM     14  N   UNL     1       2.244   7.360  20.543  0.00  0.00    +0.000 N 
ATOM     15  H   UNL     1      -0.215   9.514  20.254  0.00  0.00    +0.000 HD
ATOM     16  H   UNL     1       2.287   7.060  21.508  0.00  0.00    +0.000 HD
ENDBRANCH   1  11
BRANCH   1  17
ATOM     17  C   UNL     1       7.105   5.389  17.448  0.00  0.00    +0.000 C 
BRANCH  17  18
ATOM     18  N   UNL     1       7.726   6.328  18.376  0.00  0.00    +0.000 N 
ATOM     19  C   UNL     1       7.834   7.649  17.992  0.00  0.00    +0.000 C 
ATOM     20  O   UNL     1       7.404   8.035  16.911  0.00  0.00    +0.000 OA
ATOM     21  N   UNL     1       8.517   8.406  18.919  0.00  0.00    +0.000 N 
ATOM     22  H   UNL     1       7.534   6.187  19.357  0.00  0.00    +0.000 HD
ATOM     23  H   UNL     1       8.978   7.891  19.654  0.00  0.00    +0.000 HD
BRANCH  21  24
ATOM     24  C   UNL     1       8.895   9.758  18.743  0.00  0.00    +0.000 A 
ATOM     25  C   UNL     1       8.239  10.621  17.862  0.00  0.00    +0.000 A 
ATOM     26  C   UNL     1       8.712  11.916  17.632  0.00  0.00    +0.000 A 
ATOM     27  C   UNL     1       9.846  12.387  18.296  0.00  0.00    +0.000 A 
ATOM     28  C   UNL     1      10.361  13.760  17.968  0.00  0.00    +0.000 C 
ATOM     29  C   UNL     1      10.471  11.544  19.226  0.00  0.00    +0.000 A 
ATOM     30 CL   UNL     1      11.865  12.062  20.108  0.00  0.00    +0.000 Cl
ATOM     31  C   UNL     1       9.997  10.242  19.453  0.00  0.00    +0.000 A 
ENDBRANCH  21  24
ENDBRANCH  17  18
ENDBRANCH   1  17
TORSDOF 4
ENDMDL
MODEL 9
REMARK VINA RESULT:      -8.0      3.822     11.285
REMARK  Name = 
REMARK  6 active torsions:
REMARK  status: ('A' for Active; 'I' for Inactive)
REMARK    1  A    between atoms: C_1  and  C_2
REMARK    2  A    between atoms: C_10  and  C_11
REMARK    3  A    between atoms: C_11  and  C_12
REMARK    4  A    between atoms: C_12  and  N_13
REMARK    5  A    between atoms: N_16  and  C_17
REMARK    6  A    between atoms: C_20  and  C_21
REMARK                            x       y       z     vdW  Elec       q    Type
REMARK                         _______ _______ _______ _____ _____    ______ ____
ROOT
ATOM      1  C   UNL     1       8.417   7.225  18.629  0.00  0.00    +0.000 C 
ENDROOT
BRANCH   1  11
ATOM      2  C   UNL     1       0.548   2.010  18.889  0.00  0.00    +0.000 C 
ATOM      3  C   UNL     1       1.728   2.940  18.987  0.00  0.00    +0.000 C 
ATOM      4  O   UNL     1       1.892   3.677  19.953  0.00  0.00    +0.000 OA
ATOM      5  N   UNL     1       2.578   2.844  17.905  0.00  0.00    +0.000 N 
ATOM      6  C   UNL     1       3.648   3.688  17.790  0.00  0.00    +0.000 A 
ATOM      7  N   UNL     1       4.038   4.202  16.650  0.00  0.00    +0.000 NA
ATOM      8  C   UNL     1       5.075   5.044  16.980  0.00  0.00    +0.000 A 
ATOM      9  C   UNL     1       5.774   5.954  16.173  0.00  0.00    +0.000 A 
ATOM     10  C   UNL     1       6.837   6.670  16.733  0.00  0.00    +0.000 A 
ATOM     11  C   UNL     1       7.236   6.464  18.064  0.00  0.00    +0.000 A 
ATOM     12  C   UNL     1       6.512   5.582  18.893  0.00  0.00    +0.000 A 
ATOM     13  C   UNL     1       5.417   4.922  18.318  0.00  0.00    +0.000 A 
ATOM     14  N   UNL     1       4.451   4.089  18.829  0.00  0.00    +0.000 N 
ATOM     15  H   UNL     1       2.215   2.505  17.024  0.00  0.00    +0.000 HD
ATOM     16  H   UNL     1       4.326   3.815  19.795  0.00  0.00    +0.000 HD
ENDBRANCH   1  11
BRANCH   1  17
ATOM     17  C   UNL     1       8.365   8.743  18.365  0.00  0.00    +0.000 C 
BRANCH  17  18
ATOM     18  N   UNL     1       9.130   9.510  19.342  0.00  0.00    +0.000 N 
ATOM     19  C   UNL     1       9.332  10.853  19.103  0.00  0.00    +0.000 C 
ATOM     20  O   UNL     1       8.868  11.401  18.110  0.00  0.00    +0.000 OA
ATOM     21  N   UNL     1      10.142  11.435  20.055  0.00  0.00    +0.000 N 
ATOM     22  H   UNL     1       8.993   9.269  20.314  0.00  0.00    +0.000 HD
ATOM     23  H   UNL     1      10.603  10.799  20.688  0.00  0.00    +0.000 HD
BRANCH  21  24
ATOM     24  C   UNL     1      10.630  12.763  20.003  0.00  0.00    +0.000 A 
ATOM     25  C   UNL     1      11.652  13.163  19.139  0.00  0.00    +0.000 A 
ATOM     26  C   UNL     1      12.183  14.454  19.197  0.00  0.00    +0.000 A 
ATOM     27  C   UNL     1      11.687  15.387  20.110  0.00  0.00    +0.000 A 
ATOM     28  C   UNL     1      12.333  16.741  20.186  0.00  0.00    +0.000 C 
ATOM     29  C   UNL     1      10.621  15.006  20.937  0.00  0.00    +0.000 A 
ATOM     30 CL   UNL     1       9.935  16.110  22.077  0.00  0.00    +0.000 Cl
ATOM     31  C   UNL     1      10.091  13.707  20.881  0.00  0.00    +0.000 A 
ENDBRANCH  21  24
ENDBRANCH  17  18
ENDBRANCH   1  17
TORSDOF 4
ENDMDL
