MODEL 1
REMARK VINA RESULT:      -6.8      0.000      0.000
REMARK  Name = 
REMARK  9 active torsions:
REMARK  status: ('A' for Active; 'I' for Inactive)
REMARK    1  A    between atoms: C_1  and  O_2
REMARK    2  A    between atoms: O_2  and  C_3
REMARK    3  A    between atoms: C_3  and  C_4
REMARK    4  A    between atoms: C_4  and  O_5
REMARK    5  A    between atoms: O_5  and  C_6
REMARK    6  A    between atoms: C_6  and  C_7
REMARK    7  A    between atoms: C_20  and  C_21
REMARK    8  A    between atoms: C_25  and  O_26
REMARK    9  A    between atoms: O_26  and  C_27
REMARK                            x       y       z     vdW  Elec       q    Type
REMARK                         _______ _______ _______ _____ _____    ______ ____
ROOT
ATOM      1  C   UNL     1      -2.059  13.372  21.497  0.00  0.00    +0.000 A 
ATOM      2  C   UNL     1      -2.916  13.133  22.550  0.00  0.00    +0.000 A 
ATOM      3  C   UNL     1      -2.623  12.038  23.360  0.00  0.00    +0.000 A 
ATOM      4  C   UNL     1      -1.483  11.113  23.122  0.00  0.00    +0.000 A 
ATOM      5  C   UNL     1      -0.548  11.209  22.031  0.00  0.00    +0.000 A 
ATOM      6  C   UNL     1      -0.918  12.464  21.286  0.00  0.00    +0.000 A 
ATOM      7  C   UNL     1      -0.050  12.877  20.147  0.00  0.00    +0.000 C 
ATOM      8  C   UNL     1       1.199  12.109  20.407  0.00  0.00    +0.000 C 
ATOM      9  N   UNL     1       0.821  10.690  20.350  0.00  0.00    +0.000 N 
ATOM     10  C   UNL     1       0.346  10.132  19.174  0.00  0.00    +0.000 C 
ATOM     11  O   UNL     1      -0.551   9.288  19.097  0.00  0.00    +0.000 OA
ATOM     12  C   UNL     1       1.522  10.291  18.270  0.00  0.00    +0.000 C 
ATOM     13  N   UNL     1       2.095   9.009  18.079  0.00  0.00    +0.000 NA
ATOM     14  C   UNL     1       2.070   8.200  19.090  0.00  0.00    +0.000 C 
ATOM     15  C   UNL     1       1.492   8.751  20.832  0.00  0.00    +0.000 C 
ATOM     16  C   UNL     1       0.538   9.887  21.429  0.00  0.00    +0.000 C 
ENDROOT
BRANCH  14  17
ATOM     17  C   UNL     1       2.606   6.716  18.213  0.00  0.00    +0.000 A 
ATOM     18  C   UNL     1       3.914   6.477  17.868  0.00  0.00    +0.000 A 
ATOM     19  C   UNL     1       4.430   5.204  17.366  0.00  0.00    +0.000 A 
ATOM     20  C   UNL     1       3.673   4.059  17.127  0.00  0.00    +0.000 A 
ATOM     21  C   UNL     1       2.382   4.063  17.612  0.00  0.00    +0.000 A 
ATOM     22  C   UNL     1       1.891   5.342  18.196  0.00  0.00    +0.000 A 
BRANCH  21  23
ATOM     23  O   UNL     1       1.949   2.753  17.589  0.00  0.00    +0.000 OA
ATOM     24  C   UNL     1       1.384   1.983  18.632  0.00  0.00    +0.000 C 
ENDBRANCH  21  23
ENDBRANCH  14  17
BRANCH   1  25
ATOM     25  C   UNL     1      -2.404  14.531  20.551  0.00  0.00    +0.000 C 
BRANCH  25  26
ATOM     26  O   UNL     1      -2.579  15.766  21.247  0.00  0.00    +0.000 OA
BRANCH  26  27
ATOM     27  C   UNL     1      -1.491  16.674  21.031  0.00  0.00    +0.000 C 
BRANCH  27  28
ATOM     28  C   UNL     1      -0.942  16.497  19.622  0.00  0.00    +0.000 C 
BRANCH  28  30
ATOM     29  C   UNL     1      -0.681  17.768  17.662  0.00  0.00    +0.000 C 
ATOM     30  O   UNL     1      -0.583  17.770  19.078  0.00  0.00    +0.000 OA
ENDBRANCH  28  30
ENDBRANCH  27  28
ENDBRANCH  26  27
ENDBRANCH  25  26
ENDBRANCH   1  25
TORSDOF 7
ENDMDL
MODEL 2
REMARK VINA RESULT:      -6.7      1.818      2.788
REMARK  Name = 
REMARK  9 active torsions:
REMARK  status: ('A' for Active; 'I' for Inactive)
REMARK    1  A    between atoms: C_1  and  O_2
REMARK    2  A    between atoms: O_2  and  C_3
REMARK    3  A    between atoms: C_3  and  C_4
REMARK    4  A    between atoms: C_4  and  O_5
REMARK    5  A    between atoms: O_5  and  C_6
REMARK    6  A    between atoms: C_6  and  C_7
REMARK    7  A    between atoms: C_20  and  C_21
REMARK    8  A    between atoms: C_25  and  O_26
REMARK    9  A    between atoms: O_26  and  C_27
REMARK                            x       y       z     vdW  Elec       q    Type
REMARK                         _______ _______ _______ _____ _____    ______ ____
ROOT
ATOM      1  C   UNL     1      -2.323  13.160  21.662  0.00  0.00    +0.000 A 
ATOM      2  C   UNL     1      -3.072  12.882  22.786  0.00  0.00    +0.000 A 
ATOM      3  C   UNL     1      -2.629  11.834  23.590  0.00  0.00    +0.000 A 
ATOM      4  C   UNL     1      -1.441  10.995  23.277  0.00  0.00    +0.000 A 
ATOM      5  C   UNL     1      -0.608  11.136  22.113  0.00  0.00    +0.000 A 
ATOM      6  C   UNL     1      -1.134  12.339  21.376  0.00  0.00    +0.000 A 
ATOM      7  C   UNL     1      -0.396  12.789  20.163  0.00  0.00    +0.000 C 
ATOM      8  C   UNL     1       0.927  12.127  20.334  0.00  0.00    +0.000 C 
ATOM      9  N   UNL     1       0.660  10.682  20.335  0.00  0.00    +0.000 N 
ATOM     10  C   UNL     1       0.139  10.059  19.212  0.00  0.00    +0.000 C 
ATOM     11  O   UNL     1      -0.692   9.147  19.225  0.00  0.00    +0.000 OA
ATOM     12  C   UNL     1       1.222  10.286  18.213  0.00  0.00    +0.000 C 
ATOM     13  N   UNL     1       1.878   9.047  18.000  0.00  0.00    +0.000 NA
ATOM     14  C   UNL     1       1.998   8.265  19.025  0.00  0.00    +0.000 C 
ATOM     15  C   UNL     1       1.519   8.814  20.798  0.00  0.00    +0.000 C 
ATOM     16  C   UNL     1       0.529   9.887  21.449  0.00  0.00    +0.000 C 
ENDROOT
BRANCH  14  17
ATOM     17  C   UNL     1       2.579   6.805  18.136  0.00  0.00    +0.000 A 
ATOM     18  C   UNL     1       3.881   6.637  17.735  0.00  0.00    +0.000 A 
ATOM     19  C   UNL     1       4.447   5.391  17.219  0.00  0.00    +0.000 A 
ATOM     20  C   UNL     1       3.746   4.203  17.022  0.00  0.00    +0.000 A 
ATOM     21  C   UNL     1       2.480   4.138  17.564  0.00  0.00    +0.000 A 
ATOM     22  C   UNL     1       1.943   5.393  18.161  0.00  0.00    +0.000 A 
BRANCH  21  23
ATOM     23  O   UNL     1       2.122   2.806  17.570  0.00  0.00    +0.000 OA
ATOM     24  C   UNL     1       1.597   2.029  18.628  0.00  0.00    +0.000 C 
ENDBRANCH  21  23
ENDBRANCH  14  17
BRANCH   1  25
ATOM     25  C   UNL     1      -2.833  14.265  20.725  0.00  0.00    +0.000 C 
BRANCH  25  26
ATOM     26  O   UNL     1      -4.241  14.177  20.500  0.00  0.00    +0.000 OA
BRANCH  26  27
ATOM     27  C   UNL     1      -4.603  13.004  19.760  0.00  0.00    +0.000 C 
BRANCH  27  28
ATOM     28  C   UNL     1      -5.954  12.489  20.237  0.00  0.00    +0.000 C 
BRANCH  28  30
ATOM     29  C   UNL     1      -6.766  10.666  18.994  0.00  0.00    +0.000 C 
ATOM     30  O   UNL     1      -6.740  12.080  19.114  0.00  0.00    +0.000 OA
ENDBRANCH  28  30
ENDBRANCH  27  28
ENDBRANCH  26  27
ENDBRANCH  25  26
ENDBRANCH   1  25
TORSDOF 7
ENDMDL
MODEL 3
REMARK VINA RESULT:      -6.5      1.620      2.544
REMARK  Name = 
REMARK  9 active torsions:
REMARK  status: ('A' for Active; 'I' for Inactive)
REMARK    1  A    between atoms: C_1  and  O_2
REMARK    2  A    between atoms: O_2  and  C_3
REMARK    3  A    between atoms: C_3  and  C_4
REMARK    4  A    between atoms: C_4  and  O_5
REMARK    5  A    between atoms: O_5  and  C_6
REMARK    6  A    between atoms: C_6  and  C_7
REMARK    7  A    between atoms: C_20  and  C_21
REMARK    8  A    between atoms: C_25  and  O_26
REMARK    9  A    between atoms: O_26  and  C_27
REMARK                            x       y       z     vdW  Elec       q    Type
REMARK                         _______ _______ _______ _____ _____    ______ ____
ROOT
ATOM      1  C   UNL     1      -2.146  13.107  21.629  0.00  0.00    +0.000 A 
ATOM      2  C   UNL     1      -2.936  12.798  22.717  0.00  0.00    +0.000 A 
ATOM      3  C   UNL     1      -2.532  11.718  23.497  0.00  0.00    +0.000 A 
ATOM      4  C   UNL     1      -1.343  10.875  23.194  0.00  0.00    +0.000 A 
ATOM      5  C   UNL     1      -0.470  11.047  22.063  0.00  0.00    +0.000 A 
ATOM      6  C   UNL     1      -0.958  12.281  21.353  0.00  0.00    +0.000 A 
ATOM      7  C   UNL     1      -0.174  12.765  20.181  0.00  0.00    +0.000 C 
ATOM      8  C   UNL     1       1.135  12.081  20.373  0.00  0.00    +0.000 C 
ATOM      9  N   UNL     1       0.852  10.640  20.313  0.00  0.00    +0.000 N 
ATOM     10  C   UNL     1       0.361  10.063  19.153  0.00  0.00    +0.000 C 
ATOM     11  O   UNL     1      -0.479   9.161  19.106  0.00  0.00    +0.000 OA
ATOM     12  C   UNL     1       1.480  10.311  18.199  0.00  0.00    +0.000 C 
ATOM     13  N   UNL     1       2.128   9.074  17.963  0.00  0.00    +0.000 NA
ATOM     14  C   UNL     1       2.206   8.254  18.963  0.00  0.00    +0.000 C 
ATOM     15  C   UNL     1       1.674   8.747  20.738  0.00  0.00    +0.000 C 
ATOM     16  C   UNL     1       0.674   9.808  21.394  0.00  0.00    +0.000 C 
ENDROOT
BRANCH  14  17
ATOM     17  C   UNL     1       2.799   6.819  18.043  0.00  0.00    +0.000 A 
ATOM     18  C   UNL     1       4.072   6.726  17.534  0.00  0.00    +0.000 A 
ATOM     19  C   UNL     1       4.669   5.509  16.985  0.00  0.00    +0.000 A 
ATOM     20  C   UNL     1       4.029   4.277  16.860  0.00  0.00    +0.000 A 
ATOM     21  C   UNL     1       2.819   4.143  17.508  0.00  0.00    +0.000 A 
ATOM     22  C   UNL     1       2.257   5.372  18.136  0.00  0.00    +0.000 A 
BRANCH  21  23
ATOM     23  O   UNL     1       2.547   2.791  17.558  0.00  0.00    +0.000 OA
ATOM     24  C   UNL     1       3.160   1.787  18.342  0.00  0.00    +0.000 C 
ENDBRANCH  21  23
ENDBRANCH  14  17
BRANCH   1  25
ATOM     25  C   UNL     1      -2.613  14.250  20.715  0.00  0.00    +0.000 C 
BRANCH  25  26
ATOM     26  O   UNL     1      -4.024  14.228  20.497  0.00  0.00    +0.000 OA
BRANCH  26  27
ATOM     27  C   UNL     1      -4.665  15.426  20.955  0.00  0.00    +0.000 C 
BRANCH  27  28
ATOM     28  C   UNL     1      -5.944  15.073  21.703  0.00  0.00    +0.000 C 
BRANCH  28  30
ATOM     29  C   UNL     1      -6.960  13.227  22.744  0.00  0.00    +0.000 C 
ATOM     30  O   UNL     1      -6.160  13.660  21.656  0.00  0.00    +0.000 OA
ENDBRANCH  28  30
ENDBRANCH  27  28
ENDBRANCH  26  27
ENDBRANCH  25  26
ENDBRANCH   1  25
TORSDOF 7
ENDMDL
MODEL 4
REMARK VINA RESULT:      -6.5      2.239      2.828
REMARK  Name = 
REMARK  9 active torsions:
REMARK  status: ('A' for Active; 'I' for Inactive)
REMARK    1  A    between atoms: C_1  and  O_2
REMARK    2  A    between atoms: O_2  and  C_3
REMARK    3  A    between atoms: C_3  and  C_4
REMARK    4  A    between atoms: C_4  and  O_5
REMARK    5  A    between atoms: O_5  and  C_6
REMARK    6  A    between atoms: C_6  and  C_7
REMARK    7  A    between atoms: C_20  and  C_21
REMARK    8  A    between atoms: C_25  and  O_26
REMARK    9  A    between atoms: O_26  and  C_27
REMARK                            x       y       z     vdW  Elec       q    Type
REMARK                         _______ _______ _______ _____ _____    ______ ____
ROOT
ATOM      1  C   UNL     1      -3.357  12.962  21.542  0.00  0.00    +0.000 A 
ATOM      2  C   UNL     1      -3.818  12.748  22.824  0.00  0.00    +0.000 A 
ATOM      3  C   UNL     1      -2.988  12.020  23.673  0.00  0.00    +0.000 A 
ATOM      4  C   UNL     1      -1.681  11.441  23.260  0.00  0.00    +0.000 A 
ATOM      5  C   UNL     1      -1.110  11.536  21.942  0.00  0.00    +0.000 A 
ATOM      6  C   UNL     1      -2.051  12.405  21.151  0.00  0.00    +0.000 A 
ATOM      7  C   UNL     1      -1.661  12.762  19.758  0.00  0.00    +0.000 C 
ATOM      8  C   UNL     1      -0.199  12.482  19.757  0.00  0.00    +0.000 C 
ATOM      9  N   UNL     1      -0.061  11.045  20.036  0.00  0.00    +0.000 N 
ATOM     10  C   UNL     1      -0.564  10.103  19.154  0.00  0.00    +0.000 C 
ATOM     11  O   UNL     1      -1.104   9.042  19.477  0.00  0.00    +0.000 OA
ATOM     12  C   UNL     1       0.247  10.372  17.932  0.00  0.00    +0.000 C 
ATOM     13  N   UNL     1       1.171   9.308  17.785  0.00  0.00    +0.000 NA
ATOM     14  C   UNL     1       1.658   8.801  18.873  0.00  0.00    +0.000 C 
ATOM     15  C   UNL     1       1.332   9.568  20.599  0.00  0.00    +0.000 C 
ATOM     16  C   UNL     1       0.203  10.485  21.263  0.00  0.00    +0.000 C 
ENDROOT
BRANCH  14  17
ATOM     17  C   UNL     1       2.465   7.371  18.122  0.00  0.00    +0.000 A 
ATOM     18  C   UNL     1       3.774   7.379  17.706  0.00  0.00    +0.000 A 
ATOM     19  C   UNL     1       4.534   6.195  17.306  0.00  0.00    +0.000 A 
ATOM     20  C   UNL     1       4.038   4.894  17.248  0.00  0.00    +0.000 A 
ATOM     21  C   UNL     1       2.804   4.679  17.826  0.00  0.00    +0.000 A 
ATOM     22  C   UNL     1       2.072   5.885  18.306  0.00  0.00    +0.000 A 
BRANCH  21  23
ATOM     23  O   UNL     1       2.672   3.314  17.976  0.00  0.00    +0.000 OA
ATOM     24  C   UNL     1       1.577   2.574  18.479  0.00  0.00    +0.000 C 
ENDBRANCH  21  23
ENDBRANCH  14  17
BRANCH   1  25
ATOM     25  C   UNL     1      -4.288  13.701  20.569  0.00  0.00    +0.000 C 
BRANCH  25  26
ATOM     26  O   UNL     1      -5.460  12.946  20.260  0.00  0.00    +0.000 OA
BRANCH  26  27
ATOM     27  C   UNL     1      -5.801  13.013  18.869  0.00  0.00    +0.000 C 
BRANCH  27  28
ATOM     28  C   UNL     1      -5.498  11.680  18.198  0.00  0.00    +0.000 C 
BRANCH  28  30
ATOM     29  C   UNL     1      -4.195  10.895  16.406  0.00  0.00    +0.000 C 
ATOM     30  O   UNL     1      -4.229  11.746  17.542  0.00  0.00    +0.000 OA
ENDBRANCH  28  30
ENDBRANCH  27  28
ENDBRANCH  26  27
ENDBRANCH  25  26
ENDBRANCH   1  25
TORSDOF 7
ENDMDL
MODEL 5
REMARK VINA RESULT:      -6.4      1.268      1.400
REMARK  Name = 
REMARK  9 active torsions:
REMARK  status: ('A' for Active; 'I' for Inactive)
REMARK    1  A    between atoms: C_1  and  O_2
REMARK    2  A    between atoms: O_2  and  C_3
REMARK    3  A    between atoms: C_3  and  C_4
REMARK    4  A    between atoms: C_4  and  O_5
REMARK    5  A    between atoms: O_5  and  C_6
REMARK    6  A    between atoms: C_6  and  C_7
REMARK    7  A    between atoms: C_20  and  C_21
REMARK    8  A    between atoms: C_25  and  O_26
REMARK    9  A    between atoms: O_26  and  C_27
REMARK                            x       y       z     vdW  Elec       q    Type
REMARK                         _______ _______ _______ _____ _____    ______ ____
ROOT
ATOM      1  C   UNL     1      -2.095  13.342  21.633  0.00  0.00    +0.000 A 
ATOM      2  C   UNL     1      -2.970  13.063  22.662  0.00  0.00    +0.000 A 
ATOM      3  C   UNL     1      -2.689  11.940  23.436  0.00  0.00    +0.000 A 
ATOM      4  C   UNL     1      -1.542  11.026  23.184  0.00  0.00    +0.000 A 
ATOM      5  C   UNL     1      -0.590  11.163  22.114  0.00  0.00    +0.000 A 
ATOM      6  C   UNL     1      -0.949  12.443  21.409  0.00  0.00    +0.000 A 
ATOM      7  C   UNL     1      -0.063  12.899  20.301  0.00  0.00    +0.000 C 
ATOM      8  C   UNL     1       1.183  12.123  20.553  0.00  0.00    +0.000 C 
ATOM      9  N   UNL     1       0.809  10.706  20.438  0.00  0.00    +0.000 N 
ATOM     10  C   UNL     1       0.355  10.191  19.234  0.00  0.00    +0.000 C 
ATOM     11  O   UNL     1      -0.539   9.350  19.112  0.00  0.00    +0.000 OA
ATOM     12  C   UNL     1       1.546  10.384  18.358  0.00  0.00    +0.000 C 
ATOM     13  N   UNL     1       2.124   9.111  18.129  0.00  0.00    +0.000 NA
ATOM     14  C   UNL     1       2.083   8.265  19.110  0.00  0.00    +0.000 C 
ATOM     15  C   UNL     1       1.475   8.752  20.861  0.00  0.00    +0.000 C 
ATOM     16  C   UNL     1       0.509   9.865  21.482  0.00  0.00    +0.000 C 
ENDROOT
BRANCH  14  17
ATOM     17  C   UNL     1       2.637   6.815  18.189  0.00  0.00    +0.000 A 
ATOM     18  C   UNL     1       3.871   6.728  17.593  0.00  0.00    +0.000 A 
ATOM     19  C   UNL     1       4.451   5.506  17.037  0.00  0.00    +0.000 A 
ATOM     20  C   UNL     1       3.827   4.260  16.992  0.00  0.00    +0.000 A 
ATOM     21  C   UNL     1       2.669   4.125  17.728  0.00  0.00    +0.000 A 
ATOM     22  C   UNL     1       2.130   5.362  18.360  0.00  0.00    +0.000 A 
BRANCH  21  23
ATOM     23  O   UNL     1       2.426   2.771  17.834  0.00  0.00    +0.000 OA
ATOM     24  C   UNL     1       3.323   1.727  18.161  0.00  0.00    +0.000 C 
ENDBRANCH  21  23
ENDBRANCH  14  17
BRANCH   1  25
ATOM     25  C   UNL     1      -2.425  14.535  20.724  0.00  0.00    +0.000 C 
BRANCH  25  26
ATOM     26  O   UNL     1      -2.969  15.637  21.452  0.00  0.00    +0.000 OA
BRANCH  26  27
ATOM     27  C   UNL     1      -4.125  16.195  20.814  0.00  0.00    +0.000 C 
BRANCH  27  28
ATOM     28  C   UNL     1      -4.395  17.589  21.363  0.00  0.00    +0.000 C 
BRANCH  28  30
ATOM     29  C   UNL     1      -4.344  18.087  19.066  0.00  0.00    +0.000 C 
ATOM     30  O   UNL     1      -4.075  18.571  20.373  0.00  0.00    +0.000 OA
ENDBRANCH  28  30
ENDBRANCH  27  28
ENDBRANCH  26  27
ENDBRANCH  25  26
ENDBRANCH   1  25
TORSDOF 7
ENDMDL
MODEL 6
REMARK VINA RESULT:      -6.4      2.616      3.469
REMARK  Name = 
REMARK  9 active torsions:
REMARK  status: ('A' for Active; 'I' for Inactive)
REMARK    1  A    between atoms: C_1  and  O_2
REMARK    2  A    between atoms: O_2  and  C_3
REMARK    3  A    between atoms: C_3  and  C_4
REMARK    4  A    between atoms: C_4  and  O_5
REMARK    5  A    between atoms: O_5  and  C_6
REMARK    6  A    between atoms: C_6  and  C_7
REMARK    7  A    between atoms: C_20  and  C_21
REMARK    8  A    between atoms: C_25  and  O_26
REMARK    9  A    between atoms: O_26  and  C_27
REMARK                            x       y       z     vdW  Elec       q    Type
REMARK                         _______ _______ _______ _____ _____    ______ ____
ROOT
ATOM      1  C   UNL     1      -3.925  13.086  21.507  0.00  0.00    +0.000 A 
ATOM      2  C   UNL     1      -4.437  12.944  22.780  0.00  0.00    +0.000 A 
ATOM      3  C   UNL     1      -3.603  12.358  23.729  0.00  0.00    +0.000 A 
ATOM      4  C   UNL     1      -2.236  11.852  23.431  0.00  0.00    +0.000 A 
ATOM      5  C   UNL     1      -1.602  11.882  22.139  0.00  0.00    +0.000 A 
ATOM      6  C   UNL     1      -2.561  12.604  21.230  0.00  0.00    +0.000 A 
ATOM      7  C   UNL     1      -2.123  12.874  19.831  0.00  0.00    +0.000 C 
ATOM      8  C   UNL     1      -0.646  12.711  19.925  0.00  0.00    +0.000 C 
ATOM      9  N   UNL     1      -0.417  11.319  20.336  0.00  0.00    +0.000 N 
ATOM     10  C   UNL     1      -0.798  10.268  19.516  0.00  0.00    +0.000 C 
ATOM     11  O   UNL     1      -1.274   9.199  19.905  0.00  0.00    +0.000 OA
ATOM     12  C   UNL     1       0.056  10.499  18.316  0.00  0.00    +0.000 C 
ATOM     13  N   UNL     1       1.064   9.503  18.307  0.00  0.00    +0.000 NA
ATOM     14  C   UNL     1       1.527   9.128  19.457  0.00  0.00    +0.000 C 
ATOM     15  C   UNL     1       1.051  10.009  21.092  0.00  0.00    +0.000 C 
ATOM     16  C   UNL     1      -0.178  10.885  21.618  0.00  0.00    +0.000 C 
ENDROOT
BRANCH  14  17
ATOM     17  C   UNL     1       2.479   7.710  18.874  0.00  0.00    +0.000 A 
ATOM     18  C   UNL     1       2.104   6.408  19.098  0.00  0.00    +0.000 A 
ATOM     19  C   UNL     1       2.708   5.239  18.462  0.00  0.00    +0.000 A 
ATOM     20  C   UNL     1       3.777   5.264  17.567  0.00  0.00    +0.000 A 
ATOM     21  C   UNL     1       4.140   6.501  17.078  0.00  0.00    +0.000 A 
ATOM     22  C   UNL     1       3.459   7.684  17.675  0.00  0.00    +0.000 A 
BRANCH  21  23
ATOM     23  O   UNL     1       4.940   6.269  15.978  0.00  0.00    +0.000 OA
ATOM     24  C   UNL     1       6.010   5.356  15.830  0.00  0.00    +0.000 C 
ENDBRANCH  21  23
ENDBRANCH  14  17
BRANCH   1  25
ATOM     25  C   UNL     1      -4.853  13.665  20.430  0.00  0.00    +0.000 C 
BRANCH  25  26
ATOM     26  O   UNL     1      -6.052  12.904  20.281  0.00  0.00    +0.000 OA
BRANCH  26  27
ATOM     27  C   UNL     1      -5.849  11.709  19.516  0.00  0.00    +0.000 C 
BRANCH  27  28
ATOM     28  C   UNL     1      -5.294  12.062  18.143  0.00  0.00    +0.000 C 
BRANCH  28  30
ATOM     29  C   UNL     1      -4.088  11.178  16.330  0.00  0.00    +0.000 C 
ATOM     30  O   UNL     1      -4.384  11.047  17.711  0.00  0.00    +0.000 OA
ENDBRANCH  28  30
ENDBRANCH  27  28
ENDBRANCH  26  27
ENDBRANCH  25  26
ENDBRANCH   1  25
TORSDOF 7
ENDMDL
MODEL 7
REMARK VINA RESULT:      -6.3      1.154      1.839
REMARK  Name = 
REMARK  9 active torsions:
REMARK  status: ('A' for Active; 'I' for Inactive)
REMARK    1  A    between atoms: C_1  and  O_2
REMARK    2  A    between atoms: O_2  and  C_3
REMARK    3  A    between atoms: C_3  and  C_4
REMARK    4  A    between atoms: C_4  and  O_5
REMARK    5  A    between atoms: O_5  and  C_6
REMARK    6  A    between atoms: C_6  and  C_7
REMARK    7  A    between atoms: C_20  and  C_21
REMARK    8  A    between atoms: C_25  and  O_26
REMARK    9  A    between atoms: O_26  and  C_27
REMARK                            x       y       z     vdW  Elec       q    Type
REMARK                         _______ _______ _______ _____ _____    ______ ____
ROOT
ATOM      1  C   UNL     1      -1.990  13.753  21.538  0.00  0.00    +0.000 A 
ATOM      2  C   UNL     1      -2.960  13.539  22.495  0.00  0.00    +0.000 A 
ATOM      3  C   UNL     1      -2.825  12.395  23.277  0.00  0.00    +0.000 A 
ATOM      4  C   UNL     1      -1.736  11.396  23.105  0.00  0.00    +0.000 A 
ATOM      5  C   UNL     1      -0.697  11.464  22.111  0.00  0.00    +0.000 A 
ATOM      6  C   UNL     1      -0.903  12.770  21.392  0.00  0.00    +0.000 A 
ATOM      7  C   UNL     1       0.098  13.160  20.359  0.00  0.00    +0.000 C 
ATOM      8  C   UNL     1       1.258  12.290  20.698  0.00  0.00    +0.000 C 
ATOM      9  N   UNL     1       0.786  10.907  20.541  0.00  0.00    +0.000 N 
ATOM     10  C   UNL     1       0.387  10.433  19.302  0.00  0.00    +0.000 C 
ATOM     11  O   UNL     1      -0.556   9.663  19.104  0.00  0.00    +0.000 OA
ATOM     12  C   UNL     1       1.653  10.536  18.520  0.00  0.00    +0.000 C 
ATOM     13  N   UNL     1       2.148   9.223  18.324  0.00  0.00    +0.000 NA
ATOM     14  C   UNL     1       1.968   8.380  19.290  0.00  0.00    +0.000 C 
ATOM     15  C   UNL     1       1.267   8.906  20.995  0.00  0.00    +0.000 C 
ATOM     16  C   UNL     1       0.344  10.087  21.552  0.00  0.00    +0.000 C 
ENDROOT
BRANCH  14  17
ATOM     17  C   UNL     1       2.478   6.894  18.401  0.00  0.00    +0.000 A 
ATOM     18  C   UNL     1       3.639   6.815  17.672  0.00  0.00    +0.000 A 
ATOM     19  C   UNL     1       4.205   5.582  17.127  0.00  0.00    +0.000 A 
ATOM     20  C   UNL     1       3.637   4.313  17.229  0.00  0.00    +0.000 A 
ATOM     21  C   UNL     1       2.577   4.183  18.102  0.00  0.00    +0.000 A 
ATOM     22  C   UNL     1       2.058   5.437  18.717  0.00  0.00    +0.000 A 
BRANCH  21  23
ATOM     23  O   UNL     1       2.408   2.831  18.317  0.00  0.00    +0.000 OA
ATOM     24  C   UNL     1       1.252   2.131  18.734  0.00  0.00    +0.000 C 
ENDBRANCH  21  23
ENDBRANCH  14  17
BRANCH   1  25
ATOM     25  C   UNL     1      -2.159  14.971  20.618  0.00  0.00    +0.000 C 
BRANCH  25  26
ATOM     26  O   UNL     1      -2.267  16.193  21.349  0.00  0.00    +0.000 OA
BRANCH  26  27
ATOM     27  C   UNL     1      -1.004  16.635  21.864  0.00  0.00    +0.000 C 
BRANCH  27  28
ATOM     28  C   UNL     1      -1.214  17.393  23.167  0.00  0.00    +0.000 C 
BRANCH  28  30
ATOM     29  C   UNL     1      -1.103  15.693  24.786  0.00  0.00    +0.000 C 
ATOM     30  O   UNL     1      -0.430  16.799  24.206  0.00  0.00    +0.000 OA
ENDBRANCH  28  30
ENDBRANCH  27  28
ENDBRANCH  26  27
ENDBRANCH  25  26
ENDBRANCH   1  25
TORSDOF 7
ENDMDL
MODEL 8
REMARK VINA RESULT:      -6.2      2.539      3.854
REMARK  Name = 
REMARK  9 active torsions:
REMARK  status: ('A' for Active; 'I' for Inactive)
REMARK    1  A    between atoms: C_1  and  O_2
REMARK    2  A    between atoms: O_2  and  C_3
REMARK    3  A    between atoms: C_3  and  C_4
REMARK    4  A    between atoms: C_4  and  O_5
REMARK    5  A    between atoms: O_5  and  C_6
REMARK    6  A    between atoms: C_6  and  C_7
REMARK    7  A    between atoms: C_20  and  C_21
REMARK    8  A    between atoms: C_25  and  O_26
REMARK    9  A    between atoms: O_26  and  C_27
REMARK                            x       y       z     vdW  Elec       q    Type
REMARK                         _______ _______ _______ _____ _____    ______ ____
ROOT
ATOM      1  C   UNL     1      -3.565  12.984  21.434  0.00  0.00    +0.000 A 
ATOM      2  C   UNL     1      -4.045  12.878  22.723  0.00  0.00    +0.000 A 
ATOM      3  C   UNL     1      -3.206  12.272  23.655  0.00  0.00    +0.000 A 
ATOM      4  C   UNL     1      -1.869  11.711  23.325  0.00  0.00    +0.000 A 
ATOM      5  C   UNL     1      -1.272  11.700  22.015  0.00  0.00    +0.000 A 
ATOM      6  C   UNL     1      -2.229  12.447  21.124  0.00  0.00    +0.000 A 
ATOM      7  C   UNL     1      -1.822  12.681  19.710  0.00  0.00    +0.000 C 
ATOM      8  C   UNL     1      -0.350  12.463  19.764  0.00  0.00    +0.000 C 
ATOM      9  N   UNL     1      -0.162  11.068  20.187  0.00  0.00    +0.000 N 
ATOM     10  C   UNL     1      -0.607  10.023  19.394  0.00  0.00    +0.000 C 
ATOM     11  O   UNL     1      -1.111   8.977  19.810  0.00  0.00    +0.000 OA
ATOM     12  C   UNL     1       0.221  10.205  18.167  0.00  0.00    +0.000 C 
ATOM     13  N   UNL     1       1.190   9.172  18.142  0.00  0.00    +0.000 NA
ATOM     14  C   UNL     1       1.671   8.794  19.284  0.00  0.00    +0.000 C 
ATOM     15  C   UNL     1       1.276   9.713  20.919  0.00  0.00    +0.000 C 
ATOM     16  C   UNL     1       0.097  10.643  21.468  0.00  0.00    +0.000 C 
ENDROOT
BRANCH  14  17
ATOM     17  C   UNL     1       2.552   7.333  18.694  0.00  0.00    +0.000 A 
ATOM     18  C   UNL     1       1.941   6.122  18.481  0.00  0.00    +0.000 A 
ATOM     19  C   UNL     1       2.551   4.982  17.797  0.00  0.00    +0.000 A 
ATOM     20  C   UNL     1       3.850   4.940  17.293  0.00  0.00    +0.000 A 
ATOM     21  C   UNL     1       4.530   6.139  17.241  0.00  0.00    +0.000 A 
ATOM     22  C   UNL     1       3.863   7.313  17.870  0.00  0.00    +0.000 A 
BRANCH  21  23
ATOM     23  O   UNL     1       5.612   5.942  16.408  0.00  0.00    +0.000 OA
ATOM     24  C   UNL     1       6.992   6.046  16.698  0.00  0.00    +0.000 C 
ENDBRANCH  21  23
ENDBRANCH  14  17
BRANCH   1  25
ATOM     25  C   UNL     1      -4.502  13.584  20.375  0.00  0.00    +0.000 C 
BRANCH  25  26
ATOM     26  O   UNL     1      -5.145  12.580  19.589  0.00  0.00    +0.000 OA
BRANCH  26  27
ATOM     27  C   UNL     1      -6.569  12.747  19.551  0.00  0.00    +0.000 C 
BRANCH  27  28
ATOM     28  C   UNL     1      -7.130  12.723  20.966  0.00  0.00    +0.000 C 
BRANCH  28  30
ATOM     29  C   UNL     1      -7.608  10.451  20.598  0.00  0.00    +0.000 C 
ATOM     30  O   UNL     1      -7.050  11.398  21.497  0.00  0.00    +0.000 OA
ENDBRANCH  28  30
ENDBRANCH  27  28
ENDBRANCH  26  27
ENDBRANCH  25  26
ENDBRANCH   1  25
TORSDOF 7
ENDMDL
MODEL 9
REMARK VINA RESULT:      -6.0      1.950      3.160
REMARK  Name = 
REMARK  9 active torsions:
REMARK  status: ('A' for Active; 'I' for Inactive)
REMARK    1  A    between atoms: C_1  and  O_2
REMARK    2  A    between atoms: O_2  and  C_3
REMARK    3  A    between atoms: C_3  and  C_4
REMARK    4  A    between atoms: C_4  and  O_5
REMARK    5  A    between atoms: O_5  and  C_6
REMARK    6  A    between atoms: C_6  and  C_7
REMARK    7  A    between atoms: C_20  and  C_21
REMARK    8  A    between atoms: C_25  and  O_26
REMARK    9  A    between atoms: O_26  and  C_27
REMARK                            x       y       z     vdW  Elec       q    Type
REMARK                         _______ _______ _______ _____ _____    ______ ____
ROOT
ATOM      1  C   UNL     1      -2.670  13.187  21.582  0.00  0.00    +0.000 A 
ATOM      2  C   UNL     1      -3.416  12.978  22.723  0.00  0.00    +0.000 A 
ATOM      3  C   UNL     1      -2.922  12.045  23.632  0.00  0.00    +0.000 A 
ATOM      4  C   UNL     1      -1.682  11.253  23.414  0.00  0.00    +0.000 A 
ATOM      5  C   UNL     1      -0.843  11.326  22.246  0.00  0.00    +0.000 A 
ATOM      6  C   UNL     1      -1.431  12.414  21.388  0.00  0.00    +0.000 A 
ATOM      7  C   UNL     1      -0.706  12.783  20.140  0.00  0.00    +0.000 C 
ATOM      8  C   UNL     1       0.652  12.224  20.386  0.00  0.00    +0.000 C 
ATOM      9  N   UNL     1       0.472  10.772  20.532  0.00  0.00    +0.000 N 
ATOM     10  C   UNL     1       0.003  10.009  19.475  0.00  0.00    +0.000 C 
ATOM     11  O   UNL     1      -0.772   9.054  19.575  0.00  0.00    +0.000 OA
ATOM     12  C   UNL     1       1.083  10.199  18.465  0.00  0.00    +0.000 C 
ATOM     13  N   UNL     1       1.814   8.988  18.383  0.00  0.00    +0.000 NA
ATOM     14  C   UNL     1       1.968   8.321  19.483  0.00  0.00    +0.000 C 
ATOM     15  C   UNL     1       1.435   9.016  21.188  0.00  0.00    +0.000 C 
ATOM     16  C   UNL     1       0.374  10.088  21.720  0.00  0.00    +0.000 C 
ENDROOT
BRANCH  14  17
ATOM     17  C   UNL     1       2.646   6.817  18.750  0.00  0.00    +0.000 A 
ATOM     18  C   UNL     1       1.924   5.658  18.607  0.00  0.00    +0.000 A 
ATOM     19  C   UNL     1       2.346   4.497  17.825  0.00  0.00    +0.000 A 
ATOM     20  C   UNL     1       3.555   4.375  17.142  0.00  0.00    +0.000 A 
ATOM     21  C   UNL     1       4.307   5.524  17.013  0.00  0.00    +0.000 A 
ATOM     22  C   UNL     1       3.824   6.726  17.749  0.00  0.00    +0.000 A 
BRANCH  21  23
ATOM     23  O   UNL     1       5.244   5.273  16.032  0.00  0.00    +0.000 OA
ATOM     24  C   UNL     1       6.043   4.123  15.836  0.00  0.00    +0.000 C 
ENDBRANCH  21  23
ENDBRANCH  14  17
BRANCH   1  25
ATOM     25  C   UNL     1      -3.234  14.158  20.534  0.00  0.00    +0.000 C 
BRANCH  25  26
ATOM     26  O   UNL     1      -4.429  14.802  20.979  0.00  0.00    +0.000 OA
BRANCH  26  27
ATOM     27  C   UNL     1      -5.500  14.679  20.034  0.00  0.00    +0.000 C 
BRANCH  27  28
ATOM     28  C   UNL     1      -6.491  13.626  20.511  0.00  0.00    +0.000 C 
BRANCH  28  30
ATOM     29  C   UNL     1      -7.079  12.758  22.614  0.00  0.00    +0.000 C 
ATOM     30  O   UNL     1      -6.926  13.936  21.838  0.00  0.00    +0.000 OA
ENDBRANCH  28  30
ENDBRANCH  27  28
ENDBRANCH  26  27
ENDBRANCH  25  26
ENDBRANCH   1  25
TORSDOF 7
ENDMDL
