MODEL 1
REMARK VINA RESULT:      -8.3      0.000      0.000
REMARK  Name = 
REMARK  9 active torsions:
REMARK  status: ('A' for Active; 'I' for Inactive)
REMARK    1  A    between atoms: C_1  and  O_2
REMARK    2  A    between atoms: O_2  and  C_3
REMARK    3  A    between atoms: C_3  and  C_4
REMARK    4  A    between atoms: C_4  and  N_5
REMARK    5  A    between atoms: N_5  and  C_6
REMARK    6  A    between atoms: C_6  and  C_7
REMARK    7  A    between atoms: N_23  and  C_24
REMARK    8  A    between atoms: C_27  and  O_28
REMARK    9  A    between atoms: O_28  and  C_29
REMARK                            x       y       z     vdW  Elec       q    Type
REMARK                         _______ _______ _______ _____ _____    ______ ____
ROOT
ATOM      1  N   UNL     1       4.007   4.662  19.591  0.00  0.00    +0.000 N 
ATOM      2  C   UNL     1       2.917   5.534  19.589  0.00  0.00    +0.000 C 
ATOM      3  O   UNL     1       1.800   5.130  19.894  0.00  0.00    +0.000 OA
ATOM      4  N   UNL     1       3.175   6.827  19.176  0.00  0.00    +0.000 N 
ATOM      5  H   UNL     1       3.996   6.978  18.612  0.00  0.00    +0.000 HD
ENDROOT
BRANCH   4   6
ATOM      6  C   UNL     1       2.201   7.858  19.123  0.00  0.00    +0.000 A 
ATOM      7  C   UNL     1       1.836   8.501  17.940  0.00  0.00    +0.000 A 
ATOM      8  C   UNL     1       0.987   9.610  17.961  0.00  0.00    +0.000 A 
ATOM      9  C   UNL     1       0.449  10.067  19.159  0.00  0.00    +0.000 A 
ATOM     10  C   UNL     1       0.735   9.381  20.341  0.00  0.00    +0.000 A 
ATOM     11  C   UNL     1       1.605   8.275  20.319  0.00  0.00    +0.000 A 
BRANCH   9  12
ATOM     12  O   UNL     1      -0.269  11.223  19.054  0.00  0.00    +0.000 OA
ATOM     13  C   UNL     1      -0.371  12.021  20.222  0.00  0.00    +0.000 C 
ENDBRANCH   9  12
ENDBRANCH   4   6
BRANCH   1  14
ATOM     14  C   UNL     1       3.716   3.246  19.909  0.00  0.00    +0.000 C 
BRANCH  14  15
ATOM     15  C   UNL     1       3.528   2.264  18.738  0.00  0.00    +0.000 C 
BRANCH  15  17
ATOM     16  C   UNL     1       1.180   2.107  18.680  0.00  0.00    +0.000 C 
ATOM     17  O   UNL     1       2.348   2.534  17.982  0.00  0.00    +0.000 OA
ENDBRANCH  15  17
ENDBRANCH  14  15
ENDBRANCH   1  14
BRANCH   1  18
ATOM     18  C   UNL     1       5.387   5.043  19.279  0.00  0.00    +0.000 C 
BRANCH  18  19
ATOM     19  C   UNL     1       5.751   5.176  17.815  0.00  0.00    +0.000 A 
ATOM     20  C   UNL     1       5.034   4.596  16.758  0.00  0.00    +0.000 A 
ATOM     21  C   UNL     1       5.570   4.583  15.453  0.00  0.00    +0.000 A 
ATOM     22  C   UNL     1       4.952   3.882  14.398  0.00  0.00    +0.000 A 
ATOM     23  C   UNL     1       5.662   3.728  13.227  0.00  0.00    +0.000 A 
ATOM     24  C   UNL     1       6.891   4.311  13.048  0.00  0.00    +0.000 A 
ATOM     25  C   UNL     1       7.463   5.102  14.017  0.00  0.00    +0.000 A 
ATOM     26  C   UNL     1       6.823   5.226  15.244  0.00  0.00    +0.000 A 
ATOM     27  N   UNL     1       7.447   5.897  16.214  0.00  0.00    +0.000 NA
ATOM     28  C   UNL     1       6.918   5.851  17.455  0.00  0.00    +0.000 A 
ATOM     29 CL   UNL     1       7.882   6.712  18.595  0.00  0.00    +0.000 Cl
ATOM     30  O   UNL     1       7.464   3.959  11.864  0.00  0.00    +0.000 OA
ATOM     31  C   UNL     1       6.557   2.919  11.443  0.00  0.00    +0.000 C 
ATOM     32  O   UNL     1       5.307   2.949  12.167  0.00  0.00    +0.000 OA
ENDBRANCH  18  19
ENDBRANCH   1  18
TORSDOF 7
ENDMDL
MODEL 2
REMARK VINA RESULT:      -8.1      0.952      1.369
REMARK  Name = 
REMARK  9 active torsions:
REMARK  status: ('A' for Active; 'I' for Inactive)
REMARK    1  A    between atoms: C_1  and  O_2
REMARK    2  A    between atoms: O_2  and  C_3
REMARK    3  A    between atoms: C_3  and  C_4
REMARK    4  A    between atoms: C_4  and  N_5
REMARK    5  A    between atoms: N_5  and  C_6
REMARK    6  A    between atoms: C_6  and  C_7
REMARK    7  A    between atoms: N_23  and  C_24
REMARK    8  A    between atoms: C_27  and  O_28
REMARK    9  A    between atoms: O_28  and  C_29
REMARK                            x       y       z     vdW  Elec       q    Type
REMARK                         _______ _______ _______ _____ _____    ______ ____
ROOT
ATOM      1  N   UNL     1       3.716   4.855  19.327  0.00  0.00    +0.000 N 
ATOM      2  C   UNL     1       2.653   5.753  19.435  0.00  0.00    +0.000 C 
ATOM      3  O   UNL     1       1.520   5.346  19.673  0.00  0.00    +0.000 OA
ATOM      4  N   UNL     1       2.954   7.082  19.207  0.00  0.00    +0.000 N 
ATOM      5  H   UNL     1       3.786   7.283  18.675  0.00  0.00    +0.000 HD
ENDROOT
BRANCH   4   6
ATOM      6  C   UNL     1       2.012   8.140  19.288  0.00  0.00    +0.000 A 
ATOM      7  C   UNL     1       1.389   8.516  20.479  0.00  0.00    +0.000 A 
ATOM      8  C   UNL     1       0.359   9.460  20.481  0.00  0.00    +0.000 A 
ATOM      9  C   UNL     1      -0.035  10.079  19.300  0.00  0.00    +0.000 A 
ATOM     10  C   UNL     1       0.638   9.778  18.114  0.00  0.00    +0.000 A 
ATOM     11  C   UNL     1       1.664   8.815  18.113  0.00  0.00    +0.000 A 
BRANCH   9  12
ATOM     12  O   UNL     1      -1.124  10.892  19.422  0.00  0.00    +0.000 OA
ATOM     13  C   UNL     1      -1.246  11.944  18.479  0.00  0.00    +0.000 C 
ENDBRANCH   9  12
ENDBRANCH   4   6
BRANCH   1  14
ATOM     14  C   UNL     1       3.378   3.418  19.444  0.00  0.00    +0.000 C 
BRANCH  14  15
ATOM     15  C   UNL     1       4.301   2.524  20.292  0.00  0.00    +0.000 C 
BRANCH  15  17
ATOM     16  C   UNL     1       2.344   2.573  21.599  0.00  0.00    +0.000 C 
ATOM     17  O   UNL     1       3.688   2.102  21.509  0.00  0.00    +0.000 OA
ENDBRANCH  15  17
ENDBRANCH  14  15
ENDBRANCH   1  14
BRANCH   1  18
ATOM     18  C   UNL     1       5.110   5.232  19.081  0.00  0.00    +0.000 C 
BRANCH  18  19
ATOM     19  C   UNL     1       5.567   5.282  17.638  0.00  0.00    +0.000 A 
ATOM     20  C   UNL     1       4.865   4.726  16.559  0.00  0.00    +0.000 A 
ATOM     21  C   UNL     1       5.472   4.622  15.289  0.00  0.00    +0.000 A 
ATOM     22  C   UNL     1       4.857   3.938  14.221  0.00  0.00    +0.000 A 
ATOM     23  C   UNL     1       5.617   3.684  13.099  0.00  0.00    +0.000 A 
ATOM     24  C   UNL     1       6.899   4.156  12.977  0.00  0.00    +0.000 A 
ATOM     25  C   UNL     1       7.481   4.931  13.954  0.00  0.00    +0.000 A 
ATOM     26  C   UNL     1       6.784   5.151  15.135  0.00  0.00    +0.000 A 
ATOM     27  N   UNL     1       7.406   5.803  16.120  0.00  0.00    +0.000 NA
ATOM     28  C   UNL     1       6.806   5.844  17.329  0.00  0.00    +0.000 A 
ATOM     29 CL   UNL     1       7.773   6.663  18.497  0.00  0.00    +0.000 Cl
ATOM     30  O   UNL     1       7.507   3.716  11.841  0.00  0.00    +0.000 OA
ATOM     31  C   UNL     1       6.540   2.740  11.398  0.00  0.00    +0.000 C 
ATOM     32  O   UNL     1       5.258   2.900  12.045  0.00  0.00    +0.000 OA
ENDBRANCH  18  19
ENDBRANCH   1  18
TORSDOF 7
ENDMDL
MODEL 3
REMARK VINA RESULT:      -7.9      1.249      1.466
REMARK  Name = 
REMARK  9 active torsions:
REMARK  status: ('A' for Active; 'I' for Inactive)
REMARK    1  A    between atoms: C_1  and  O_2
REMARK    2  A    between atoms: O_2  and  C_3
REMARK    3  A    between atoms: C_3  and  C_4
REMARK    4  A    between atoms: C_4  and  N_5
REMARK    5  A    between atoms: N_5  and  C_6
REMARK    6  A    between atoms: C_6  and  C_7
REMARK    7  A    between atoms: N_23  and  C_24
REMARK    8  A    between atoms: C_27  and  O_28
REMARK    9  A    between atoms: O_28  and  C_29
REMARK                            x       y       z     vdW  Elec       q    Type
REMARK                         _______ _______ _______ _____ _____    ______ ____
ROOT
ATOM      1  N   UNL     1       3.808   4.220  19.737  0.00  0.00    +0.000 N 
ATOM      2  C   UNL     1       2.747   5.120  19.858  0.00  0.00    +0.000 C 
ATOM      3  O   UNL     1       1.610   4.711  20.070  0.00  0.00    +0.000 OA
ATOM      4  N   UNL     1       3.056   6.454  19.671  0.00  0.00    +0.000 N 
ATOM      5  H   UNL     1       3.896   6.666  19.156  0.00  0.00    +0.000 HD
ENDROOT
BRANCH   4   6
ATOM      6  C   UNL     1       2.118   7.513  19.771  0.00  0.00    +0.000 A 
ATOM      7  C   UNL     1       1.855   8.399  18.725  0.00  0.00    +0.000 A 
ATOM      8  C   UNL     1       1.038   9.515  18.922  0.00  0.00    +0.000 A 
ATOM      9  C   UNL     1       0.431   9.740  20.152  0.00  0.00    +0.000 A 
ATOM     10  C   UNL     1       0.614   8.816  21.182  0.00  0.00    +0.000 A 
ATOM     11  C   UNL     1       1.451   7.702  20.987  0.00  0.00    +0.000 A 
BRANCH   9  12
ATOM     12  O   UNL     1      -0.246  10.921  20.243  0.00  0.00    +0.000 OA
ATOM     13  C   UNL     1      -0.426  11.457  21.544  0.00  0.00    +0.000 C 
ENDBRANCH   9  12
ENDBRANCH   4   6
BRANCH   1  14
ATOM     14  C   UNL     1       3.463   2.783  19.809  0.00  0.00    +0.000 C 
BRANCH  14  15
ATOM     15  C   UNL     1       4.608   1.772  20.007  0.00  0.00    +0.000 C 
BRANCH  15  17
ATOM     16  C   UNL     1       5.686   0.455  21.633  0.00  0.00    +0.000 C 
ATOM     17  O   UNL     1       5.048   1.702  21.363  0.00  0.00    +0.000 OA
ENDBRANCH  15  17
ENDBRANCH  14  15
ENDBRANCH   1  14
BRANCH   1  18
ATOM     18  C   UNL     1       5.207   4.599  19.520  0.00  0.00    +0.000 C 
BRANCH  18  19
ATOM     19  C   UNL     1       5.635   4.862  18.092  0.00  0.00    +0.000 A 
ATOM     20  C   UNL     1       4.930   4.439  16.955  0.00  0.00    +0.000 A 
ATOM     21  C   UNL     1       5.517   4.531  15.675  0.00  0.00    +0.000 A 
ATOM     22  C   UNL     1       4.903   3.982  14.531  0.00  0.00    +0.000 A 
ATOM     23  C   UNL     1       5.649   3.910  13.374  0.00  0.00    +0.000 A 
ATOM     24  C   UNL     1       6.915   4.433  13.300  0.00  0.00    +0.000 A 
ATOM     25  C   UNL     1       7.491   5.084  14.368  0.00  0.00    +0.000 A 
ATOM     26  C   UNL     1       6.810   5.117  15.578  0.00  0.00    +0.000 A 
ATOM     27  N   UNL     1       7.431   5.645  16.635  0.00  0.00    +0.000 NA
ATOM     28  C   UNL     1       6.852   5.500  17.845  0.00  0.00    +0.000 A 
ATOM     29 CL   UNL     1       7.816   6.179  19.102  0.00  0.00    +0.000 Cl
ATOM     30  O   UNL     1       7.515   4.174  12.106  0.00  0.00    +0.000 OA
ATOM     31  C   UNL     1       6.569   3.239  11.546  0.00  0.00    +0.000 C 
ATOM     32  O   UNL     1       5.294   3.268  12.227  0.00  0.00    +0.000 OA
ENDBRANCH  18  19
ENDBRANCH   1  18
TORSDOF 7
ENDMDL
MODEL 4
REMARK VINA RESULT:      -7.4      0.956      1.351
REMARK  Name = 
REMARK  9 active torsions:
REMARK  status: ('A' for Active; 'I' for Inactive)
REMARK    1  A    between atoms: C_1  and  O_2
REMARK    2  A    between atoms: O_2  and  C_3
REMARK    3  A    between atoms: C_3  and  C_4
REMARK    4  A    between atoms: C_4  and  N_5
REMARK    5  A    between atoms: N_5  and  C_6
REMARK    6  A    between atoms: C_6  and  C_7
REMARK    7  A    between atoms: N_23  and  C_24
REMARK    8  A    between atoms: C_27  and  O_28
REMARK    9  A    between atoms: O_28  and  C_29
REMARK                            x       y       z     vdW  Elec       q    Type
REMARK                         _______ _______ _______ _____ _____    ______ ____
ROOT
ATOM      1  N   UNL     1       3.456   5.004  19.911  0.00  0.00    +0.000 N 
ATOM      2  C   UNL     1       2.429   5.950  19.896  0.00  0.00    +0.000 C 
ATOM      3  O   UNL     1       1.268   5.606  20.094  0.00  0.00    +0.000 OA
ATOM      4  N   UNL     1       2.801   7.246  19.597  0.00  0.00    +0.000 N 
ATOM      5  H   UNL     1       3.670   7.376  19.103  0.00  0.00    +0.000 HD
ENDROOT
BRANCH   4   6
ATOM      6  C   UNL     1       1.904   8.345  19.552  0.00  0.00    +0.000 A 
ATOM      7  C   UNL     1       1.287   8.872  20.687  0.00  0.00    +0.000 A 
ATOM      8  C   UNL     1       0.298   9.852  20.573  0.00  0.00    +0.000 A 
ATOM      9  C   UNL     1      -0.060  10.356  19.328  0.00  0.00    +0.000 A 
ATOM     10  C   UNL     1       0.610   9.901  18.190  0.00  0.00    +0.000 A 
ATOM     11  C   UNL     1       1.594   8.902  18.306  0.00  0.00    +0.000 A 
BRANCH   9  12
ATOM     12  O   UNL     1      -1.115  11.221  19.347  0.00  0.00    +0.000 OA
ATOM     13  C   UNL     1      -2.109  11.040  18.353  0.00  0.00    +0.000 C 
ENDBRANCH   9  12
ENDBRANCH   4   6
BRANCH   1  14
ATOM     14  C   UNL     1       3.049   3.594  20.105  0.00  0.00    +0.000 C 
BRANCH  14  15
ATOM     15  C   UNL     1       4.147   2.516  20.101  0.00  0.00    +0.000 C 
BRANCH  15  17
ATOM     16  C   UNL     1       3.283   1.638  18.095  0.00  0.00    +0.000 C 
ATOM     17  O   UNL     1       4.459   2.056  18.786  0.00  0.00    +0.000 OA
ENDBRANCH  15  17
ENDBRANCH  14  15
ENDBRANCH   1  14
BRANCH   1  18
ATOM     18  C   UNL     1       4.877   5.307  19.723  0.00  0.00    +0.000 C 
BRANCH  18  19
ATOM     19  C   UNL     1       5.390   5.349  18.299  0.00  0.00    +0.000 A 
ATOM     20  C   UNL     1       4.630   5.020  17.167  0.00  0.00    +0.000 A 
ATOM     21  C   UNL     1       5.251   4.870  15.909  0.00  0.00    +0.000 A 
ATOM     22  C   UNL     1       4.550   4.397  14.781  0.00  0.00    +0.000 A 
ATOM     23  C   UNL     1       5.284   4.059  13.664  0.00  0.00    +0.000 A 
ATOM     24  C   UNL     1       6.640   4.257  13.606  0.00  0.00    +0.000 A 
ATOM     25  C   UNL     1       7.331   4.831  14.649  0.00  0.00    +0.000 A 
ATOM     26  C   UNL     1       6.650   5.119  15.824  0.00  0.00    +0.000 A 
ATOM     27  N   UNL     1       7.355   5.563  16.867  0.00  0.00    +0.000 NA
ATOM     28  C   UNL     1       6.730   5.656  18.060  0.00  0.00    +0.000 A 
ATOM     29 CL   UNL     1       7.800   6.179  19.306  0.00  0.00    +0.000 Cl
ATOM     30  O   UNL     1       7.187   3.770  12.459  0.00  0.00    +0.000 OA
ATOM     31  C   UNL     1       6.056   3.048  11.926  0.00  0.00    +0.000 C 
ATOM     32  O   UNL     1       4.811   3.434  12.550  0.00  0.00    +0.000 OA
ENDBRANCH  18  19
ENDBRANCH   1  18
TORSDOF 7
ENDMDL
MODEL 5
REMARK VINA RESULT:      -7.3      4.092      7.849
REMARK  Name = 
REMARK  9 active torsions:
REMARK  status: ('A' for Active; 'I' for Inactive)
REMARK    1  A    between atoms: C_1  and  O_2
REMARK    2  A    between atoms: O_2  and  C_3
REMARK    3  A    between atoms: C_3  and  C_4
REMARK    4  A    between atoms: C_4  and  N_5
REMARK    5  A    between atoms: N_5  and  C_6
REMARK    6  A    between atoms: C_6  and  C_7
REMARK    7  A    between atoms: N_23  and  C_24
REMARK    8  A    between atoms: C_27  and  O_28
REMARK    9  A    between atoms: O_28  and  C_29
REMARK                            x       y       z     vdW  Elec       q    Type
REMARK                         _______ _______ _______ _____ _____    ______ ____
ROOT
ATOM      1  N   UNL     1       0.333  11.927  19.791  0.00  0.00    +0.000 N 
ATOM      2  C   UNL     1      -0.551  12.631  20.612  0.00  0.00    +0.000 C 
ATOM      3  O   UNL     1      -0.204  13.685  21.134  0.00  0.00    +0.000 OA
ATOM      4  N   UNL     1      -1.782  12.041  20.826  0.00  0.00    +0.000 N 
ATOM      5  H   UNL     1      -1.851  11.047  20.675  0.00  0.00    +0.000 HD
ENDROOT
BRANCH   4   6
ATOM      6  C   UNL     1      -2.814  12.611  21.614  0.00  0.00    +0.000 A 
ATOM      7  C   UNL     1      -2.990  12.318  22.967  0.00  0.00    +0.000 A 
ATOM      8  C   UNL     1      -4.110  12.785  23.660  0.00  0.00    +0.000 A 
ATOM      9  C   UNL     1      -5.049  13.592  23.027  0.00  0.00    +0.000 A 
ATOM     10  C   UNL     1      -4.842  13.965  21.698  0.00  0.00    +0.000 A 
ATOM     11  C   UNL     1      -3.722  13.480  20.997  0.00  0.00    +0.000 A 
BRANCH   9  12
ATOM     12  O   UNL     1      -6.148  13.882  23.782  0.00  0.00    +0.000 OA
ATOM     13  C   UNL     1      -7.099  12.845  23.953  0.00  0.00    +0.000 C 
ENDBRANCH   9  12
ENDBRANCH   4   6
BRANCH   1  14
ATOM     14  C   UNL     1       1.697  12.488  19.659  0.00  0.00    +0.000 C 
BRANCH  14  15
ATOM     15  C   UNL     1       2.128  13.027  18.283  0.00  0.00    +0.000 C 
BRANCH  15  17
ATOM     16  C   UNL     1       3.363  14.418  19.726  0.00  0.00    +0.000 C 
ATOM     17  O   UNL     1       3.171  13.996  18.377  0.00  0.00    +0.000 OA
ENDBRANCH  15  17
ENDBRANCH  14  15
ENDBRANCH   1  14
BRANCH   1  18
ATOM     18  C   UNL     1       0.014  10.681  19.090  0.00  0.00    +0.000 C 
BRANCH  18  19
ATOM     19  C   UNL     1       0.975   9.525  19.267  0.00  0.00    +0.000 A 
ATOM     20  C   UNL     1       1.894   9.094  18.299  0.00  0.00    +0.000 A 
ATOM     21  C   UNL     1       2.587   7.875  18.463  0.00  0.00    +0.000 A 
ATOM     22  C   UNL     1       3.403   7.338  17.448  0.00  0.00    +0.000 A 
ATOM     23  C   UNL     1       3.847   6.042  17.600  0.00  0.00    +0.000 A 
ATOM     24  C   UNL     1       3.587   5.320  18.738  0.00  0.00    +0.000 A 
ATOM     25  C   UNL     1       2.896   5.865  19.796  0.00  0.00    +0.000 A 
ATOM     26  C   UNL     1       2.363   7.140  19.661  0.00  0.00    +0.000 A 
ATOM     27  N   UNL     1       1.594   7.608  20.647  0.00  0.00    +0.000 NA
ATOM     28  C   UNL     1       0.921   8.758  20.432  0.00  0.00    +0.000 A 
ATOM     29 CL   UNL     1      -0.071   9.181  21.777  0.00  0.00    +0.000 Cl
ATOM     30  O   UNL     1       4.028   4.036  18.650  0.00  0.00    +0.000 OA
ATOM     31  C   UNL     1       4.379   3.984  17.251  0.00  0.00    +0.000 C 
ATOM     32  O   UNL     1       4.497   5.298  16.662  0.00  0.00    +0.000 OA
ENDBRANCH  18  19
ENDBRANCH   1  18
TORSDOF 7
ENDMDL
MODEL 6
REMARK VINA RESULT:      -7.1      3.981      7.708
REMARK  Name = 
REMARK  9 active torsions:
REMARK  status: ('A' for Active; 'I' for Inactive)
REMARK    1  A    between atoms: C_1  and  O_2
REMARK    2  A    between atoms: O_2  and  C_3
REMARK    3  A    between atoms: C_3  and  C_4
REMARK    4  A    between atoms: C_4  and  N_5
REMARK    5  A    between atoms: N_5  and  C_6
REMARK    6  A    between atoms: C_6  and  C_7
REMARK    7  A    between atoms: N_23  and  C_24
REMARK    8  A    between atoms: C_27  and  O_28
REMARK    9  A    between atoms: O_28  and  C_29
REMARK                            x       y       z     vdW  Elec       q    Type
REMARK                         _______ _______ _______ _____ _____    ______ ____
ROOT
ATOM      1  N   UNL     1       0.438  11.839  19.653  0.00  0.00    +0.000 N 
ATOM      2  C   UNL     1      -0.435  12.556  20.473  0.00  0.00    +0.000 C 
ATOM      3  O   UNL     1      -0.082  13.619  20.974  0.00  0.00    +0.000 OA
ATOM      4  N   UNL     1      -1.663  11.971  20.712  0.00  0.00    +0.000 N 
ATOM      5  H   UNL     1      -1.735  10.974  20.579  0.00  0.00    +0.000 HD
ENDROOT
BRANCH   4   6
ATOM      6  C   UNL     1      -2.686  12.554  21.504  0.00  0.00    +0.000 A 
ATOM      7  C   UNL     1      -3.646  13.425  20.986  0.00  0.00    +0.000 A 
ATOM      8  C   UNL     1      -4.537  14.091  21.832  0.00  0.00    +0.000 A 
ATOM      9  C   UNL     1      -4.515  13.864  23.203  0.00  0.00    +0.000 A 
ATOM     10  C   UNL     1      -3.618  12.930  23.726  0.00  0.00    +0.000 A 
ATOM     11  C   UNL     1      -2.711  12.274  22.874  0.00  0.00    +0.000 A 
BRANCH   9  12
ATOM     12  O   UNL     1      -5.357  14.661  23.924  0.00  0.00    +0.000 OA
ATOM     13  C   UNL     1      -4.919  15.985  24.181  0.00  0.00    +0.000 C 
ENDBRANCH   9  12
ENDBRANCH   4   6
BRANCH   1  14
ATOM     14  C   UNL     1       1.800  12.397  19.495  0.00  0.00    +0.000 C 
BRANCH  14  15
ATOM     15  C   UNL     1       2.134  13.131  18.184  0.00  0.00    +0.000 C 
BRANCH  15  17
ATOM     16  C   UNL     1       3.211  14.486  19.780  0.00  0.00    +0.000 C 
ATOM     17  O   UNL     1       2.884  14.326  18.401  0.00  0.00    +0.000 OA
ENDBRANCH  15  17
ENDBRANCH  14  15
ENDBRANCH   1  14
BRANCH   1  18
ATOM     18  C   UNL     1       0.110  10.582  18.976  0.00  0.00    +0.000 C 
BRANCH  18  19
ATOM     19  C   UNL     1       1.069   9.425  19.168  0.00  0.00    +0.000 A 
ATOM     20  C   UNL     1       2.000   8.993  18.213  0.00  0.00    +0.000 A 
ATOM     21  C   UNL     1       2.690   7.775  18.388  0.00  0.00    +0.000 A 
ATOM     22  C   UNL     1       3.520   7.235  17.384  0.00  0.00    +0.000 A 
ATOM     23  C   UNL     1       3.962   5.939  17.544  0.00  0.00    +0.000 A 
ATOM     24  C   UNL     1       3.687   5.220  18.679  0.00  0.00    +0.000 A 
ATOM     25  C   UNL     1       2.982   5.766  19.728  0.00  0.00    +0.000 A 
ATOM     26  C   UNL     1       2.450   7.041  19.584  0.00  0.00    +0.000 A 
ATOM     27  N   UNL     1       1.669   7.511  20.559  0.00  0.00    +0.000 NA
ATOM     28  C   UNL     1       0.999   8.661  20.334  0.00  0.00    +0.000 A 
ATOM     29 CL   UNL     1      -0.010   9.086  21.665  0.00  0.00    +0.000 Cl
ATOM     30  O   UNL     1       4.129   3.935  18.598  0.00  0.00    +0.000 OA
ATOM     31  C   UNL     1       4.498   3.882  17.205  0.00  0.00    +0.000 C 
ATOM     32  O   UNL     1       4.624   5.195  16.615  0.00  0.00    +0.000 OA
ENDBRANCH  18  19
ENDBRANCH   1  18
TORSDOF 7
ENDMDL
MODEL 7
REMARK VINA RESULT:      -7.1      4.381      9.689
REMARK  Name = 
REMARK  9 active torsions:
REMARK  status: ('A' for Active; 'I' for Inactive)
REMARK    1  A    between atoms: C_1  and  O_2
REMARK    2  A    between atoms: O_2  and  C_3
REMARK    3  A    between atoms: C_3  and  C_4
REMARK    4  A    between atoms: C_4  and  N_5
REMARK    5  A    between atoms: N_5  and  C_6
REMARK    6  A    between atoms: C_6  and  C_7
REMARK    7  A    between atoms: N_23  and  C_24
REMARK    8  A    between atoms: C_27  and  O_28
REMARK    9  A    between atoms: O_28  and  C_29
REMARK                            x       y       z     vdW  Elec       q    Type
REMARK                         _______ _______ _______ _____ _____    ______ ____
ROOT
ATOM      1  N   UNL     1       0.952   9.645  19.964  0.00  0.00    +0.000 N 
ATOM      2  C   UNL     1       1.718   8.490  19.793  0.00  0.00    +0.000 C 
ATOM      3  O   UNL     1       2.161   7.891  20.768  0.00  0.00    +0.000 OA
ATOM      4  N   UNL     1       1.975   8.118  18.488  0.00  0.00    +0.000 N 
ATOM      5  H   UNL     1       1.898   8.832  17.780  0.00  0.00    +0.000 HD
ENDROOT
BRANCH   4   6
ATOM      6  C   UNL     1       2.718   6.968  18.116  0.00  0.00    +0.000 A 
ATOM      7  C   UNL     1       4.003   7.034  17.576  0.00  0.00    +0.000 A 
ATOM      8  C   UNL     1       4.632   5.886  17.085  0.00  0.00    +0.000 A 
ATOM      9  C   UNL     1       4.008   4.647  17.168  0.00  0.00    +0.000 A 
ATOM     10  C   UNL     1       2.759   4.552  17.785  0.00  0.00    +0.000 A 
ATOM     11  C   UNL     1       2.121   5.711  18.263  0.00  0.00    +0.000 A 
BRANCH   9  12
ATOM     12  O   UNL     1       4.679   3.632  16.551  0.00  0.00    +0.000 OA
ATOM     13  C   UNL     1       5.876   3.976  15.872  0.00  0.00    +0.000 C 
ENDBRANCH   9  12
ENDBRANCH   4   6
BRANCH   1  14
ATOM     14  C   UNL     1       0.779  10.120  21.355  0.00  0.00    +0.000 C 
BRANCH  14  15
ATOM     15  C   UNL     1      -0.493   9.697  22.112  0.00  0.00    +0.000 C 
BRANCH  15  17
ATOM     16  C   UNL     1      -1.592  11.520  23.118  0.00  0.00    +0.000 C 
ATOM     17  O   UNL     1      -0.684  10.437  23.317  0.00  0.00    +0.000 OA
ENDBRANCH  15  17
ENDBRANCH  14  15
ENDBRANCH   1  14
BRANCH   1  18
ATOM     18  C   UNL     1       0.345  10.416  18.876  0.00  0.00    +0.000 C 
BRANCH  18  19
ATOM     19  C   UNL     1       0.787  11.857  18.724  0.00  0.00    +0.000 A 
ATOM     20  C   UNL     1       2.077  12.261  18.351  0.00  0.00    +0.000 A 
ATOM     21  C   UNL     1       2.459  13.616  18.454  0.00  0.00    +0.000 A 
ATOM     22  C   UNL     1       3.785  14.037  18.233  0.00  0.00    +0.000 A 
ATOM     23  C   UNL     1       4.116  15.329  18.583  0.00  0.00    +0.000 A 
ATOM     24  C   UNL     1       3.174  16.212  19.047  0.00  0.00    +0.000 A 
ATOM     25  C   UNL     1       1.847  15.863  19.157  0.00  0.00    +0.000 A 
ATOM     26  C   UNL     1       1.477  14.551  18.888  0.00  0.00    +0.000 A 
ATOM     27  N   UNL     1       0.210  14.197  19.114  0.00  0.00    +0.000 NA
ATOM     28  C   UNL     1      -0.101  12.885  19.042  0.00  0.00    +0.000 A 
ATOM     29 CL   UNL     1      -1.757  12.598  19.426  0.00  0.00    +0.000 Cl
ATOM     30  O   UNL     1       3.720  17.400  19.426  0.00  0.00    +0.000 OA
ATOM     31  C   UNL     1       5.122  17.066  19.361  0.00  0.00    +0.000 C 
ATOM     32  O   UNL     1       5.369  15.862  18.602  0.00  0.00    +0.000 OA
ENDBRANCH  18  19
ENDBRANCH   1  18
TORSDOF 7
ENDMDL
MODEL 8
REMARK VINA RESULT:      -7.1      2.224      8.802
REMARK  Name = 
REMARK  9 active torsions:
REMARK  status: ('A' for Active; 'I' for Inactive)
REMARK    1  A    between atoms: C_1  and  O_2
REMARK    2  A    between atoms: O_2  and  C_3
REMARK    3  A    between atoms: C_3  and  C_4
REMARK    4  A    between atoms: C_4  and  N_5
REMARK    5  A    between atoms: N_5  and  C_6
REMARK    6  A    between atoms: C_6  and  C_7
REMARK    7  A    between atoms: N_23  and  C_24
REMARK    8  A    between atoms: C_27  and  O_28
REMARK    9  A    between atoms: O_28  and  C_29
REMARK                            x       y       z     vdW  Elec       q    Type
REMARK                         _______ _______ _______ _____ _____    ______ ____
ROOT
ATOM      1  N   UNL     1       2.654   5.017  19.778  0.00  0.00    +0.000 N 
ATOM      2  C   UNL     1       3.834   4.762  19.076  0.00  0.00    +0.000 C 
ATOM      3  O   UNL     1       4.696   4.034  19.557  0.00  0.00    +0.000 OA
ATOM      4  N   UNL     1       3.974   5.414  17.866  0.00  0.00    +0.000 N 
ATOM      5  H   UNL     1       3.421   6.244  17.720  0.00  0.00    +0.000 HD
ENDROOT
BRANCH   4   6
ATOM      6  C   UNL     1       5.092   5.268  17.005  0.00  0.00    +0.000 A 
ATOM      7  C   UNL     1       6.210   6.101  17.061  0.00  0.00    +0.000 A 
ATOM      8  C   UNL     1       7.215   6.015  16.095  0.00  0.00    +0.000 A 
ATOM      9  C   UNL     1       7.145   5.064  15.083  0.00  0.00    +0.000 A 
ATOM     10  C   UNL     1       6.076   4.166  15.064  0.00  0.00    +0.000 A 
ATOM     11  C   UNL     1       5.056   4.266  16.028  0.00  0.00    +0.000 A 
BRANCH   9  12
ATOM     12  O   UNL     1       8.129   5.162  14.143  0.00  0.00    +0.000 OA
ATOM     13  C   UNL     1       7.715   5.243  12.789  0.00  0.00    +0.000 C 
ENDBRANCH   9  12
ENDBRANCH   4   6
BRANCH   1  14
ATOM     14  C   UNL     1       2.552   4.424  21.130  0.00  0.00    +0.000 C 
BRANCH  14  15
ATOM     15  C   UNL     1       1.592   3.237  21.330  0.00  0.00    +0.000 C 
BRANCH  15  17
ATOM     16  C   UNL     1       0.777   2.317  19.323  0.00  0.00    +0.000 C 
ATOM     17  O   UNL     1       1.767   2.219  20.345  0.00  0.00    +0.000 OA
ENDBRANCH  15  17
ENDBRANCH  14  15
ENDBRANCH   1  14
BRANCH   1  18
ATOM     18  C   UNL     1       1.546   5.839  19.285  0.00  0.00    +0.000 C 
BRANCH  18  19
ATOM     19  C   UNL     1       1.449   7.254  19.815  0.00  0.00    +0.000 A 
ATOM     20  C   UNL     1       0.894   7.606  21.054  0.00  0.00    +0.000 A 
ATOM     21  C   UNL     1       0.640   8.959  21.364  0.00  0.00    +0.000 A 
ATOM     22  C   UNL     1      -0.050   9.341  22.532  0.00  0.00    +0.000 A 
ATOM     23  C   UNL     1      -0.458  10.654  22.637  0.00  0.00    +0.000 A 
ATOM     24  C   UNL     1      -0.130  11.587  21.687  0.00  0.00    +0.000 A 
ATOM     25  C   UNL     1       0.648  11.267  20.598  0.00  0.00    +0.000 A 
ATOM     26  C   UNL     1       1.020   9.943  20.408  0.00  0.00    +0.000 A 
ATOM     27  N   UNL     1       1.671   9.627  19.286  0.00  0.00    +0.000 NA
ATOM     28  C   UNL     1       1.858   8.319  19.011  0.00  0.00    +0.000 A 
ATOM     29 CL   UNL     1       2.653   8.089  17.499  0.00  0.00    +0.000 Cl
ATOM     30  O   UNL     1      -0.708  12.796  21.927  0.00  0.00    +0.000 OA
ATOM     31  C   UNL     1      -1.607  12.438  22.997  0.00  0.00    +0.000 C 
ATOM     32  O   UNL     1      -1.273  11.168  23.599  0.00  0.00    +0.000 OA
ENDBRANCH  18  19
ENDBRANCH   1  18
TORSDOF 7
ENDMDL
MODEL 9
REMARK VINA RESULT:      -7.1      2.219      9.000
REMARK  Name = 
REMARK  9 active torsions:
REMARK  status: ('A' for Active; 'I' for Inactive)
REMARK    1  A    between atoms: C_1  and  O_2
REMARK    2  A    between atoms: O_2  and  C_3
REMARK    3  A    between atoms: C_3  and  C_4
REMARK    4  A    between atoms: C_4  and  N_5
REMARK    5  A    between atoms: N_5  and  C_6
REMARK    6  A    between atoms: C_6  and  C_7
REMARK    7  A    between atoms: N_23  and  C_24
REMARK    8  A    between atoms: C_27  and  O_28
REMARK    9  A    between atoms: O_28  and  C_29
REMARK                            x       y       z     vdW  Elec       q    Type
REMARK                         _______ _______ _______ _____ _____    ______ ____
ROOT
ATOM      1  N   UNL     1       2.136   5.505  19.409  0.00  0.00    +0.000 N 
ATOM      2  C   UNL     1       2.738   5.029  18.243  0.00  0.00    +0.000 C 
ATOM      3  O   UNL     1       2.164   4.199  17.545  0.00  0.00    +0.000 OA
ATOM      4  N   UNL     1       4.007   5.506  17.975  0.00  0.00    +0.000 N 
ATOM      5  H   UNL     1       4.535   5.876  18.749  0.00  0.00    +0.000 HD
ENDROOT
BRANCH   4   6
ATOM      6  C   UNL     1       4.769   5.151  16.832  0.00  0.00    +0.000 A 
ATOM      7  C   UNL     1       5.142   6.070  15.850  0.00  0.00    +0.000 A 
ATOM      8  C   UNL     1       5.758   5.646  14.671  0.00  0.00    +0.000 A 
ATOM      9  C   UNL     1       6.056   4.302  14.471  0.00  0.00    +0.000 A 
ATOM     10  C   UNL     1       5.768   3.383  15.482  0.00  0.00    +0.000 A 
ATOM     11  C   UNL     1       5.132   3.811  16.661  0.00  0.00    +0.000 A 
BRANCH   9  12
ATOM     12  O   UNL     1       6.552   4.009  13.234  0.00  0.00    +0.000 OA
ATOM     13  C   UNL     1       5.704   3.279  12.362  0.00  0.00    +0.000 C 
ENDBRANCH   9  12
ENDBRANCH   4   6
BRANCH   1  14
ATOM     14  C   UNL     1       0.833   4.904  19.770  0.00  0.00    +0.000 C 
BRANCH  14  15
ATOM     15  C   UNL     1       0.836   3.545  20.491  0.00  0.00    +0.000 C 
BRANCH  15  17
ATOM     16  C   UNL     1       2.789   2.581  21.386  0.00  0.00    +0.000 C 
ATOM     17  O   UNL     1       1.733   3.516  21.601  0.00  0.00    +0.000 OA
ENDBRANCH  15  17
ENDBRANCH  14  15
ENDBRANCH   1  14
BRANCH   1  18
ATOM     18  C   UNL     1       2.713   6.519  20.296  0.00  0.00    +0.000 C 
BRANCH  18  19
ATOM     19  C   UNL     1       1.996   7.850  20.380  0.00  0.00    +0.000 A 
ATOM     20  C   UNL     1       1.449   8.390  21.553  0.00  0.00    +0.000 A 
ATOM     21  C   UNL     1       0.606   9.520  21.495  0.00  0.00    +0.000 A 
ATOM     22  C   UNL     1      -0.080  10.000  22.629  0.00  0.00    +0.000 A 
ATOM     23  C   UNL     1      -1.056  10.953  22.433  0.00  0.00    +0.000 A 
ATOM     24  C   UNL     1      -1.299  11.491  21.195  0.00  0.00    +0.000 A 
ATOM     25  C   UNL     1      -0.560  11.128  20.092  0.00  0.00    +0.000 A 
ATOM     26  C   UNL     1       0.384  10.117  20.222  0.00  0.00    +0.000 A 
ATOM     27  N   UNL     1       1.007   9.693  19.121  0.00  0.00    +0.000 NA
ATOM     28  C   UNL     1       1.774   8.586  19.216  0.00  0.00    +0.000 A 
ATOM     29 CL   UNL     1       2.447   8.141  17.693  0.00  0.00    +0.000 Cl
ATOM     30  O   UNL     1      -2.362  12.341  21.198  0.00  0.00    +0.000 OA
ATOM     31  C   UNL     1      -2.884  12.088  22.519  0.00  0.00    +0.000 C 
ATOM     32  O   UNL     1      -1.932  11.412  23.370  0.00  0.00    +0.000 OA
ENDBRANCH  18  19
ENDBRANCH   1  18
TORSDOF 7
ENDMDL
