MODEL 1
REMARK VINA RESULT:      -6.8      0.000      0.000
REMARK  Name = 
REMARK  4 active torsions:
REMARK  status: ('A' for Active; 'I' for Inactive)
REMARK    1  A    between atoms: C_2  and  C_3
REMARK    2  A    between atoms: C_4  and  C_5
REMARK    3  A    between atoms: C_14  and  O_15
REMARK    4  A    between atoms: C_16  and  O_17
REMARK                            x       y       z     vdW  Elec       q    Type
REMARK                         _______ _______ _______ _____ _____    ______ ____
ROOT
ATOM      1  O   UNL     1       4.505   5.852  17.454  0.00  0.00    +0.000 OA
ATOM      2  C   UNL     1       3.406   5.456  17.830  0.00  0.00    +0.000 C 
ATOM      3  N   UNL     1       3.112   4.128  18.023  0.00  0.00    +0.000 N 
ATOM      4  C   UNL     1       4.141   3.113  17.947  0.00  0.00    +0.000 C 
ATOM      5  C   UNL     1       3.598   1.968  18.808  0.00  0.00    +0.000 C 
ATOM      6  C   UNL     1       2.067   2.200  18.876  0.00  0.00    +0.000 C 
ATOM      7  C   UNL     1       1.810   3.485  18.087  0.00  0.00    +0.000 C 
ENDROOT
BRANCH   2   8
ATOM      8  C   UNL     1       2.338   6.411  18.217  0.00  0.00    +0.000 C 
ATOM      9  C   UNL     1       2.584   7.722  18.365  0.00  0.00    +0.000 C 
BRANCH   9  10
ATOM     10  C   UNL     1       1.579   8.658  18.896  0.00  0.00    +0.000 A 
ATOM     11  C   UNL     1       1.018   9.615  18.039  0.00  0.00    +0.000 A 
ATOM     12  C   UNL     1       0.085  10.541  18.522  0.00  0.00    +0.000 A 
ATOM     13  C   UNL     1      -0.289  10.530  19.864  0.00  0.00    +0.000 A 
ATOM     14  C   UNL     1       0.270   9.598  20.733  0.00  0.00    +0.000 A 
ATOM     15  C   UNL     1       1.199   8.681  20.248  0.00  0.00    +0.000 A 
ATOM     16  F   UNL     1       1.732   7.815  21.127  0.00  0.00    +0.000 F 
ENDBRANCH   9  10
ENDBRANCH   2   8
BRANCH   5  17
ATOM     17  O   UNL     1       3.921   0.693  18.264  0.00  0.00    +0.000 OA
ATOM     18  H   UNL     1       3.115   0.294  17.894  0.00  0.00    +0.000 HD
ENDBRANCH   5  17
BRANCH   6  19
ATOM     19  O   UNL     1       1.646   2.386  20.233  0.00  0.00    +0.000 OA
ATOM     20  H   UNL     1       1.645   3.343  20.416  0.00  0.00    +0.000 HD
ENDBRANCH   6  19
TORSDOF 4
ENDMDL
MODEL 2
REMARK VINA RESULT:      -6.7      4.549      5.736
REMARK  Name = 
REMARK  4 active torsions:
REMARK  status: ('A' for Active; 'I' for Inactive)
REMARK    1  A    between atoms: C_2  and  C_3
REMARK    2  A    between atoms: C_4  and  C_5
REMARK    3  A    between atoms: C_14  and  O_15
REMARK    4  A    between atoms: C_16  and  O_17
REMARK                            x       y       z     vdW  Elec       q    Type
REMARK                         _______ _______ _______ _____ _____    ______ ____
ROOT
ATOM      1  O   UNL     1       7.563   5.154  19.218  0.00  0.00    +0.000 OA
ATOM      2  C   UNL     1       6.505   5.192  18.598  0.00  0.00    +0.000 C 
ATOM      3  N   UNL     1       6.439   5.360  17.236  0.00  0.00    +0.000 N 
ATOM      4  C   UNL     1       7.633   5.345  16.418  0.00  0.00    +0.000 C 
ATOM      5  C   UNL     1       7.132   4.920  15.035  0.00  0.00    +0.000 C 
ATOM      6  C   UNL     1       5.616   5.243  15.034  0.00  0.00    +0.000 C 
ATOM      7  C   UNL     1       5.313   5.798  16.427  0.00  0.00    +0.000 C 
ENDROOT
BRANCH   2   8
ATOM      8  C   UNL     1       5.209   4.939  19.275  0.00  0.00    +0.000 C 
ATOM      9  C   UNL     1       4.638   3.724  19.274  0.00  0.00    +0.000 C 
BRANCH   9  10
ATOM     10  C   UNL     1       3.286   3.489  19.804  0.00  0.00    +0.000 A 
ATOM     11  C   UNL     1       3.139   2.844  21.040  0.00  0.00    +0.000 A 
ATOM     12  C   UNL     1       1.866   2.575  21.555  0.00  0.00    +0.000 A 
ATOM     13  C   UNL     1       0.726   2.934  20.840  0.00  0.00    +0.000 A 
ATOM     14  C   UNL     1       0.851   3.561  19.604  0.00  0.00    +0.000 A 
ATOM     15  C   UNL     1       2.119   3.823  19.095  0.00  0.00    +0.000 A 
ATOM     16  F   UNL     1       2.194   4.407  17.886  0.00  0.00    +0.000 F 
ENDBRANCH   9  10
ENDBRANCH   2   8
BRANCH   5  17
ATOM     17  O   UNL     1       7.821   5.596  13.989  0.00  0.00    +0.000 OA
ATOM     18  H   UNL     1       8.721   5.808  14.289  0.00  0.00    +0.000 HD
ENDBRANCH   5  17
BRANCH   6  19
ATOM     19  O   UNL     1       4.849   4.052  14.822  0.00  0.00    +0.000 OA
ATOM     20  H   UNL     1       4.568   4.040  13.888  0.00  0.00    +0.000 HD
ENDBRANCH   6  19
TORSDOF 4
ENDMDL
MODEL 3
REMARK VINA RESULT:      -6.6      1.071      1.557
REMARK  Name = 
REMARK  4 active torsions:
REMARK  status: ('A' for Active; 'I' for Inactive)
REMARK    1  A    between atoms: C_2  and  C_3
REMARK    2  A    between atoms: C_4  and  C_5
REMARK    3  A    between atoms: C_14  and  O_15
REMARK    4  A    between atoms: C_16  and  O_17
REMARK                            x       y       z     vdW  Elec       q    Type
REMARK                         _______ _______ _______ _____ _____    ______ ____
ROOT
ATOM      1  O   UNL     1       4.681   5.877  17.543  0.00  0.00    +0.000 OA
ATOM      2  C   UNL     1       3.556   5.509  17.868  0.00  0.00    +0.000 C 
ATOM      3  N   UNL     1       3.219   4.189  18.041  0.00  0.00    +0.000 N 
ATOM      4  C   UNL     1       4.223   3.146  18.005  0.00  0.00    +0.000 C 
ATOM      5  C   UNL     1       3.612   2.013  18.835  0.00  0.00    +0.000 C 
ATOM      6  C   UNL     1       2.087   2.286  18.837  0.00  0.00    +0.000 C 
ATOM      7  C   UNL     1       1.898   3.580  18.044  0.00  0.00    +0.000 C 
ENDROOT
BRANCH   2   8
ATOM      8  C   UNL     1       2.497   6.491  18.212  0.00  0.00    +0.000 C 
ATOM      9  C   UNL     1       2.745   7.547  19.002  0.00  0.00    +0.000 C 
BRANCH   9  10
ATOM     10  C   UNL     1       1.679   8.442  19.480  0.00  0.00    +0.000 A 
ATOM     11  C   UNL     1       1.163   8.261  20.771  0.00  0.00    +0.000 A 
ATOM     12  C   UNL     1       0.125   9.074  21.241  0.00  0.00    +0.000 A 
ATOM     13  C   UNL     1      -0.417  10.067  20.428  0.00  0.00    +0.000 A 
ATOM     14  C   UNL     1       0.071  10.250  19.138  0.00  0.00    +0.000 A 
ATOM     15  C   UNL     1       1.101   9.437  18.674  0.00  0.00    +0.000 A 
ATOM     16  F   UNL     1       1.525   9.632  17.413  0.00  0.00    +0.000 F 
ENDBRANCH   9  10
ENDBRANCH   2   8
BRANCH   5  17
ATOM     17  O   UNL     1       3.925   0.733  18.299  0.00  0.00    +0.000 OA
ATOM     18  H   UNL     1       4.636   0.333  18.829  0.00  0.00    +0.000 HD
ENDBRANCH   5  17
BRANCH   6  19
ATOM     19  O   UNL     1       1.611   2.477  20.175  0.00  0.00    +0.000 OA
ATOM     20  H   UNL     1       1.560   1.602  20.602  0.00  0.00    +0.000 HD
ENDBRANCH   6  19
TORSDOF 4
ENDMDL
MODEL 4
REMARK VINA RESULT:      -6.6      2.286      3.727
REMARK  Name = 
REMARK  4 active torsions:
REMARK  status: ('A' for Active; 'I' for Inactive)
REMARK    1  A    between atoms: C_2  and  C_3
REMARK    2  A    between atoms: C_4  and  C_5
REMARK    3  A    between atoms: C_14  and  O_15
REMARK    4  A    between atoms: C_16  and  O_17
REMARK                            x       y       z     vdW  Elec       q    Type
REMARK                         _______ _______ _______ _____ _____    ______ ____
ROOT
ATOM      1  O   UNL     1       2.820   3.815  17.229  0.00  0.00    +0.000 OA
ATOM      2  C   UNL     1       3.432   4.719  17.790  0.00  0.00    +0.000 C 
ATOM      3  N   UNL     1       4.767   4.967  17.577  0.00  0.00    +0.000 N 
ATOM      4  C   UNL     1       5.505   4.269  16.546  0.00  0.00    +0.000 C 
ATOM      5  C   UNL     1       6.658   5.218  16.206  0.00  0.00    +0.000 C 
ATOM      6  C   UNL     1       6.798   6.147  17.438  0.00  0.00    +0.000 C 
ATOM      7  C   UNL     1       5.697   5.714  18.408  0.00  0.00    +0.000 C 
ENDROOT
BRANCH   2   8
ATOM      8  C   UNL     1       2.731   5.694  18.663  0.00  0.00    +0.000 C 
ATOM      9  C   UNL     1       2.477   6.948  18.258  0.00  0.00    +0.000 C 
BRANCH   9  10
ATOM     10  C   UNL     1       1.924   7.971  19.160  0.00  0.00    +0.000 A 
ATOM     11  C   UNL     1       1.741   7.660  20.514  0.00  0.00    +0.000 A 
ATOM     12  C   UNL     1       1.187   8.599  21.391  0.00  0.00    +0.000 A 
ATOM     13  C   UNL     1       0.798   9.853  20.925  0.00  0.00    +0.000 A 
ATOM     14  C   UNL     1       0.956  10.175  19.581  0.00  0.00    +0.000 A 
ATOM     15  C   UNL     1       1.506   9.236  18.713  0.00  0.00    +0.000 A 
ATOM     16  F   UNL     1       1.619   9.579  17.418  0.00  0.00    +0.000 F 
ENDBRANCH   9  10
ENDBRANCH   2   8
BRANCH   5  17
ATOM     17  O   UNL     1       7.863   4.513  15.928  0.00  0.00    +0.000 OA
ATOM     18  H   UNL     1       8.508   4.700  16.632  0.00  0.00    +0.000 HD
ENDBRANCH   5  17
BRANCH   6  19
ATOM     19  O   UNL     1       6.589   7.514  17.064  0.00  0.00    +0.000 OA
ATOM     20  H   UNL     1       5.711   7.782  17.392  0.00  0.00    +0.000 HD
ENDBRANCH   6  19
TORSDOF 4
ENDMDL
MODEL 5
REMARK VINA RESULT:      -6.6      3.148      6.627
REMARK  Name = 
REMARK  4 active torsions:
REMARK  status: ('A' for Active; 'I' for Inactive)
REMARK    1  A    between atoms: C_2  and  C_3
REMARK    2  A    between atoms: C_4  and  C_5
REMARK    3  A    between atoms: C_14  and  O_15
REMARK    4  A    between atoms: C_16  and  O_17
REMARK                            x       y       z     vdW  Elec       q    Type
REMARK                         _______ _______ _______ _____ _____    ______ ____
ROOT
ATOM      1  O   UNL     1       2.283   8.898  17.382  0.00  0.00    +0.000 OA
ATOM      2  C   UNL     1       2.116   8.327  18.456  0.00  0.00    +0.000 C 
ATOM      3  N   UNL     1       1.440   8.894  19.509  0.00  0.00    +0.000 N 
ATOM      4  C   UNL     1       0.737  10.151  19.362  0.00  0.00    +0.000 C 
ATOM      5  C   UNL     1      -0.343  10.103  20.447  0.00  0.00    +0.000 C 
ATOM      6  C   UNL     1       0.161   9.061  21.477  0.00  0.00    +0.000 C 
ATOM      7  C   UNL     1       1.483   8.533  20.917  0.00  0.00    +0.000 C 
ENDROOT
BRANCH   2   8
ATOM      8  C   UNL     1       2.541   6.919  18.651  0.00  0.00    +0.000 C 
ATOM      9  C   UNL     1       1.909   5.901  18.046  0.00  0.00    +0.000 C 
BRANCH   9  10
ATOM     10  C   UNL     1       2.215   4.493  18.346  0.00  0.00    +0.000 A 
ATOM     11  C   UNL     1       3.115   3.800  17.524  0.00  0.00    +0.000 A 
ATOM     12  C   UNL     1       3.401   2.451  17.762  0.00  0.00    +0.000 A 
ATOM     13  C   UNL     1       2.785   1.775  18.814  0.00  0.00    +0.000 A 
ATOM     14  C   UNL     1       1.878   2.442  19.631  0.00  0.00    +0.000 A 
ATOM     15  C   UNL     1       1.595   3.783  19.388  0.00  0.00    +0.000 A 
ATOM     16  F   UNL     1       0.693   4.382  20.186  0.00  0.00    +0.000 F 
ENDBRANCH   9  10
ENDBRANCH   2   8
BRANCH   5  17
ATOM     17  O   UNL     1      -0.559  11.378  21.039  0.00  0.00    +0.000 OA
ATOM     18  H   UNL     1       0.201  11.952  20.841  0.00  0.00    +0.000 HD
ENDBRANCH   5  17
BRANCH   6  19
ATOM     19  O   UNL     1      -0.770   7.978  21.594  0.00  0.00    +0.000 OA
ATOM     20  H   UNL     1      -1.451   8.095  20.906  0.00  0.00    +0.000 HD
ENDBRANCH   6  19
TORSDOF 4
ENDMDL
MODEL 6
REMARK VINA RESULT:      -6.5      3.346      6.774
REMARK  Name = 
REMARK  4 active torsions:
REMARK  status: ('A' for Active; 'I' for Inactive)
REMARK    1  A    between atoms: C_2  and  C_3
REMARK    2  A    between atoms: C_4  and  C_5
REMARK    3  A    between atoms: C_14  and  O_15
REMARK    4  A    between atoms: C_16  and  O_17
REMARK                            x       y       z     vdW  Elec       q    Type
REMARK                         _______ _______ _______ _____ _____    ______ ____
ROOT
ATOM      1  O   UNL     1       2.256   8.932  17.390  0.00  0.00    +0.000 OA
ATOM      2  C   UNL     1       2.091   8.341  18.453  0.00  0.00    +0.000 C 
ATOM      3  N   UNL     1       1.435   8.895  19.526  0.00  0.00    +0.000 N 
ATOM      4  C   UNL     1       0.752  10.166  19.414  0.00  0.00    +0.000 C 
ATOM      5  C   UNL     1      -0.317  10.111  20.509  0.00  0.00    +0.000 C 
ATOM      6  C   UNL     1       0.181   9.039  21.511  0.00  0.00    +0.000 C 
ATOM      7  C   UNL     1       1.488   8.502  20.925  0.00  0.00    +0.000 C 
ENDROOT
BRANCH   2   8
ATOM      8  C   UNL     1       2.495   6.922  18.612  0.00  0.00    +0.000 C 
ATOM      9  C   UNL     1       1.974   5.950  17.848  0.00  0.00    +0.000 C 
BRANCH   9  10
ATOM     10  C   UNL     1       2.244   4.525  18.093  0.00  0.00    +0.000 A 
ATOM     11  C   UNL     1       1.415   3.813  18.971  0.00  0.00    +0.000 A 
ATOM     12  C   UNL     1       1.667   2.464  19.251  0.00  0.00    +0.000 A 
ATOM     13  C   UNL     1       2.753   1.815  18.668  0.00  0.00    +0.000 A 
ATOM     14  C   UNL     1       3.596   2.509  17.806  0.00  0.00    +0.000 A 
ATOM     15  C   UNL     1       3.343   3.850  17.534  0.00  0.00    +0.000 A 
ATOM     16  F   UNL     1       4.198   4.489  16.716  0.00  0.00    +0.000 F 
ENDBRANCH   9  10
ENDBRANCH   2   8
BRANCH   5  17
ATOM     17  O   UNL     1      -0.506  11.377  21.132  0.00  0.00    +0.000 OA
ATOM     18  H   UNL     1      -0.231  12.077  20.516  0.00  0.00    +0.000 HD
ENDBRANCH   5  17
BRANCH   6  19
ATOM     19  O   UNL     1      -0.766   7.969  21.615  0.00  0.00    +0.000 OA
ATOM     20  H   UNL     1      -0.611   7.360  20.869  0.00  0.00    +0.000 HD
ENDBRANCH   6  19
TORSDOF 4
ENDMDL
MODEL 7
REMARK VINA RESULT:      -6.4      4.504      5.836
REMARK  Name = 
REMARK  4 active torsions:
REMARK  status: ('A' for Active; 'I' for Inactive)
REMARK    1  A    between atoms: C_2  and  C_3
REMARK    2  A    between atoms: C_4  and  C_5
REMARK    3  A    between atoms: C_14  and  O_15
REMARK    4  A    between atoms: C_16  and  O_17
REMARK                            x       y       z     vdW  Elec       q    Type
REMARK                         _______ _______ _______ _____ _____    ______ ____
ROOT
ATOM      1  O   UNL     1       7.839   4.665  18.648  0.00  0.00    +0.000 OA
ATOM      2  C   UNL     1       6.756   4.884  18.114  0.00  0.00    +0.000 C 
ATOM      3  N   UNL     1       6.623   5.160  16.774  0.00  0.00    +0.000 N 
ATOM      4  C   UNL     1       7.747   5.053  15.870  0.00  0.00    +0.000 C 
ATOM      5  C   UNL     1       7.103   4.800  14.503  0.00  0.00    +0.000 C 
ATOM      6  C   UNL     1       5.647   5.313  14.638  0.00  0.00    +0.000 C 
ATOM      7  C   UNL     1       5.513   5.797  16.083  0.00  0.00    +0.000 C 
ENDROOT
BRANCH   2   8
ATOM      8  C   UNL     1       5.486   4.750  18.869  0.00  0.00    +0.000 C 
ATOM      9  C   UNL     1       4.739   3.637  18.801  0.00  0.00    +0.000 C 
BRANCH   9  10
ATOM     10  C   UNL     1       3.406   3.543  19.417  0.00  0.00    +0.000 A 
ATOM     11  C   UNL     1       2.916   4.630  20.154  0.00  0.00    +0.000 A 
ATOM     12  C   UNL     1       1.666   4.559  20.780  0.00  0.00    +0.000 A 
ATOM     13  C   UNL     1       0.897   3.401  20.688  0.00  0.00    +0.000 A 
ATOM     14  C   UNL     1       1.374   2.306  19.975  0.00  0.00    +0.000 A 
ATOM     15  C   UNL     1       2.618   2.381  19.356  0.00  0.00    +0.000 A 
ATOM     16  F   UNL     1       3.051   1.291  18.698  0.00  0.00    +0.000 F 
ENDBRANCH   9  10
ENDBRANCH   2   8
BRANCH   5  17
ATOM     17  O   UNL     1       7.805   5.457  13.454  0.00  0.00    +0.000 OA
ATOM     18  H   UNL     1       7.464   5.142  12.599  0.00  0.00    +0.000 HD
ENDBRANCH   5  17
BRANCH   6  19
ATOM     19  O   UNL     1       4.716   4.249  14.408  0.00  0.00    +0.000 OA
ATOM     20  H   UNL     1       3.996   4.598  13.851  0.00  0.00    +0.000 HD
ENDBRANCH   6  19
TORSDOF 4
ENDMDL
MODEL 8
REMARK VINA RESULT:      -6.4      4.498      6.756
REMARK  Name = 
REMARK  4 active torsions:
REMARK  status: ('A' for Active; 'I' for Inactive)
REMARK    1  A    between atoms: C_2  and  C_3
REMARK    2  A    between atoms: C_4  and  C_5
REMARK    3  A    between atoms: C_14  and  O_15
REMARK    4  A    between atoms: C_16  and  O_17
REMARK                            x       y       z     vdW  Elec       q    Type
REMARK                         _______ _______ _______ _____ _____    ______ ____
ROOT
ATOM      1  O   UNL     1       5.744   4.545  19.150  0.00  0.00    +0.000 OA
ATOM      2  C   UNL     1       4.969   4.280  18.236  0.00  0.00    +0.000 C 
ATOM      3  N   UNL     1       3.706   3.782  18.443  0.00  0.00    +0.000 N 
ATOM      4  C   UNL     1       3.146   3.685  19.774  0.00  0.00    +0.000 C 
ATOM      5  C   UNL     1       1.632   3.722  19.545  0.00  0.00    +0.000 C 
ATOM      6  C   UNL     1       1.433   3.300  18.067  0.00  0.00    +0.000 C 
ATOM      7  C   UNL     1       2.840   3.080  17.509  0.00  0.00    +0.000 C 
ENDROOT
BRANCH   2   8
ATOM      8  C   UNL     1       5.309   4.595  16.826  0.00  0.00    +0.000 C 
ATOM      9  C   UNL     1       5.740   3.650  15.976  0.00  0.00    +0.000 C 
BRANCH   9  10
ATOM     10  C   UNL     1       6.227   3.968  14.624  0.00  0.00    +0.000 A 
ATOM     11  C   UNL     1       5.729   3.246  13.531  0.00  0.00    +0.000 A 
ATOM     12  C   UNL     1       6.197   3.501  12.237  0.00  0.00    +0.000 A 
ATOM     13  C   UNL     1       7.175   4.470  12.020  0.00  0.00    +0.000 A 
ATOM     14  C   UNL     1       7.694   5.186  13.095  0.00  0.00    +0.000 A 
ATOM     15  C   UNL     1       7.226   4.926  14.380  0.00  0.00    +0.000 A 
ATOM     16  F   UNL     1       7.772   5.623  15.391  0.00  0.00    +0.000 F 
ENDBRANCH   9  10
ENDBRANCH   2   8
BRANCH   5  17
ATOM     17  O   UNL     1       0.936   2.865  20.443  0.00  0.00    +0.000 OA
ATOM     18  H   UNL     1       1.547   2.577  21.143  0.00  0.00    +0.000 HD
ENDBRANCH   5  17
BRANCH   6  19
ATOM     19  O   UNL     1       0.789   4.345  17.328  0.00  0.00    +0.000 OA
ATOM     20  H   UNL     1       0.562   3.992  16.448  0.00  0.00    +0.000 HD
ENDBRANCH   6  19
TORSDOF 4
ENDMDL
MODEL 9
REMARK VINA RESULT:      -6.4      1.564      2.165
REMARK  Name = 
REMARK  4 active torsions:
REMARK  status: ('A' for Active; 'I' for Inactive)
REMARK    1  A    between atoms: C_2  and  C_3
REMARK    2  A    between atoms: C_4  and  C_5
REMARK    3  A    between atoms: C_14  and  O_15
REMARK    4  A    between atoms: C_16  and  O_17
REMARK                            x       y       z     vdW  Elec       q    Type
REMARK                         _______ _______ _______ _____ _____    ______ ____
ROOT
ATOM      1  O   UNL     1       2.217   4.117  21.849  0.00  0.00    +0.000 OA
ATOM      2  C   UNL     1       2.320   4.462  20.676  0.00  0.00    +0.000 C 
ATOM      3  N   UNL     1       2.915   3.682  19.713  0.00  0.00    +0.000 N 
ATOM      4  C   UNL     1       3.321   2.322  19.995  0.00  0.00    +0.000 C 
ATOM      5  C   UNL     1       3.312   1.640  18.623  0.00  0.00    +0.000 C 
ATOM      6  C   UNL     1       3.419   2.793  17.594  0.00  0.00    +0.000 C 
ATOM      7  C   UNL     1       3.444   4.081  18.419  0.00  0.00    +0.000 C 
ENDROOT
BRANCH   2   8
ATOM      8  C   UNL     1       1.695   5.716  20.187  0.00  0.00    +0.000 C 
ATOM      9  C   UNL     1       2.387   6.863  20.105  0.00  0.00    +0.000 C 
BRANCH   9  10
ATOM     10  C   UNL     1       1.749   8.146  19.772  0.00  0.00    +0.000 A 
ATOM     11  C   UNL     1       1.895   8.666  18.478  0.00  0.00    +0.000 A 
ATOM     12  C   UNL     1       1.329   9.901  18.140  0.00  0.00    +0.000 A 
ATOM     13  C   UNL     1       0.621  10.635  19.089  0.00  0.00    +0.000 A 
ATOM     14  C   UNL     1       0.479  10.144  20.383  0.00  0.00    +0.000 A 
ATOM     15  C   UNL     1       1.046   8.917  20.715  0.00  0.00    +0.000 A 
ATOM     16  F   UNL     1       0.906   8.491  21.982  0.00  0.00    +0.000 F 
ENDBRANCH   9  10
ENDBRANCH   2   8
BRANCH   5  17
ATOM     17  O   UNL     1       4.375   0.703  18.488  0.00  0.00    +0.000 OA
ATOM     18  H   UNL     1       5.203   1.120  18.779  0.00  0.00    +0.000 HD
ENDBRANCH   5  17
BRANCH   6  19
ATOM     19  O   UNL     1       2.275   2.806  16.732  0.00  0.00    +0.000 OA
ATOM     20  H   UNL     1       1.958   1.888  16.643  0.00  0.00    +0.000 HD
ENDBRANCH   6  19
TORSDOF 4
ENDMDL
