MODEL 1
REMARK VINA RESULT:      -7.2      0.000      0.000
REMARK  Name = 
REMARK  6 active torsions:
REMARK  status: ('A' for Active; 'I' for Inactive)
REMARK    1  A    between atoms: C_1  and  C_2
REMARK    2  A    between atoms: C_2  and  C_3
REMARK    3  A    between atoms: C_3  and  C_4
REMARK    4  A    between atoms: C_4  and  N_5
REMARK    5  A    between atoms: C_4  and  C_14
REMARK    6  A    between atoms: C_6  and  C_8
REMARK                            x       y       z     vdW  Elec       q    Type
REMARK                         _______ _______ _______ _____ _____    ______ ____
ROOT
ATOM      1  C   UNL     1       6.818   4.499  16.602  0.00  0.00    +0.000 C 
ENDROOT
BRANCH   1   2
ATOM      2  C   UNL     1       7.154   5.880  17.049  0.00  0.00    +0.000 A 
ATOM      3  N   UNL     1       6.758   7.034  16.548  0.00  0.00    +0.000 NA
ATOM      4  N   UNL     1       7.328   8.007  17.334  0.00  0.00    +0.000 NA
ATOM      5  N   UNL     1       8.064   7.470  18.296  0.00  0.00    +0.000 NA
ATOM      6  N   UNL     1       7.953   6.148  18.126  0.00  0.00    +0.000 N 
ATOM      7  H   UNL     1       8.443   5.518  18.748  0.00  0.00    +0.000 HD
ENDBRANCH   1   2
BRANCH   1   8
ATOM      8  N   UNL     1       5.456   4.219  17.015  0.00  0.00    +0.000 N 
ATOM      9  C   UNL     1       5.124   3.976  18.329  0.00  0.00    +0.000 C 
ATOM     10  O   UNL     1       5.963   4.043  19.226  0.00  0.00    +0.000 OA
ATOM     11  H   UNL     1       4.725   4.149  16.310  0.00  0.00    +0.000 HD
BRANCH   9  12
ATOM     12  C   UNL     1       3.737   3.641  18.565  0.00  0.00    +0.000 A 
ATOM     13  C   UNL     1       2.685   3.482  17.680  0.00  0.00    +0.000 A 
ATOM     14  C   UNL     1       1.544   3.172  18.457  0.00  0.00    +0.000 A 
ATOM     15  C   UNL     1       1.958   3.164  19.771  0.00  0.00    +0.000 A 
ATOM     16 CL   UNL     1       0.978   2.858  21.149  0.00  0.00    +0.000 Cl
ATOM     17  O   UNL     1       3.290   3.441  19.844  0.00  0.00    +0.000 OA
ENDBRANCH   9  12
ENDBRANCH   1   8
BRANCH   1  18
ATOM     18  C   UNL     1       6.983   4.315  15.081  0.00  0.00    +0.000 C 
BRANCH  18  20
ATOM     19  C   UNL     1       5.818   3.647  12.934  0.00  0.00    +0.000 C 
ATOM     20  C   UNL     1       5.646   4.215  14.335  0.00  0.00    +0.000 C 
ENDBRANCH  18  20
ENDBRANCH   1  18
TORSDOF 5
ENDMDL
MODEL 2
REMARK VINA RESULT:      -7.1      2.128      3.325
REMARK  Name = 
REMARK  6 active torsions:
REMARK  status: ('A' for Active; 'I' for Inactive)
REMARK    1  A    between atoms: C_1  and  C_2
REMARK    2  A    between atoms: C_2  and  C_3
REMARK    3  A    between atoms: C_3  and  C_4
REMARK    4  A    between atoms: C_4  and  N_5
REMARK    5  A    between atoms: C_4  and  C_14
REMARK    6  A    between atoms: C_6  and  C_8
REMARK                            x       y       z     vdW  Elec       q    Type
REMARK                         _______ _______ _______ _____ _____    ______ ____
ROOT
ATOM      1  C   UNL     1       6.247   5.479  16.780  0.00  0.00    +0.000 C 
ENDROOT
BRANCH   1   2
ATOM      2  C   UNL     1       6.514   5.049  15.379  0.00  0.00    +0.000 A 
ATOM      3  N   UNL     1       7.489   5.415  14.570  0.00  0.00    +0.000 NA
ATOM      4  N   UNL     1       7.298   4.716  13.402  0.00  0.00    +0.000 NA
ATOM      5  N   UNL     1       6.228   3.939  13.482  0.00  0.00    +0.000 NA
ATOM      6  N   UNL     1       5.742   4.139  14.712  0.00  0.00    +0.000 N 
ATOM      7  H   UNL     1       4.906   3.650  15.007  0.00  0.00    +0.000 HD
ENDBRANCH   1   2
BRANCH   1   8
ATOM      8  N   UNL     1       5.097   4.736  17.259  0.00  0.00    +0.000 N 
ATOM      9  C   UNL     1       3.950   5.362  17.693  0.00  0.00    +0.000 C 
ATOM     10  O   UNL     1       3.826   6.584  17.639  0.00  0.00    +0.000 OA
ATOM     11  H   UNL     1       5.151   3.722  17.328  0.00  0.00    +0.000 HD
BRANCH   9  12
ATOM     12  C   UNL     1       2.923   4.483  18.209  0.00  0.00    +0.000 A 
ATOM     13  C   UNL     1       1.944   3.760  17.551  0.00  0.00    +0.000 A 
ATOM     14  C   UNL     1       1.201   3.084  18.547  0.00  0.00    +0.000 A 
ATOM     15  C   UNL     1       1.761   3.434  19.757  0.00  0.00    +0.000 A 
ATOM     16 CL   UNL     1       1.245   2.913  21.311  0.00  0.00    +0.000 Cl
ATOM     17  O   UNL     1       2.811   4.278  19.558  0.00  0.00    +0.000 OA
ENDBRANCH   9  12
ENDBRANCH   1   8
BRANCH   1  18
ATOM     18  C   UNL     1       7.464   5.269  17.703  0.00  0.00    +0.000 C 
BRANCH  18  20
ATOM     19  C   UNL     1       7.824   7.776  17.721  0.00  0.00    +0.000 C 
ATOM     20  C   UNL     1       7.797   6.502  18.554  0.00  0.00    +0.000 C 
ENDBRANCH  18  20
ENDBRANCH   1  18
TORSDOF 5
ENDMDL
MODEL 3
REMARK VINA RESULT:      -7.0      1.202      1.599
REMARK  Name = 
REMARK  6 active torsions:
REMARK  status: ('A' for Active; 'I' for Inactive)
REMARK    1  A    between atoms: C_1  and  C_2
REMARK    2  A    between atoms: C_2  and  C_3
REMARK    3  A    between atoms: C_3  and  C_4
REMARK    4  A    between atoms: C_4  and  N_5
REMARK    5  A    between atoms: C_4  and  C_14
REMARK    6  A    between atoms: C_6  and  C_8
REMARK                            x       y       z     vdW  Elec       q    Type
REMARK                         _______ _______ _______ _____ _____    ______ ____
ROOT
ATOM      1  C   UNL     1       6.292   3.897  15.648  0.00  0.00    +0.000 C 
ENDROOT
BRANCH   1   2
ATOM      2  C   UNL     1       6.954   4.969  16.442  0.00  0.00    +0.000 A 
ATOM      3  N   UNL     1       7.590   4.876  17.594  0.00  0.00    +0.000 NA
ATOM      4  N   UNL     1       8.035   6.143  17.887  0.00  0.00    +0.000 NA
ATOM      5  N   UNL     1       7.679   7.002  16.944  0.00  0.00    +0.000 NA
ATOM      6  N   UNL     1       7.013   6.274  16.041  0.00  0.00    +0.000 N 
ATOM      7  H   UNL     1       6.630   6.723  15.218  0.00  0.00    +0.000 HD
ENDBRANCH   1   2
BRANCH   1   8
ATOM      8  N   UNL     1       5.242   3.323  16.468  0.00  0.00    +0.000 N 
ATOM      9  C   UNL     1       4.262   4.095  17.049  0.00  0.00    +0.000 C 
ATOM     10  O   UNL     1       4.197   5.307  16.850  0.00  0.00    +0.000 OA
ATOM     11  H   UNL     1       5.253   2.325  16.667  0.00  0.00    +0.000 HD
BRANCH   9  12
ATOM     12  C   UNL     1       3.332   3.380  17.897  0.00  0.00    +0.000 A 
ATOM     13  C   UNL     1       2.725   2.149  17.729  0.00  0.00    +0.000 A 
ATOM     14  C   UNL     1       1.897   1.948  18.859  0.00  0.00    +0.000 A 
ATOM     15  C   UNL     1       2.039   3.066  19.651  0.00  0.00    +0.000 A 
ATOM     16 CL   UNL     1       1.249   3.367  21.147  0.00  0.00    +0.000 Cl
ATOM     17  O   UNL     1       2.914   3.938  19.076  0.00  0.00    +0.000 OA
ENDBRANCH   9  12
ENDBRANCH   1   8
BRANCH   1  18
ATOM     18  C   UNL     1       5.727   4.417  14.311  0.00  0.00    +0.000 C 
BRANCH  18  20
ATOM     19  C   UNL     1       5.292   3.257  12.103  0.00  0.00    +0.000 C 
ATOM     20  C   UNL     1       6.350   3.737  13.086  0.00  0.00    +0.000 C 
ENDBRANCH  18  20
ENDBRANCH   1  18
TORSDOF 5
ENDMDL
MODEL 4
REMARK VINA RESULT:      -6.9      2.332      3.537
REMARK  Name = 
REMARK  6 active torsions:
REMARK  status: ('A' for Active; 'I' for Inactive)
REMARK    1  A    between atoms: C_1  and  C_2
REMARK    2  A    between atoms: C_2  and  C_3
REMARK    3  A    between atoms: C_3  and  C_4
REMARK    4  A    between atoms: C_4  and  N_5
REMARK    5  A    between atoms: C_4  and  C_14
REMARK    6  A    between atoms: C_6  and  C_8
REMARK                            x       y       z     vdW  Elec       q    Type
REMARK                         _______ _______ _______ _____ _____    ______ ____
ROOT
ATOM      1  C   UNL     1       6.268   5.778  17.089  0.00  0.00    +0.000 C 
ENDROOT
BRANCH   1   2
ATOM      2  C   UNL     1       6.417   5.106  15.767  0.00  0.00    +0.000 A 
ATOM      3  N   UNL     1       5.761   4.068  15.285  0.00  0.00    +0.000 NA
ATOM      4  N   UNL     1       6.256   3.859  14.020  0.00  0.00    +0.000 NA
ATOM      5  N   UNL     1       7.200   4.741  13.726  0.00  0.00    +0.000 NA
ATOM      6  N   UNL     1       7.297   5.522  14.808  0.00  0.00    +0.000 N 
ATOM      7  H   UNL     1       7.971   6.278  14.822  0.00  0.00    +0.000 HD
ENDBRANCH   1   2
BRANCH   1   8
ATOM      8  N   UNL     1       5.101   5.216  17.741  0.00  0.00    +0.000 N 
ATOM      9  C   UNL     1       3.989   5.974  18.031  0.00  0.00    +0.000 C 
ATOM     10  O   UNL     1       3.911   7.155  17.695  0.00  0.00    +0.000 OA
ATOM     11  H   UNL     1       5.117   4.245  18.043  0.00  0.00    +0.000 HD
BRANCH   9  12
ATOM     12  C   UNL     1       2.939   5.284  18.749  0.00  0.00    +0.000 A 
ATOM     13  C   UNL     1       2.338   5.573  19.961  0.00  0.00    +0.000 A 
ATOM     14  C   UNL     1       1.383   4.555  20.192  0.00  0.00    +0.000 A 
ATOM     15  C   UNL     1       1.456   3.699  19.115  0.00  0.00    +0.000 A 
ATOM     16 CL   UNL     1       0.526   2.274  18.876  0.00  0.00    +0.000 Cl
ATOM     17  O   UNL     1       2.394   4.140  18.231  0.00  0.00    +0.000 OA
ENDBRANCH   9  12
ENDBRANCH   1   8
BRANCH   1  18
ATOM     18  C   UNL     1       7.522   5.625  17.972  0.00  0.00    +0.000 C 
BRANCH  18  20
ATOM     19  C   UNL     1       7.742   8.120  17.599  0.00  0.00    +0.000 C 
ATOM     20  C   UNL     1       8.029   6.958  18.539  0.00  0.00    +0.000 C 
ENDBRANCH  18  20
ENDBRANCH   1  18
TORSDOF 5
ENDMDL
MODEL 5
REMARK VINA RESULT:      -6.9      0.994      1.311
REMARK  Name = 
REMARK  6 active torsions:
REMARK  status: ('A' for Active; 'I' for Inactive)
REMARK    1  A    between atoms: C_1  and  C_2
REMARK    2  A    between atoms: C_2  and  C_3
REMARK    3  A    between atoms: C_3  and  C_4
REMARK    4  A    between atoms: C_4  and  N_5
REMARK    5  A    between atoms: C_4  and  C_14
REMARK    6  A    between atoms: C_6  and  C_8
REMARK                            x       y       z     vdW  Elec       q    Type
REMARK                         _______ _______ _______ _____ _____    ______ ____
ROOT
ATOM      1  C   UNL     1       5.621   4.362  16.049  0.00  0.00    +0.000 C 
ENDROOT
BRANCH   1   2
ATOM      2  C   UNL     1       6.349   5.597  16.455  0.00  0.00    +0.000 A 
ATOM      3  N   UNL     1       7.604   5.733  16.835  0.00  0.00    +0.000 NA
ATOM      4  N   UNL     1       7.786   7.074  17.076  0.00  0.00    +0.000 NA
ATOM      5  N   UNL     1       6.670   7.753  16.856  0.00  0.00    +0.000 NA
ATOM      6  N   UNL     1       5.776   6.838  16.463  0.00  0.00    +0.000 N 
ATOM      7  H   UNL     1       4.830   7.124  16.241  0.00  0.00    +0.000 HD
ENDBRANCH   1   2
BRANCH   1   8
ATOM      8  N   UNL     1       4.438   4.252  16.882  0.00  0.00    +0.000 N 
ATOM      9  C   UNL     1       4.509   3.894  18.209  0.00  0.00    +0.000 C 
ATOM     10  O   UNL     1       5.589   3.708  18.768  0.00  0.00    +0.000 OA
ATOM     11  H   UNL     1       3.520   4.392  16.466  0.00  0.00    +0.000 HD
BRANCH   9  12
ATOM     12  C   UNL     1       3.235   3.757  18.882  0.00  0.00    +0.000 A 
ATOM     13  C   UNL     1       1.975   4.199  18.523  0.00  0.00    +0.000 A 
ATOM     14  C   UNL     1       1.095   3.802  19.557  0.00  0.00    +0.000 A 
ATOM     15  C   UNL     1       1.864   3.144  20.492  0.00  0.00    +0.000 A 
ATOM     16 CL   UNL     1       1.314   2.458  21.968  0.00  0.00    +0.000 Cl
ATOM     17  O   UNL     1       3.164   3.107  20.086  0.00  0.00    +0.000 OA
ENDBRANCH   9  12
ENDBRANCH   1   8
BRANCH   1  18
ATOM     18  C   UNL     1       5.245   4.364  14.554  0.00  0.00    +0.000 C 
BRANCH  18  20
ATOM     19  C   UNL     1       5.866   3.343  12.321  0.00  0.00    +0.000 C 
ATOM     20  C   UNL     1       6.385   3.889  13.643  0.00  0.00    +0.000 C 
ENDBRANCH  18  20
ENDBRANCH   1  18
TORSDOF 5
ENDMDL
MODEL 6
REMARK VINA RESULT:      -6.9      0.578      1.021
REMARK  Name = 
REMARK  6 active torsions:
REMARK  status: ('A' for Active; 'I' for Inactive)
REMARK    1  A    between atoms: C_1  and  C_2
REMARK    2  A    between atoms: C_2  and  C_3
REMARK    3  A    between atoms: C_3  and  C_4
REMARK    4  A    between atoms: C_4  and  N_5
REMARK    5  A    between atoms: C_4  and  C_14
REMARK    6  A    between atoms: C_6  and  C_8
REMARK                            x       y       z     vdW  Elec       q    Type
REMARK                         _______ _______ _______ _____ _____    ______ ____
ROOT
ATOM      1  C   UNL     1       6.874   4.803  16.686  0.00  0.00    +0.000 C 
ENDROOT
BRANCH   1   2
ATOM      2  C   UNL     1       7.322   6.095  17.277  0.00  0.00    +0.000 A 
ATOM      3  N   UNL     1       7.990   6.310  18.393  0.00  0.00    +0.000 NA
ATOM      4  N   UNL     1       8.173   7.670  18.473  0.00  0.00    +0.000 NA
ATOM      5  N   UNL     1       7.627   8.284  17.434  0.00  0.00    +0.000 NA
ATOM      6  N   UNL     1       7.103   7.308  16.685  0.00  0.00    +0.000 N 
ATOM      7  H   UNL     1       6.617   7.539  15.828  0.00  0.00    +0.000 HD
ENDBRANCH   1   2
BRANCH   1   8
ATOM      8  N   UNL     1       5.467   4.637  16.998  0.00  0.00    +0.000 N 
ATOM      9  C   UNL     1       5.041   4.091  18.187  0.00  0.00    +0.000 C 
ATOM     10  O   UNL     1       5.837   3.771  19.069  0.00  0.00    +0.000 OA
ATOM     11  H   UNL     1       4.769   4.883  16.300  0.00  0.00    +0.000 HD
BRANCH   9  12
ATOM     12  C   UNL     1       3.609   3.926  18.315  0.00  0.00    +0.000 A 
ATOM     13  C   UNL     1       2.654   3.590  17.373  0.00  0.00    +0.000 A 
ATOM     14  C   UNL     1       1.407   3.587  18.042  0.00  0.00    +0.000 A 
ATOM     15  C   UNL     1       1.667   3.924  19.352  0.00  0.00    +0.000 A 
ATOM     16 CL   UNL     1       0.513   4.085  20.615  0.00  0.00    +0.000 Cl
ATOM     17  O   UNL     1       3.003   4.126  19.527  0.00  0.00    +0.000 OA
ENDBRANCH   9  12
ENDBRANCH   1   8
BRANCH   1  18
ATOM     18  C   UNL     1       7.114   4.736  15.165  0.00  0.00    +0.000 C 
BRANCH  18  20
ATOM     19  C   UNL     1       6.359   3.800  12.936  0.00  0.00    +0.000 C 
ATOM     20  C   UNL     1       6.041   3.931  14.418  0.00  0.00    +0.000 C 
ENDBRANCH  18  20
ENDBRANCH   1  18
TORSDOF 5
ENDMDL
MODEL 7
REMARK VINA RESULT:      -6.9      3.634      4.585
REMARK  Name = 
REMARK  6 active torsions:
REMARK  status: ('A' for Active; 'I' for Inactive)
REMARK    1  A    between atoms: C_1  and  C_2
REMARK    2  A    between atoms: C_2  and  C_3
REMARK    3  A    between atoms: C_3  and  C_4
REMARK    4  A    between atoms: C_4  and  N_5
REMARK    5  A    between atoms: C_4  and  C_14
REMARK    6  A    between atoms: C_6  and  C_8
REMARK                            x       y       z     vdW  Elec       q    Type
REMARK                         _______ _______ _______ _____ _____    ______ ____
ROOT
ATOM      1  C   UNL     1       4.164   4.314  18.081  0.00  0.00    +0.000 C 
ENDROOT
BRANCH   1   2
ATOM      2  C   UNL     1       5.612   4.401  17.741  0.00  0.00    +0.000 A 
ATOM      3  N   UNL     1       6.179   4.575  16.563  0.00  0.00    +0.000 NA
ATOM      4  N   UNL     1       7.534   4.608  16.794  0.00  0.00    +0.000 NA
ATOM      5  N   UNL     1       7.801   4.454  18.082  0.00  0.00    +0.000 NA
ATOM      6  N   UNL     1       6.608   4.332  18.675  0.00  0.00    +0.000 N 
ATOM      7  H   UNL     1       6.557   4.194  19.676  0.00  0.00    +0.000 HD
ENDBRANCH   1   2
BRANCH   1   8
ATOM      8  N   UNL     1       3.614   5.656  18.024  0.00  0.00    +0.000 N 
ATOM      9  C   UNL     1       2.908   6.203  19.070  0.00  0.00    +0.000 C 
ATOM     10  O   UNL     1       2.760   5.598  20.131  0.00  0.00    +0.000 OA
ATOM     11  H   UNL     1       3.706   6.196  17.166  0.00  0.00    +0.000 HD
BRANCH   9  12
ATOM     12  C   UNL     1       2.364   7.521  18.828  0.00  0.00    +0.000 A 
ATOM     13  C   UNL     1       2.436   8.334  17.711  0.00  0.00    +0.000 A 
ATOM     14  C   UNL     1       1.739   9.523  18.028  0.00  0.00    +0.000 A 
ATOM     15  C   UNL     1       1.283   9.375  19.320  0.00  0.00    +0.000 A 
ATOM     16 CL   UNL     1       0.382  10.525  20.225  0.00  0.00    +0.000 Cl
ATOM     17  O   UNL     1       1.653   8.159  19.810  0.00  0.00    +0.000 OA
ENDBRANCH   9  12
ENDBRANCH   1   8
BRANCH   1  18
ATOM     18  C   UNL     1       3.395   3.362  17.145  0.00  0.00    +0.000 C 
BRANCH  18  20
ATOM     19  C   UNL     1       1.341   2.773  18.505  0.00  0.00    +0.000 C 
ATOM     20  C   UNL     1       2.637   2.258  17.895  0.00  0.00    +0.000 C 
ENDBRANCH  18  20
ENDBRANCH   1  18
TORSDOF 5
ENDMDL
MODEL 8
REMARK VINA RESULT:      -6.8      1.174      1.557
REMARK  Name = 
REMARK  6 active torsions:
REMARK  status: ('A' for Active; 'I' for Inactive)
REMARK    1  A    between atoms: C_1  and  C_2
REMARK    2  A    between atoms: C_2  and  C_3
REMARK    3  A    between atoms: C_3  and  C_4
REMARK    4  A    between atoms: C_4  and  N_5
REMARK    5  A    between atoms: C_4  and  C_14
REMARK    6  A    between atoms: C_6  and  C_8
REMARK                            x       y       z     vdW  Elec       q    Type
REMARK                         _______ _______ _______ _____ _____    ______ ____
ROOT
ATOM      1  C   UNL     1       6.969   4.954  17.373  0.00  0.00    +0.000 C 
ENDROOT
BRANCH   1   2
ATOM      2  C   UNL     1       7.430   6.343  17.650  0.00  0.00    +0.000 A 
ATOM      3  N   UNL     1       8.136   6.796  18.668  0.00  0.00    +0.000 NA
ATOM      4  N   UNL     1       8.314   8.140  18.440  0.00  0.00    +0.000 NA
ATOM      5  N   UNL     1       7.729   8.513  17.312  0.00  0.00    +0.000 NA
ATOM      6  N   UNL     1       7.184   7.397  16.815  0.00  0.00    +0.000 N 
ATOM      7  H   UNL     1       6.667   7.435  15.945  0.00  0.00    +0.000 HD
ENDBRANCH   1   2
BRANCH   1   8
ATOM      8  N   UNL     1       5.581   4.858  17.784  0.00  0.00    +0.000 N 
ATOM      9  C   UNL     1       5.220   4.575  19.082  0.00  0.00    +0.000 C 
ATOM     10  O   UNL     1       6.062   4.449  19.969  0.00  0.00    +0.000 OA
ATOM     11  H   UNL     1       4.846   4.951  17.086  0.00  0.00    +0.000 HD
BRANCH   9  12
ATOM     12  C   UNL     1       3.798   4.442  19.314  0.00  0.00    +0.000 A 
ATOM     13  C   UNL     1       2.925   5.237  20.033  0.00  0.00    +0.000 A 
ATOM     14  C   UNL     1       1.651   4.629  19.940  0.00  0.00    +0.000 A 
ATOM     15  C   UNL     1       1.815   3.495  19.174  0.00  0.00    +0.000 A 
ATOM     16 CL   UNL     1       0.595   2.363  18.749  0.00  0.00    +0.000 Cl
ATOM     17  O   UNL     1       3.115   3.378  18.785  0.00  0.00    +0.000 OA
ENDBRANCH   9  12
ENDBRANCH   1   8
BRANCH   1  18
ATOM     18  C   UNL     1       7.134   4.562  15.891  0.00  0.00    +0.000 C 
BRANCH  18  20
ATOM     19  C   UNL     1       5.828   3.986  13.799  0.00  0.00    +0.000 C 
ATOM     20  C   UNL     1       5.904   3.850  15.313  0.00  0.00    +0.000 C 
ENDBRANCH  18  20
ENDBRANCH   1  18
TORSDOF 5
ENDMDL
MODEL 9
REMARK VINA RESULT:      -6.8      3.645      4.750
REMARK  Name = 
REMARK  6 active torsions:
REMARK  status: ('A' for Active; 'I' for Inactive)
REMARK    1  A    between atoms: C_1  and  C_2
REMARK    2  A    between atoms: C_2  and  C_3
REMARK    3  A    between atoms: C_3  and  C_4
REMARK    4  A    between atoms: C_4  and  N_5
REMARK    5  A    between atoms: C_4  and  C_14
REMARK    6  A    between atoms: C_6  and  C_8
REMARK                            x       y       z     vdW  Elec       q    Type
REMARK                         _______ _______ _______ _____ _____    ______ ____
ROOT
ATOM      1  C   UNL     1       4.348   4.359  19.090  0.00  0.00    +0.000 C 
ENDROOT
BRANCH   1   2
ATOM      2  C   UNL     1       5.809   4.615  18.960  0.00  0.00    +0.000 A 
ATOM      3  N   UNL     1       6.603   5.311  19.750  0.00  0.00    +0.000 NA
ATOM      4  N   UNL     1       7.861   5.220  19.203  0.00  0.00    +0.000 NA
ATOM      5  N   UNL     1       7.847   4.491  18.097  0.00  0.00    +0.000 NA
ATOM      6  N   UNL     1       6.574   4.107  17.947  0.00  0.00    +0.000 N 
ATOM      7  H   UNL     1       6.312   3.537  17.153  0.00  0.00    +0.000 HD
ENDBRANCH   1   2
BRANCH   1   8
ATOM      8  N   UNL     1       3.685   5.641  19.238  0.00  0.00    +0.000 N 
ATOM      9  C   UNL     1       2.629   5.823  20.102  0.00  0.00    +0.000 C 
ATOM     10  O   UNL     1       2.236   4.918  20.836  0.00  0.00    +0.000 OA
ATOM     11  H   UNL     1       3.970   6.421  18.650  0.00  0.00    +0.000 HD
BRANCH   9  12
ATOM     12  C   UNL     1       2.031   7.141  20.079  0.00  0.00    +0.000 A 
ATOM     13  C   UNL     1       1.286   7.808  21.034  0.00  0.00    +0.000 A 
ATOM     14  C   UNL     1       0.942   9.062  20.477  0.00  0.00    +0.000 A 
ATOM     15  C   UNL     1       1.490   9.092  19.214  0.00  0.00    +0.000 A 
ATOM     16 CL   UNL     1       1.373  10.376  18.078  0.00  0.00    +0.000 Cl
ATOM     17  O   UNL     1       2.159   7.931  18.967  0.00  0.00    +0.000 OA
ENDBRANCH   9  12
ENDBRANCH   1   8
BRANCH   1  18
ATOM     18  C   UNL     1       3.777   3.577  17.890  0.00  0.00    +0.000 C 
BRANCH  18  20
ATOM     19  C   UNL     1       1.643   2.348  18.478  0.00  0.00    +0.000 C 
ATOM     20  C   UNL     1       3.148   2.235  18.287  0.00  0.00    +0.000 C 
ENDBRANCH  18  20
ENDBRANCH   1  18
TORSDOF 5
ENDMDL
