MODEL 1
REMARK VINA RESULT:      -7.4      0.000      0.000
REMARK  Name = 
REMARK  5 active torsions:
REMARK  status: ('A' for Active; 'I' for Inactive)
REMARK    1  A    between atoms: C_2  and  O_3
REMARK    2  A    between atoms: C_2  and  C_4
REMARK    3  A    between atoms: C_4  and  O_5
REMARK    4  A    between atoms: O_5  and  C_6
REMARK    5  A    between atoms: C_10  and  C_11
REMARK                            x       y       z     vdW  Elec       q    Type
REMARK                         _______ _______ _______ _____ _____    ______ ____
ROOT
ATOM      1  C   UNL     1       4.342   4.519  17.871  0.00  0.00    +0.000 A 
ATOM      2  C   UNL     1       3.976   5.802  17.415  0.00  0.00    +0.000 A 
ATOM      3  C   UNL     1       3.131   6.656  18.173  0.00  0.00    +0.000 A 
ATOM      4  C   UNL     1       2.668   7.995  17.912  0.00  0.00    +0.000 A 
ATOM      5  C   UNL     1       1.856   8.500  18.909  0.00  0.00    +0.000 A 
ATOM      6  S   UNL     1       1.617   7.344  20.139  0.00  0.00    +0.000 S 
ATOM      7  C   UNL     1       2.646   6.177  19.393  0.00  0.00    +0.000 A 
ATOM      8  C   UNL     1       3.011   4.900  19.879  0.00  0.00    +0.000 A 
ATOM      9 CL   UNL     1       2.361   4.365  21.404  0.00  0.00    +0.000 Cl
ATOM     10  C   UNL     1       3.899   4.095  19.131  0.00  0.00    +0.000 A 
ATOM     11 CL   UNL     1       4.488   2.635  19.875  0.00  0.00    +0.000 Cl
ENDROOT
BRANCH   5  12
ATOM     12  C   UNL     1       1.202   9.849  19.046  0.00  0.00    +0.000 C 
ATOM     13  C   UNL     1      -0.073   9.994  18.220  0.00  0.00    +0.000 C 
ATOM     14  C   UNL     1      -0.757  11.213  18.824  0.00  0.00    +0.000 C 
ATOM     15  C   UNL     1      -0.341  11.240  20.294  0.00  0.00    +0.000 C 
ATOM     16  C   UNL     1       0.738  10.172  20.464  0.00  0.00    +0.000 C 
ENDBRANCH   5  12
BRANCH   1  17
ATOM     17  O   UNL     1       5.164   3.856  16.986  0.00  0.00    +0.000 OA
BRANCH  17  18
ATOM     18  C   UNL     1       5.602   4.569  15.824  0.00  0.00    +0.000 C 
BRANCH  18  20
ATOM     19  O   UNL     1       7.845   4.383  16.727  0.00  0.00    +0.000 OA
ATOM     20  C   UNL     1       7.114   4.732  15.810  0.00  0.00    +0.000 C 
BRANCH  20  21
ATOM     21  O   UNL     1       7.584   5.318  14.685  0.00  0.00    +0.000 OA
ATOM     22  H   UNL     1       6.845   5.733  14.195  0.00  0.00    +0.000 HD
ENDBRANCH  20  21
ENDBRANCH  18  20
ENDBRANCH  17  18
ENDBRANCH   1  17
TORSDOF 5
ENDMDL
MODEL 2
REMARK VINA RESULT:      -7.1      1.428      1.688
REMARK  Name = 
REMARK  5 active torsions:
REMARK  status: ('A' for Active; 'I' for Inactive)
REMARK    1  A    between atoms: C_2  and  O_3
REMARK    2  A    between atoms: C_2  and  C_4
REMARK    3  A    between atoms: C_4  and  O_5
REMARK    4  A    between atoms: O_5  and  C_6
REMARK    5  A    between atoms: C_10  and  C_11
REMARK                            x       y       z     vdW  Elec       q    Type
REMARK                         _______ _______ _______ _____ _____    ______ ____
ROOT
ATOM      1  C   UNL     1       3.833   4.246  17.221  0.00  0.00    +0.000 A 
ATOM      2  C   UNL     1       3.649   5.626  17.441  0.00  0.00    +0.000 A 
ATOM      3  C   UNL     1       2.898   6.118  18.541  0.00  0.00    +0.000 A 
ATOM      4  C   UNL     1       2.619   7.467  18.963  0.00  0.00    +0.000 A 
ATOM      5  C   UNL     1       1.847   7.538  20.106  0.00  0.00    +0.000 A 
ATOM      6  S   UNL     1       1.422   5.978  20.647  0.00  0.00    +0.000 S 
ATOM      7  C   UNL     1       2.317   5.184  19.403  0.00  0.00    +0.000 A 
ATOM      8  C   UNL     1       2.498   3.795  19.212  0.00  0.00    +0.000 A 
ATOM      9 CL   UNL     1       1.738   2.689  20.321  0.00  0.00    +0.000 Cl
ATOM     10  C   UNL     1       3.299   3.335  18.142  0.00  0.00    +0.000 A 
ATOM     11 CL   UNL     1       3.672   1.636  18.084  0.00  0.00    +0.000 Cl
ENDROOT
BRANCH   5  12
ATOM     12  C   UNL     1       1.367   8.731  20.889  0.00  0.00    +0.000 C 
ATOM     13  C   UNL     1       0.816   9.853  20.013  0.00  0.00    +0.000 C 
ATOM     14  C   UNL     1       0.033  10.720  20.988  0.00  0.00    +0.000 C 
ATOM     15  C   UNL     1      -0.469   9.775  22.079  0.00  0.00    +0.000 C 
ATOM     16  C   UNL     1       0.208   8.427  21.835  0.00  0.00    +0.000 C 
ENDBRANCH   5  12
BRANCH   1  17
ATOM     17  O   UNL     1       4.590   3.983  16.100  0.00  0.00    +0.000 OA
BRANCH  17  18
ATOM     18  C   UNL     1       6.015   4.064  16.228  0.00  0.00    +0.000 C 
BRANCH  18  20
ATOM     19  O   UNL     1       7.391   5.341  14.693  0.00  0.00    +0.000 OA
ATOM     20  C   UNL     1       6.675   4.370  14.892  0.00  0.00    +0.000 C 
BRANCH  20  21
ATOM     21  O   UNL     1       6.385   3.467  13.927  0.00  0.00    +0.000 OA
ATOM     22  H   UNL     1       6.039   2.646  14.335  0.00  0.00    +0.000 HD
ENDBRANCH  20  21
ENDBRANCH  18  20
ENDBRANCH  17  18
ENDBRANCH   1  17
TORSDOF 5
ENDMDL
MODEL 3
REMARK VINA RESULT:      -7.0      3.509      7.193
REMARK  Name = 
REMARK  5 active torsions:
REMARK  status: ('A' for Active; 'I' for Inactive)
REMARK    1  A    between atoms: C_2  and  O_3
REMARK    2  A    between atoms: C_2  and  C_4
REMARK    3  A    between atoms: C_4  and  O_5
REMARK    4  A    between atoms: O_5  and  C_6
REMARK    5  A    between atoms: C_10  and  C_11
REMARK                            x       y       z     vdW  Elec       q    Type
REMARK                         _______ _______ _______ _____ _____    ______ ____
ROOT
ATOM      1  C   UNL     1       2.751   6.841  18.864  0.00  0.00    +0.000 A 
ATOM      2  C   UNL     1       3.505   7.014  17.686  0.00  0.00    +0.000 A 
ATOM      3  C   UNL     1       4.230   5.945  17.094  0.00  0.00    +0.000 A 
ATOM      4  C   UNL     1       5.025   5.898  15.893  0.00  0.00    +0.000 A 
ATOM      5  C   UNL     1       5.572   4.654  15.644  0.00  0.00    +0.000 A 
ATOM      6  S   UNL     1       5.163   3.555  16.881  0.00  0.00    +0.000 S 
ATOM      7  C   UNL     1       4.196   4.702  17.732  0.00  0.00    +0.000 A 
ATOM      8  C   UNL     1       3.436   4.500  18.907  0.00  0.00    +0.000 A 
ATOM      9 CL   UNL     1       3.446   2.927  19.654  0.00  0.00    +0.000 Cl
ATOM     10  C   UNL     1       2.677   5.566  19.441  0.00  0.00    +0.000 A 
ATOM     11 CL   UNL     1       1.590   5.207  20.753  0.00  0.00    +0.000 Cl
ENDROOT
BRANCH   5  12
ATOM     12  C   UNL     1       6.420   4.172  14.499  0.00  0.00    +0.000 C 
ATOM     13  C   UNL     1       5.610   3.734  13.282  0.00  0.00    +0.000 C 
ATOM     14  C   UNL     1       6.635   3.704  12.157  0.00  0.00    +0.000 C 
ATOM     15  C   UNL     1       7.677   4.764  12.512  0.00  0.00    +0.000 C 
ATOM     16  C   UNL     1       7.356   5.236  13.929  0.00  0.00    +0.000 C 
ENDBRANCH   5  12
BRANCH   1  17
ATOM     17  O   UNL     1       2.126   8.000  19.270  0.00  0.00    +0.000 OA
BRANCH  17  18
ATOM     18  C   UNL     1       1.804   8.968  18.264  0.00  0.00    +0.000 C 
BRANCH  18  20
ATOM     19  O   UNL     1       0.758  10.377  19.939  0.00  0.00    +0.000 OA
ATOM     20  C   UNL     1       0.802   9.990  18.779  0.00  0.00    +0.000 C 
BRANCH  20  21
ATOM     21  O   UNL     1      -0.058  10.428  17.831  0.00  0.00    +0.000 OA
ATOM     22  H   UNL     1      -0.946  10.047  17.987  0.00  0.00    +0.000 HD
ENDBRANCH  20  21
ENDBRANCH  18  20
ENDBRANCH  17  18
ENDBRANCH   1  17
TORSDOF 5
ENDMDL
MODEL 4
REMARK VINA RESULT:      -7.0      0.631      1.031
REMARK  Name = 
REMARK  5 active torsions:
REMARK  status: ('A' for Active; 'I' for Inactive)
REMARK    1  A    between atoms: C_2  and  O_3
REMARK    2  A    between atoms: C_2  and  C_4
REMARK    3  A    between atoms: C_4  and  O_5
REMARK    4  A    between atoms: O_5  and  C_6
REMARK    5  A    between atoms: C_10  and  C_11
REMARK                            x       y       z     vdW  Elec       q    Type
REMARK                         _______ _______ _______ _____ _____    ______ ____
ROOT
ATOM      1  C   UNL     1       4.401   4.554  17.955  0.00  0.00    +0.000 A 
ATOM      2  C   UNL     1       3.990   5.821  17.496  0.00  0.00    +0.000 A 
ATOM      3  C   UNL     1       3.113   6.645  18.251  0.00  0.00    +0.000 A 
ATOM      4  C   UNL     1       2.603   7.966  17.987  0.00  0.00    +0.000 A 
ATOM      5  C   UNL     1       1.770   8.443  18.981  0.00  0.00    +0.000 A 
ATOM      6  S   UNL     1       1.569   7.281  20.212  0.00  0.00    +0.000 S 
ATOM      7  C   UNL     1       2.642   6.151  19.470  0.00  0.00    +0.000 A 
ATOM      8  C   UNL     1       3.051   4.888  19.959  0.00  0.00    +0.000 A 
ATOM      9 CL   UNL     1       2.417   4.332  21.482  0.00  0.00    +0.000 Cl
ATOM     10  C   UNL     1       3.970   4.114  19.213  0.00  0.00    +0.000 A 
ATOM     11 CL   UNL     1       4.609   2.677  19.960  0.00  0.00    +0.000 Cl
ENDROOT
BRANCH   5  12
ATOM     12  C   UNL     1       1.068   9.767  19.115  0.00  0.00    +0.000 C 
ATOM     13  C   UNL     1       0.969  10.262  20.555  0.00  0.00    +0.000 C 
ATOM     14  C   UNL     1       0.631  11.739  20.407  0.00  0.00    +0.000 C 
ATOM     15  C   UNL     1       1.265  12.183  19.089  0.00  0.00    +0.000 C 
ATOM     16  C   UNL     1       1.770  10.918  18.398  0.00  0.00    +0.000 C 
ENDBRANCH   5  12
BRANCH   1  17
ATOM     17  O   UNL     1       5.249   3.919  17.073  0.00  0.00    +0.000 OA
BRANCH  17  18
ATOM     18  C   UNL     1       5.651   4.640  15.902  0.00  0.00    +0.000 C 
BRANCH  18  20
ATOM     19  O   UNL     1       7.919   4.470  16.746  0.00  0.00    +0.000 OA
ATOM     20  C   UNL     1       7.162   4.805  15.845  0.00  0.00    +0.000 C 
BRANCH  20  21
ATOM     21  O   UNL     1       7.600   5.375  14.699  0.00  0.00    +0.000 OA
ATOM     22  H   UNL     1       8.575   5.297  14.642  0.00  0.00    +0.000 HD
ENDBRANCH  20  21
ENDBRANCH  18  20
ENDBRANCH  17  18
ENDBRANCH   1  17
TORSDOF 5
ENDMDL
MODEL 5
REMARK VINA RESULT:      -7.0      1.169      1.548
REMARK  Name = 
REMARK  5 active torsions:
REMARK  status: ('A' for Active; 'I' for Inactive)
REMARK    1  A    between atoms: C_2  and  O_3
REMARK    2  A    between atoms: C_2  and  C_4
REMARK    3  A    between atoms: C_4  and  O_5
REMARK    4  A    between atoms: O_5  and  C_6
REMARK    5  A    between atoms: C_10  and  C_11
REMARK                            x       y       z     vdW  Elec       q    Type
REMARK                         _______ _______ _______ _____ _____    ______ ____
ROOT
ATOM      1  C   UNL     1       4.441   5.458  17.681  0.00  0.00    +0.000 A 
ATOM      2  C   UNL     1       3.968   6.741  17.344  0.00  0.00    +0.000 A 
ATOM      3  C   UNL     1       3.021   7.429  18.149  0.00  0.00    +0.000 A 
ATOM      4  C   UNL     1       2.439   8.739  18.007  0.00  0.00    +0.000 A 
ATOM      5  C   UNL     1       1.550   9.058  19.015  0.00  0.00    +0.000 A 
ATOM      6  S   UNL     1       1.384   7.761  20.109  0.00  0.00    +0.000 S 
ATOM      7  C   UNL     1       2.545   6.781  19.292  0.00  0.00    +0.000 A 
ATOM      8  C   UNL     1       3.016   5.498  19.659  0.00  0.00    +0.000 A 
ATOM      9 CL   UNL     1       2.372   4.747  21.092  0.00  0.00    +0.000 Cl
ATOM     10  C   UNL     1       4.001   4.863  18.871  0.00  0.00    +0.000 A 
ATOM     11 CL   UNL     1       4.704   3.393  19.485  0.00  0.00    +0.000 Cl
ENDROOT
BRANCH   5  12
ATOM     12  C   UNL     1       0.765  10.318  19.262  0.00  0.00    +0.000 C 
ATOM     13  C   UNL     1       1.451  11.576  18.738  0.00  0.00    +0.000 C 
ATOM     14  C   UNL     1       0.335  12.611  18.710  0.00  0.00    +0.000 C 
ATOM     15  C   UNL     1      -0.954  11.829  18.463  0.00  0.00    +0.000 C 
ATOM     16  C   UNL     1      -0.595  10.347  18.567  0.00  0.00    +0.000 C 
ENDBRANCH   5  12
BRANCH   1  17
ATOM     17  O   UNL     1       5.352   4.971  16.768  0.00  0.00    +0.000 OA
BRANCH  17  18
ATOM     18  C   UNL     1       6.624   5.624  16.686  0.00  0.00    +0.000 C 
BRANCH  18  20
ATOM     19  O   UNL     1       7.690   5.866  18.851  0.00  0.00    +0.000 OA
ATOM     20  C   UNL     1       7.536   5.209  17.830  0.00  0.00    +0.000 C 
BRANCH  20  21
ATOM     21  O   UNL     1       8.181   4.040  17.611  0.00  0.00    +0.000 OA
ATOM     22  H   UNL     1       7.648   3.297  17.962  0.00  0.00    +0.000 HD
ENDBRANCH  20  21
ENDBRANCH  18  20
ENDBRANCH  17  18
ENDBRANCH   1  17
TORSDOF 5
ENDMDL
MODEL 6
REMARK VINA RESULT:      -6.9      1.173      1.376
REMARK  Name = 
REMARK  5 active torsions:
REMARK  status: ('A' for Active; 'I' for Inactive)
REMARK    1  A    between atoms: C_2  and  O_3
REMARK    2  A    between atoms: C_2  and  C_4
REMARK    3  A    between atoms: C_4  and  O_5
REMARK    4  A    between atoms: O_5  and  C_6
REMARK    5  A    between atoms: C_10  and  C_11
REMARK                            x       y       z     vdW  Elec       q    Type
REMARK                         _______ _______ _______ _____ _____    ______ ____
ROOT
ATOM      1  C   UNL     1       4.336   5.620  17.724  0.00  0.00    +0.000 A 
ATOM      2  C   UNL     1       3.882   6.912  17.390  0.00  0.00    +0.000 A 
ATOM      3  C   UNL     1       2.925   7.600  18.183  0.00  0.00    +0.000 A 
ATOM      4  C   UNL     1       2.360   8.917  18.043  0.00  0.00    +0.000 A 
ATOM      5  C   UNL     1       1.453   9.235  19.036  0.00  0.00    +0.000 A 
ATOM      6  S   UNL     1       1.251   7.928  20.112  0.00  0.00    +0.000 S 
ATOM      7  C   UNL     1       2.419   6.945  19.309  0.00  0.00    +0.000 A 
ATOM      8  C   UNL     1       2.869   5.654  19.672  0.00  0.00    +0.000 A 
ATOM      9 CL   UNL     1       2.188   4.894  21.083  0.00  0.00    +0.000 Cl
ATOM     10  C   UNL     1       3.865   5.017  18.898  0.00  0.00    +0.000 A 
ATOM     11 CL   UNL     1       4.540   3.534  19.511  0.00  0.00    +0.000 Cl
ENDROOT
BRANCH   5  12
ATOM     12  C   UNL     1       0.674  10.500  19.280  0.00  0.00    +0.000 C 
ATOM     13  C   UNL     1      -0.832  10.333  19.098  0.00  0.00    +0.000 C 
ATOM     14  C   UNL     1      -1.416  11.560  19.785  0.00  0.00    +0.000 C 
ATOM     15  C   UNL     1      -0.435  11.922  20.899  0.00  0.00    +0.000 C 
ATOM     16  C   UNL     1       0.796  11.038  20.703  0.00  0.00    +0.000 C 
ENDBRANCH   5  12
BRANCH   1  17
ATOM     17  O   UNL     1       5.261   5.133  16.825  0.00  0.00    +0.000 OA
BRANCH  17  18
ATOM     18  C   UNL     1       6.578   5.694  16.859  0.00  0.00    +0.000 C 
BRANCH  18  20
ATOM     19  O   UNL     1       7.458   5.290  19.083  0.00  0.00    +0.000 OA
ATOM     20  C   UNL     1       7.450   5.000  17.895  0.00  0.00    +0.000 C 
BRANCH  20  21
ATOM     21  O   UNL     1       8.236   4.029  17.375  0.00  0.00    +0.000 OA
ATOM     22  H   UNL     1       7.678   3.332  16.972  0.00  0.00    +0.000 HD
ENDBRANCH  20  21
ENDBRANCH  18  20
ENDBRANCH  17  18
ENDBRANCH   1  17
TORSDOF 5
ENDMDL
MODEL 7
REMARK VINA RESULT:      -6.9      3.689      7.090
REMARK  Name = 
REMARK  5 active torsions:
REMARK  status: ('A' for Active; 'I' for Inactive)
REMARK    1  A    between atoms: C_2  and  O_3
REMARK    2  A    between atoms: C_2  and  C_4
REMARK    3  A    between atoms: C_4  and  O_5
REMARK    4  A    between atoms: O_5  and  C_6
REMARK    5  A    between atoms: C_10  and  C_11
REMARK                            x       y       z     vdW  Elec       q    Type
REMARK                         _______ _______ _______ _____ _____    ______ ____
ROOT
ATOM      1  C   UNL     1       2.099   5.718  20.169  0.00  0.00    +0.000 A 
ATOM      2  C   UNL     1       2.764   6.401  19.130  0.00  0.00    +0.000 A 
ATOM      3  C   UNL     1       3.513   5.714  18.138  0.00  0.00    +0.000 A 
ATOM      4  C   UNL     1       4.229   6.207  16.990  0.00  0.00    +0.000 A 
ATOM      5  C   UNL     1       4.833   5.210  16.249  0.00  0.00    +0.000 A 
ATOM      6  S   UNL     1       4.572   3.684  16.960  0.00  0.00    +0.000 S 
ATOM      7  C   UNL     1       3.594   4.322  18.231  0.00  0.00    +0.000 A 
ATOM      8  C   UNL     1       2.925   3.613  19.255  0.00  0.00    +0.000 A 
ATOM      9 CL   UNL     1       3.078   1.880  19.315  0.00  0.00    +0.000 Cl
ATOM     10  C   UNL     1       2.139   4.318  20.195  0.00  0.00    +0.000 A 
ATOM     11 CL   UNL     1       1.162   3.385  21.293  0.00  0.00    +0.000 Cl
ENDROOT
BRANCH   5  12
ATOM     12  C   UNL     1       5.634   5.288  14.976  0.00  0.00    +0.000 C 
ATOM     13  C   UNL     1       7.139   5.166  15.195  0.00  0.00    +0.000 C 
ATOM     14  C   UNL     1       7.681   4.850  13.809  0.00  0.00    +0.000 C 
ATOM     15  C   UNL     1       6.568   4.089  13.088  0.00  0.00    +0.000 C 
ATOM     16  C   UNL     1       5.334   4.167  13.985  0.00  0.00    +0.000 C 
ENDBRANCH   5  12
BRANCH   1  17
ATOM     17  O   UNL     1       1.433   6.570  21.023  0.00  0.00    +0.000 OA
BRANCH  17  18
ATOM     18  C   UNL     1       1.503   7.974  20.750  0.00  0.00    +0.000 C 
BRANCH  18  20
ATOM     19  O   UNL     1      -0.162   8.995  22.187  0.00  0.00    +0.000 OA
ATOM     20  C   UNL     1       1.018   8.795  21.935  0.00  0.00    +0.000 C 
BRANCH  20  21
ATOM     21  O   UNL     1       2.022   9.302  22.688  0.00  0.00    +0.000 OA
ATOM     22  H   UNL     1       2.883   8.984  22.348  0.00  0.00    +0.000 HD
ENDBRANCH  20  21
ENDBRANCH  18  20
ENDBRANCH  17  18
ENDBRANCH   1  17
TORSDOF 5
ENDMDL
MODEL 8
REMARK VINA RESULT:      -6.8      0.860      1.164
REMARK  Name = 
REMARK  5 active torsions:
REMARK  status: ('A' for Active; 'I' for Inactive)
REMARK    1  A    between atoms: C_2  and  O_3
REMARK    2  A    between atoms: C_2  and  C_4
REMARK    3  A    between atoms: C_4  and  O_5
REMARK    4  A    between atoms: O_5  and  C_6
REMARK    5  A    between atoms: C_10  and  C_11
REMARK                            x       y       z     vdW  Elec       q    Type
REMARK                         _______ _______ _______ _____ _____    ______ ____
ROOT
ATOM      1  C   UNL     1       4.154   5.514  17.664  0.00  0.00    +0.000 A 
ATOM      2  C   UNL     1       3.680   6.806  17.359  0.00  0.00    +0.000 A 
ATOM      3  C   UNL     1       2.804   7.509  18.229  0.00  0.00    +0.000 A 
ATOM      4  C   UNL     1       2.236   8.829  18.126  0.00  0.00    +0.000 A 
ATOM      5  C   UNL     1       1.426   9.164  19.194  0.00  0.00    +0.000 A 
ATOM      6  S   UNL     1       1.315   7.870  20.298  0.00  0.00    +0.000 S 
ATOM      7  C   UNL     1       2.398   6.870  19.403  0.00  0.00    +0.000 A 
ATOM      8  C   UNL     1       2.871   5.580  19.738  0.00  0.00    +0.000 A 
ATOM      9 CL   UNL     1       2.317   4.839  21.214  0.00  0.00    +0.000 Cl
ATOM     10  C   UNL     1       3.788   4.927  18.883  0.00  0.00    +0.000 A 
ATOM     11 CL   UNL     1       4.507   3.446  19.448  0.00  0.00    +0.000 Cl
ENDROOT
BRANCH   5  12
ATOM     12  C   UNL     1       0.681  10.437  19.494  0.00  0.00    +0.000 C 
ATOM     13  C   UNL     1      -0.831  10.313  19.324  0.00  0.00    +0.000 C 
ATOM     14  C   UNL     1      -1.377  11.527  20.062  0.00  0.00    +0.000 C 
ATOM     15  C   UNL     1      -0.376  11.823  21.178  0.00  0.00    +0.000 C 
ATOM     16  C   UNL     1       0.831  10.919  20.935  0.00  0.00    +0.000 C 
ENDBRANCH   5  12
BRANCH   1  17
ATOM     17  O   UNL     1       4.989   5.011  16.691  0.00  0.00    +0.000 OA
BRANCH  17  18
ATOM     18  C   UNL     1       5.971   5.895  16.136  0.00  0.00    +0.000 C 
BRANCH  18  20
ATOM     19  O   UNL     1       7.702   5.245  14.567  0.00  0.00    +0.000 OA
ATOM     20  C   UNL     1       7.207   5.136  15.681  0.00  0.00    +0.000 C 
BRANCH  20  21
ATOM     21  O   UNL     1       7.710   4.307  16.625  0.00  0.00    +0.000 OA
ATOM     22  H   UNL     1       7.076   3.581  16.799  0.00  0.00    +0.000 HD
ENDBRANCH  20  21
ENDBRANCH  18  20
ENDBRANCH  17  18
ENDBRANCH   1  17
TORSDOF 5
ENDMDL
MODEL 9
REMARK VINA RESULT:      -6.8      1.190      1.552
REMARK  Name = 
REMARK  5 active torsions:
REMARK  status: ('A' for Active; 'I' for Inactive)
REMARK    1  A    between atoms: C_2  and  O_3
REMARK    2  A    between atoms: C_2  and  C_4
REMARK    3  A    between atoms: C_4  and  O_5
REMARK    4  A    between atoms: O_5  and  C_6
REMARK    5  A    between atoms: C_10  and  C_11
REMARK                            x       y       z     vdW  Elec       q    Type
REMARK                         _______ _______ _______ _____ _____    ______ ____
ROOT
ATOM      1  C   UNL     1       4.020   6.015  17.510  0.00  0.00    +0.000 A 
ATOM      2  C   UNL     1       3.494   7.302  17.277  0.00  0.00    +0.000 A 
ATOM      3  C   UNL     1       2.622   7.935  18.203  0.00  0.00    +0.000 A 
ATOM      4  C   UNL     1       2.008   9.238  18.177  0.00  0.00    +0.000 A 
ATOM      5  C   UNL     1       1.220   9.496  19.281  0.00  0.00    +0.000 A 
ATOM      6  S   UNL     1       1.185   8.152  20.328  0.00  0.00    +0.000 S 
ATOM      7  C   UNL     1       2.274   7.230  19.358  0.00  0.00    +0.000 A 
ATOM      8  C   UNL     1       2.799   5.943  19.620  0.00  0.00    +0.000 A 
ATOM      9 CL   UNL     1       2.315   5.119  21.075  0.00  0.00    +0.000 Cl
ATOM     10  C   UNL     1       3.711   5.361  18.710  0.00  0.00    +0.000 A 
ATOM     11 CL   UNL     1       4.495   3.882  19.186  0.00  0.00    +0.000 Cl
ENDROOT
BRANCH   5  12
ATOM     12  C   UNL     1       0.443  10.728  19.660  0.00  0.00    +0.000 C 
ATOM     13  C   UNL     1       0.905  11.988  18.932  0.00  0.00    +0.000 C 
ATOM     14  C   UNL     1      -0.245  12.964  19.135  0.00  0.00    +0.000 C 
ATOM     15  C   UNL     1      -1.506  12.108  19.244  0.00  0.00    +0.000 C 
ATOM     16  C   UNL     1      -1.044  10.654  19.318  0.00  0.00    +0.000 C 
ENDBRANCH   5  12
BRANCH   1  17
ATOM     17  O   UNL     1       4.842   5.585  16.490  0.00  0.00    +0.000 OA
BRANCH  17  18
ATOM     18  C   UNL     1       6.254   5.761  16.657  0.00  0.00    +0.000 C 
BRANCH  18  20
ATOM     19  O   UNL     1       8.098   4.251  17.102  0.00  0.00    +0.000 OA
ATOM     20  C   UNL     1       6.986   4.428  16.625  0.00  0.00    +0.000 C 
BRANCH  20  21
ATOM     21  O   UNL     1       6.294   3.446  16.002  0.00  0.00    +0.000 OA
ATOM     22  H   UNL     1       5.638   3.062  16.620  0.00  0.00    +0.000 HD
ENDBRANCH  20  21
ENDBRANCH  18  20
ENDBRANCH  17  18
ENDBRANCH   1  17
TORSDOF 5
ENDMDL
