MODEL 1
REMARK VINA RESULT:      -7.8      0.000      0.000
REMARK  Name = 
REMARK  6 active torsions:
REMARK  status: ('A' for Active; 'I' for Inactive)
REMARK    1  A    between atoms: C_1  and  C_2
REMARK    2  A    between atoms: C_2  and  O_3
REMARK    3  A    between atoms: O_3  and  C_4
REMARK    4  A    between atoms: C_7  and  C_8
REMARK    5  A    between atoms: N_10  and  C_11
REMARK    6  A    between atoms: N_15  and  C_16
REMARK                            x       y       z     vdW  Elec       q    Type
REMARK                         _______ _______ _______ _____ _____    ______ ____
ROOT
ATOM      1  C   UNL     1       2.570   6.785  18.728  0.00  0.00    +0.000 A 
ATOM      2  C   UNL     1       2.209   8.097  18.892  0.00  0.00    +0.000 A 
ATOM      3  C   UNL     1       1.505   8.137  20.101  0.00  0.00    +0.000 A 
ATOM      4  N   UNL     1       1.336   6.936  20.649  0.00  0.00    +0.000 NA
ATOM      5  N   UNL     1       2.079   6.114  19.852  0.00  0.00    +0.000 N 
ATOM      6  C   UNL     1       0.947   9.436  20.522  0.00  0.00    +0.000 C 
ATOM      7  S   UNL     1       0.932  10.413  18.925  0.00  0.00    +0.000 S 
ATOM      8  O   UNL     1       1.573  11.818  19.207  0.00  0.00    +0.000 OA
ATOM      9  C   UNL     1       2.245   9.345  18.119  0.00  0.00    +0.000 C 
ENDROOT
BRANCH   5  10
ATOM     10  C   UNL     1       2.270   4.746  20.172  0.00  0.00    +0.000 A 
ATOM     11  C   UNL     1       2.113   4.293  21.493  0.00  0.00    +0.000 A 
ATOM     12  C   UNL     1       2.377   2.961  21.809  0.00  0.00    +0.000 A 
ATOM     13  C   UNL     1       2.809   2.083  20.814  0.00  0.00    +0.000 A 
ATOM     14  C   UNL     1       2.930   2.529  19.497  0.00  0.00    +0.000 A 
ATOM     15 CL   UNL     1       3.489   1.446  18.284  0.00  0.00    +0.000 Cl
ATOM     16  C   UNL     1       2.634   3.849  19.160  0.00  0.00    +0.000 A 
ENDBRANCH   5  10
BRANCH   1  19
ATOM     17  C   UNL     1       4.564   5.909  17.598  0.00  0.00    +0.000 C 
ATOM     18  O   UNL     1       5.230   6.060  18.609  0.00  0.00    +0.000 OA
ATOM     19  N   UNL     1       3.167   6.223  17.603  0.00  0.00    +0.000 N 
ATOM     20  H   UNL     1       2.566   5.842  16.878  0.00  0.00    +0.000 HD
BRANCH  17  24
ATOM     21  C   UNL     1       6.101   4.179  14.014  0.00  0.00    +0.000 A 
ATOM     22  C   UNL     1       5.834   5.548  14.085  0.00  0.00    +0.000 A 
ATOM     23  C   UNL     1       5.335   6.111  15.260  0.00  0.00    +0.000 A 
ATOM     24  C   UNL     1       5.100   5.294  16.370  0.00  0.00    +0.000 A 
ATOM     25  C   UNL     1       5.341   3.916  16.300  0.00  0.00    +0.000 A 
ATOM     26  C   UNL     1       5.830   3.362  15.112  0.00  0.00    +0.000 A 
BRANCH  21  27
ATOM     27  O   UNL     1       6.597   3.755  12.815  0.00  0.00    +0.000 OA
BRANCH  27  29
ATOM     28  C   UNL     1       4.582   3.350  11.617  0.00  0.00    +0.000 C 
ATOM     29  C   UNL     1       5.862   2.731  12.143  0.00  0.00    +0.000 C 
ENDBRANCH  27  29
ENDBRANCH  21  27
ENDBRANCH  17  24
ENDBRANCH   1  19
TORSDOF 5
ENDMDL
MODEL 2
REMARK VINA RESULT:      -7.8      0.950      1.324
REMARK  Name = 
REMARK  6 active torsions:
REMARK  status: ('A' for Active; 'I' for Inactive)
REMARK    1  A    between atoms: C_1  and  C_2
REMARK    2  A    between atoms: C_2  and  O_3
REMARK    3  A    between atoms: O_3  and  C_4
REMARK    4  A    between atoms: C_7  and  C_8
REMARK    5  A    between atoms: N_10  and  C_11
REMARK    6  A    between atoms: N_15  and  C_16
REMARK                            x       y       z     vdW  Elec       q    Type
REMARK                         _______ _______ _______ _____ _____    ______ ____
ROOT
ATOM      1  C   UNL     1       2.303   7.174  19.012  0.00  0.00    +0.000 A 
ATOM      2  C   UNL     1       2.051   8.511  19.180  0.00  0.00    +0.000 A 
ATOM      3  C   UNL     1       1.257   8.594  20.329  0.00  0.00    +0.000 A 
ATOM      4  N   UNL     1       0.935   7.405  20.831  0.00  0.00    +0.000 NA
ATOM      5  N   UNL     1       1.663   6.532  20.076  0.00  0.00    +0.000 N 
ATOM      6  C   UNL     1       0.786   9.931  20.737  0.00  0.00    +0.000 C 
ATOM      7  S   UNL     1       0.991  10.935  19.170  0.00  0.00    +0.000 S 
ATOM      8  O   UNL     1       1.732  12.269  19.538  0.00  0.00    +0.000 OA
ATOM      9  C   UNL     1       2.262   9.764  18.444  0.00  0.00    +0.000 C 
ENDROOT
BRANCH   5  10
ATOM     10  C   UNL     1       1.702   5.146  20.375  0.00  0.00    +0.000 A 
ATOM     11  C   UNL     1       2.341   4.684  21.538  0.00  0.00    +0.000 A 
ATOM     12  C   UNL     1       2.440   3.315  21.782  0.00  0.00    +0.000 A 
ATOM     13  C   UNL     1       1.913   2.406  20.864  0.00  0.00    +0.000 A 
ATOM     14  C   UNL     1       1.249   2.870  19.728  0.00  0.00    +0.000 A 
ATOM     15 CL   UNL     1       0.627   1.740  18.590  0.00  0.00    +0.000 Cl
ATOM     16  C   UNL     1       1.111   4.236  19.489  0.00  0.00    +0.000 A 
ENDBRANCH   5  10
BRANCH   1  19
ATOM     17  C   UNL     1       4.231   5.986  18.068  0.00  0.00    +0.000 C 
ATOM     18  O   UNL     1       4.760   5.926  19.166  0.00  0.00    +0.000 OA
ATOM     19  N   UNL     1       2.936   6.580  17.923  0.00  0.00    +0.000 N 
ATOM     20  H   UNL     1       2.384   6.382  17.094  0.00  0.00    +0.000 HD
BRANCH  17  24
ATOM     21  C   UNL     1       5.914   4.123  14.618  0.00  0.00    +0.000 A 
ATOM     22  C   UNL     1       5.528   3.359  15.722  0.00  0.00    +0.000 A 
ATOM     23  C   UNL     1       4.976   3.971  16.847  0.00  0.00    +0.000 A 
ATOM     24  C   UNL     1       4.810   5.359  16.865  0.00  0.00    +0.000 A 
ATOM     25  C   UNL     1       5.216   6.136  15.773  0.00  0.00    +0.000 A 
ATOM     26  C   UNL     1       5.781   5.511  14.656  0.00  0.00    +0.000 A 
BRANCH  21  27
ATOM     27  O   UNL     1       6.429   3.404  13.578  0.00  0.00    +0.000 OA
BRANCH  27  29
ATOM     28  C   UNL     1       5.547   2.314  11.657  0.00  0.00    +0.000 C 
ATOM     29  C   UNL     1       5.871   3.655  12.287  0.00  0.00    +0.000 C 
ENDBRANCH  27  29
ENDBRANCH  21  27
ENDBRANCH  17  24
ENDBRANCH   1  19
TORSDOF 5
ENDMDL
MODEL 3
REMARK VINA RESULT:      -7.7      4.860      7.769
REMARK  Name = 
REMARK  6 active torsions:
REMARK  status: ('A' for Active; 'I' for Inactive)
REMARK    1  A    between atoms: C_1  and  C_2
REMARK    2  A    between atoms: C_2  and  O_3
REMARK    3  A    between atoms: O_3  and  C_4
REMARK    4  A    between atoms: C_7  and  C_8
REMARK    5  A    between atoms: N_10  and  C_11
REMARK    6  A    between atoms: N_15  and  C_16
REMARK                            x       y       z     vdW  Elec       q    Type
REMARK                         _______ _______ _______ _____ _____    ______ ____
ROOT
ATOM      1  C   UNL     1       0.488  11.933  19.249  0.00  0.00    +0.000 A 
ATOM      2  C   UNL     1       1.302  13.021  19.429  0.00  0.00    +0.000 A 
ATOM      3  C   UNL     1       0.621  14.092  18.839  0.00  0.00    +0.000 A 
ATOM      4  N   UNL     1      -0.509  13.728  18.240  0.00  0.00    +0.000 NA
ATOM      5  N   UNL     1      -0.641  12.412  18.579  0.00  0.00    +0.000 N 
ATOM      6  C   UNL     1       1.289  15.407  18.841  0.00  0.00    +0.000 C 
ATOM      7  S   UNL     1       3.081  14.958  19.147  0.00  0.00    +0.000 S 
ATOM      8  O   UNL     1       3.627  15.885  20.291  0.00  0.00    +0.000 OA
ATOM      9  C   UNL     1       2.659  13.302  19.916  0.00  0.00    +0.000 C 
ENDROOT
BRANCH   5  10
ATOM     10  C   UNL     1      -1.802  11.672  18.237  0.00  0.00    +0.000 A 
ATOM     11  C   UNL     1      -1.737  10.642  17.284  0.00  0.00    +0.000 A 
ATOM     12  C   UNL     1      -2.898   9.973  16.900  0.00  0.00    +0.000 A 
ATOM     13  C   UNL     1      -4.125  10.336  17.457  0.00  0.00    +0.000 A 
ATOM     14  C   UNL     1      -4.180  11.336  18.428  0.00  0.00    +0.000 A 
ATOM     15 CL   UNL     1      -5.701  11.794  19.087  0.00  0.00    +0.000 Cl
ATOM     16  C   UNL     1      -3.022  11.989  18.848  0.00  0.00    +0.000 A 
ENDBRANCH   5  10
BRANCH   1  19
ATOM     17  C   UNL     1       1.538   9.808  18.613  0.00  0.00    +0.000 C 
ATOM     18  O   UNL     1       1.972  10.305  17.586  0.00  0.00    +0.000 OA
ATOM     19  N   UNL     1       0.797  10.607  19.542  0.00  0.00    +0.000 N 
ATOM     20  H   UNL     1       0.685  10.287  20.499  0.00  0.00    +0.000 HD
BRANCH  17  24
ATOM     21  C   UNL     1       2.399   5.819  19.854  0.00  0.00    +0.000 A 
ATOM     22  C   UNL     1       1.814   6.729  20.739  0.00  0.00    +0.000 A 
ATOM     23  C   UNL     1       1.532   8.031  20.328  0.00  0.00    +0.000 A 
ATOM     24  C   UNL     1       1.838   8.425  19.022  0.00  0.00    +0.000 A 
ATOM     25  C   UNL     1       2.447   7.527  18.136  0.00  0.00    +0.000 A 
ATOM     26  C   UNL     1       2.738   6.228  18.564  0.00  0.00    +0.000 A 
BRANCH  21  27
ATOM     27  O   UNL     1       2.615   4.575  20.373  0.00  0.00    +0.000 OA
BRANCH  27  29
ATOM     28  C   UNL     1       1.888   2.689  21.628  0.00  0.00    +0.000 C 
ATOM     29  C   UNL     1       1.455   3.807  20.699  0.00  0.00    +0.000 C 
ENDBRANCH  27  29
ENDBRANCH  21  27
ENDBRANCH  17  24
ENDBRANCH   1  19
TORSDOF 5
ENDMDL
MODEL 4
REMARK VINA RESULT:      -7.5      4.550      7.639
REMARK  Name = 
REMARK  6 active torsions:
REMARK  status: ('A' for Active; 'I' for Inactive)
REMARK    1  A    between atoms: C_1  and  C_2
REMARK    2  A    between atoms: C_2  and  O_3
REMARK    3  A    between atoms: O_3  and  C_4
REMARK    4  A    between atoms: C_7  and  C_8
REMARK    5  A    between atoms: N_10  and  C_11
REMARK    6  A    between atoms: N_15  and  C_16
REMARK                            x       y       z     vdW  Elec       q    Type
REMARK                         _______ _______ _______ _____ _____    ______ ____
ROOT
ATOM      1  C   UNL     1       0.511  12.189  19.328  0.00  0.00    +0.000 A 
ATOM      2  C   UNL     1       1.340  13.245  19.606  0.00  0.00    +0.000 A 
ATOM      3  C   UNL     1       0.682  14.372  19.101  0.00  0.00    +0.000 A 
ATOM      4  N   UNL     1      -0.447  14.078  18.461  0.00  0.00    +0.000 NA
ATOM      5  N   UNL     1      -0.603  12.741  18.688  0.00  0.00    +0.000 N 
ATOM      6  C   UNL     1       1.370  15.672  19.219  0.00  0.00    +0.000 C 
ATOM      7  S   UNL     1       3.151  15.170  19.505  0.00  0.00    +0.000 S 
ATOM      8  O   UNL     1       3.698  15.989  20.727  0.00  0.00    +0.000 OA
ATOM      9  C   UNL     1       2.695  13.462  20.128  0.00  0.00    +0.000 C 
ENDROOT
BRANCH   5  10
ATOM     10  C   UNL     1      -1.771  12.050  18.274  0.00  0.00    +0.000 A 
ATOM     11  C   UNL     1      -2.917  12.038  19.085  0.00  0.00    +0.000 A 
ATOM     12  C   UNL     1      -4.033  11.293  18.704  0.00  0.00    +0.000 A 
ATOM     13  C   UNL     1      -4.002  10.551  17.523  0.00  0.00    +0.000 A 
ATOM     14  C   UNL     1      -2.873  10.593  16.704  0.00  0.00    +0.000 A 
ATOM     15 CL   UNL     1      -2.836   9.653  15.264  0.00  0.00    +0.000 Cl
ATOM     16  C   UNL     1      -1.765  11.363  17.054  0.00  0.00    +0.000 A 
ENDBRANCH   5  10
BRANCH   1  19
ATOM     17  C   UNL     1       1.582  10.122  18.553  0.00  0.00    +0.000 C 
ATOM     18  O   UNL     1       2.074  10.707  17.602  0.00  0.00    +0.000 OA
ATOM     19  N   UNL     1       0.797  10.839  19.512  0.00  0.00    +0.000 N 
ATOM     20  H   UNL     1       0.631  10.432  20.427  0.00  0.00    +0.000 HD
BRANCH  17  24
ATOM     21  C   UNL     1       2.359   6.026  19.462  0.00  0.00    +0.000 A 
ATOM     22  C   UNL     1       1.836   6.884  20.433  0.00  0.00    +0.000 A 
ATOM     23  C   UNL     1       1.581   8.221  20.131  0.00  0.00    +0.000 A 
ATOM     24  C   UNL     1       1.852   8.703  18.847  0.00  0.00    +0.000 A 
ATOM     25  C   UNL     1       2.399   7.857  17.874  0.00  0.00    +0.000 A 
ATOM     26  C   UNL     1       2.663   6.521  18.193  0.00  0.00    +0.000 A 
BRANCH  21  27
ATOM     27  O   UNL     1       2.552   4.741  19.879  0.00  0.00    +0.000 OA
BRANCH  27  29
ATOM     28  C   UNL     1       1.415   3.080  21.148  0.00  0.00    +0.000 C 
ATOM     29  C   UNL     1       2.117   4.424  21.202  0.00  0.00    +0.000 C 
ENDBRANCH  27  29
ENDBRANCH  21  27
ENDBRANCH  17  24
ENDBRANCH   1  19
TORSDOF 5
ENDMDL
MODEL 5
REMARK VINA RESULT:      -7.4      4.779      7.489
REMARK  Name = 
REMARK  6 active torsions:
REMARK  status: ('A' for Active; 'I' for Inactive)
REMARK    1  A    between atoms: C_1  and  C_2
REMARK    2  A    between atoms: C_2  and  O_3
REMARK    3  A    between atoms: O_3  and  C_4
REMARK    4  A    between atoms: C_7  and  C_8
REMARK    5  A    between atoms: N_10  and  C_11
REMARK    6  A    between atoms: N_15  and  C_16
REMARK                            x       y       z     vdW  Elec       q    Type
REMARK                         _______ _______ _______ _____ _____    ______ ____
ROOT
ATOM      1  C   UNL     1       0.718  12.073  18.927  0.00  0.00    +0.000 A 
ATOM      2  C   UNL     1       1.438  13.202  19.221  0.00  0.00    +0.000 A 
ATOM      3  C   UNL     1       0.546  14.264  19.037  0.00  0.00    +0.000 A 
ATOM      4  N   UNL     1      -0.641  13.879  18.574  0.00  0.00    +0.000 NA
ATOM      5  N   UNL     1      -0.566  12.516  18.601  0.00  0.00    +0.000 N 
ATOM      6  C   UNL     1       1.063  15.631  19.242  0.00  0.00    +0.000 C 
ATOM      7  S   UNL     1       2.915  15.393  19.112  0.00  0.00    +0.000 S 
ATOM      8  O   UNL     1       3.587  16.116  20.333  0.00  0.00    +0.000 OA
ATOM      9  C   UNL     1       2.830  13.565  19.516  0.00  0.00    +0.000 C 
ENDROOT
BRANCH   5  10
ATOM     10  C   UNL     1      -1.691  11.707  18.298  0.00  0.00    +0.000 A 
ATOM     11  C   UNL     1      -1.566  10.607  17.433  0.00  0.00    +0.000 A 
ATOM     12  C   UNL     1      -2.693   9.865  17.082  0.00  0.00    +0.000 A 
ATOM     13  C   UNL     1      -3.945  10.225  17.582  0.00  0.00    +0.000 A 
ATOM     14  C   UNL     1      -4.059  11.297  18.468  0.00  0.00    +0.000 A 
ATOM     15 CL   UNL     1      -5.611  11.748  19.057  0.00  0.00    +0.000 Cl
ATOM     16  C   UNL     1      -2.936  12.025  18.856  0.00  0.00    +0.000 A 
ENDBRANCH   5  10
BRANCH   1  19
ATOM     17  C   UNL     1       1.070   9.855  19.918  0.00  0.00    +0.000 C 
ATOM     18  O   UNL     1       0.443  10.177  20.914  0.00  0.00    +0.000 OA
ATOM     19  N   UNL     1       1.214  10.775  18.830  0.00  0.00    +0.000 N 
ATOM     20  H   UNL     1       1.477  10.428  17.912  0.00  0.00    +0.000 HD
BRANCH  17  24
ATOM     21  C   UNL     1       2.620   5.935  19.263  0.00  0.00    +0.000 A 
ATOM     22  C   UNL     1       2.689   6.904  18.259  0.00  0.00    +0.000 A 
ATOM     23  C   UNL     1       2.184   8.185  18.478  0.00  0.00    +0.000 A 
ATOM     24  C   UNL     1       1.605   8.497  19.712  0.00  0.00    +0.000 A 
ATOM     25  C   UNL     1       1.509   7.525  20.715  0.00  0.00    +0.000 A 
ATOM     26  C   UNL     1       2.008   6.240  20.479  0.00  0.00    +0.000 A 
BRANCH  21  27
ATOM     27  O   UNL     1       3.159   4.726  18.928  0.00  0.00    +0.000 OA
BRANCH  27  29
ATOM     28  C   UNL     1       1.285   3.397  18.311  0.00  0.00    +0.000 C 
ATOM     29  C   UNL     1       2.567   4.045  17.822  0.00  0.00    +0.000 C 
ENDBRANCH  27  29
ENDBRANCH  21  27
ENDBRANCH  17  24
ENDBRANCH   1  19
TORSDOF 5
ENDMDL
MODEL 6
REMARK VINA RESULT:      -7.3      2.566      6.885
REMARK  Name = 
REMARK  6 active torsions:
REMARK  status: ('A' for Active; 'I' for Inactive)
REMARK    1  A    between atoms: C_1  and  C_2
REMARK    2  A    between atoms: C_2  and  O_3
REMARK    3  A    between atoms: O_3  and  C_4
REMARK    4  A    between atoms: C_7  and  C_8
REMARK    5  A    between atoms: N_10  and  C_11
REMARK    6  A    between atoms: N_15  and  C_16
REMARK                            x       y       z     vdW  Elec       q    Type
REMARK                         _______ _______ _______ _____ _____    ______ ____
ROOT
ATOM      1  C   UNL     1       3.767   5.247  17.141  0.00  0.00    +0.000 A 
ATOM      2  C   UNL     1       4.877   5.280  16.338  0.00  0.00    +0.000 A 
ATOM      3  C   UNL     1       5.416   3.990  16.402  0.00  0.00    +0.000 A 
ATOM      4  N   UNL     1       4.768   3.193  17.247  0.00  0.00    +0.000 NA
ATOM      5  N   UNL     1       3.690   3.939  17.627  0.00  0.00    +0.000 N 
ATOM      6  C   UNL     1       6.664   3.736  15.658  0.00  0.00    +0.000 C 
ATOM      7  S   UNL     1       7.337   5.461  15.381  0.00  0.00    +0.000 S 
ATOM      8  O   UNL     1       7.732   5.593  13.868  0.00  0.00    +0.000 OA
ATOM      9  C   UNL     1       5.664   6.278  15.602  0.00  0.00    +0.000 C 
ENDROOT
BRANCH   5  10
ATOM     10  C   UNL     1       2.663   3.397  18.442  0.00  0.00    +0.000 A 
ATOM     11  C   UNL     1       1.389   3.140  17.908  0.00  0.00    +0.000 A 
ATOM     12  C   UNL     1       0.367   2.680  18.735  0.00  0.00    +0.000 A 
ATOM     13  C   UNL     1       0.608   2.486  20.096  0.00  0.00    +0.000 A 
ATOM     14  C   UNL     1       1.884   2.709  20.615  0.00  0.00    +0.000 A 
ATOM     15 CL   UNL     1       2.163   2.493  22.298  0.00  0.00    +0.000 Cl
ATOM     16  C   UNL     1       2.925   3.135  19.792  0.00  0.00    +0.000 A 
ENDBRANCH   5  10
BRANCH   1  19
ATOM     17  C   UNL     1       2.988   6.823  18.854  0.00  0.00    +0.000 C 
ATOM     18  O   UNL     1       3.750   6.341  19.675  0.00  0.00    +0.000 OA
ATOM     19  N   UNL     1       2.976   6.333  17.508  0.00  0.00    +0.000 N 
ATOM     20  H   UNL     1       2.566   6.900  16.772  0.00  0.00    +0.000 HD
BRANCH  17  24
ATOM     21  C   UNL     1       0.543  10.231  19.633  0.00  0.00    +0.000 A 
ATOM     22  C   UNL     1       1.139  10.054  18.383  0.00  0.00    +0.000 A 
ATOM     23  C   UNL     1       1.936   8.937  18.131  0.00  0.00    +0.000 A 
ATOM     24  C   UNL     1       2.136   7.991  19.140  0.00  0.00    +0.000 A 
ATOM     25  C   UNL     1       1.562   8.172  20.404  0.00  0.00    +0.000 A 
ATOM     26  C   UNL     1       0.776   9.303  20.649  0.00  0.00    +0.000 A 
BRANCH  21  27
ATOM     27  O   UNL     1      -0.220  11.357  19.749  0.00  0.00    +0.000 OA
BRANCH  27  29
ATOM     28  C   UNL     1      -2.321  11.364  18.632  0.00  0.00    +0.000 C 
ATOM     29  C   UNL     1      -0.874  11.812  18.563  0.00  0.00    +0.000 C 
ENDBRANCH  27  29
ENDBRANCH  21  27
ENDBRANCH  17  24
ENDBRANCH   1  19
TORSDOF 5
ENDMDL
MODEL 7
REMARK VINA RESULT:      -7.3      4.639      7.295
REMARK  Name = 
REMARK  6 active torsions:
REMARK  status: ('A' for Active; 'I' for Inactive)
REMARK    1  A    between atoms: C_1  and  C_2
REMARK    2  A    between atoms: C_2  and  O_3
REMARK    3  A    between atoms: O_3  and  C_4
REMARK    4  A    between atoms: C_7  and  C_8
REMARK    5  A    between atoms: N_10  and  C_11
REMARK    6  A    between atoms: N_15  and  C_16
REMARK                            x       y       z     vdW  Elec       q    Type
REMARK                         _______ _______ _______ _____ _____    ______ ____
ROOT
ATOM      1  C   UNL     1       0.387  11.801  19.590  0.00  0.00    +0.000 A 
ATOM      2  C   UNL     1       0.867  12.854  20.324  0.00  0.00    +0.000 A 
ATOM      3  C   UNL     1      -0.124  13.840  20.245  0.00  0.00    +0.000 A 
ATOM      4  N   UNL     1      -1.137  13.502  19.450  0.00  0.00    +0.000 NA
ATOM      5  N   UNL     1      -0.869  12.204  19.125  0.00  0.00    +0.000 N 
ATOM      6  C   UNL     1       0.140  15.127  20.916  0.00  0.00    +0.000 C 
ATOM      7  S   UNL     1       2.000  15.105  21.129  0.00  0.00    +0.000 S 
ATOM      8  O   UNL     1       2.325  15.496  22.614  0.00  0.00    +0.000 OA
ATOM      9  C   UNL     1       2.113  13.238  20.999  0.00  0.00    +0.000 C 
ENDROOT
BRANCH   5  10
ATOM     10  C   UNL     1      -1.788  11.422  18.381  0.00  0.00    +0.000 A 
ATOM     11  C   UNL     1      -1.329  10.467  17.458  0.00  0.00    +0.000 A 
ATOM     12  C   UNL     1      -2.240   9.758  16.677  0.00  0.00    +0.000 A 
ATOM     13  C   UNL     1      -3.607  10.008  16.805  0.00  0.00    +0.000 A 
ATOM     14  C   UNL     1      -4.061  10.932  17.747  0.00  0.00    +0.000 A 
ATOM     15 CL   UNL     1      -5.745  11.252  17.878  0.00  0.00    +0.000 Cl
ATOM     16  C   UNL     1      -3.162  11.622  18.560  0.00  0.00    +0.000 A 
ENDBRANCH   5  10
BRANCH   1  19
ATOM     17  C   UNL     1       0.943   9.457  20.053  0.00  0.00    +0.000 C 
ATOM     18  O   UNL     1       0.161   9.433  20.989  0.00  0.00    +0.000 OA
ATOM     19  N   UNL     1       1.077  10.639  19.257  0.00  0.00    +0.000 N 
ATOM     20  H   UNL     1       1.497  10.576  18.334  0.00  0.00    +0.000 HD
BRANCH  17  24
ATOM     21  C   UNL     1       3.116   6.041  18.708  0.00  0.00    +0.000 A 
ATOM     22  C   UNL     1       2.996   7.172  17.897  0.00  0.00    +0.000 A 
ATOM     23  C   UNL     1       2.287   8.288  18.342  0.00  0.00    +0.000 A 
ATOM     24  C   UNL     1       1.694   8.269  19.608  0.00  0.00    +0.000 A 
ATOM     25  C   UNL     1       1.789   7.130  20.417  0.00  0.00    +0.000 A 
ATOM     26  C   UNL     1       2.491   6.013  19.955  0.00  0.00    +0.000 A 
BRANCH  21  27
ATOM     27  O   UNL     1       3.843   5.022  18.163  0.00  0.00    +0.000 OA
BRANCH  27  29
ATOM     28  C   UNL     1       6.016   5.164  19.122  0.00  0.00    +0.000 C 
ATOM     29  C   UNL     1       4.745   4.340  19.036  0.00  0.00    +0.000 C 
ENDBRANCH  27  29
ENDBRANCH  21  27
ENDBRANCH  17  24
ENDBRANCH   1  19
TORSDOF 5
ENDMDL
MODEL 8
REMARK VINA RESULT:      -7.2      4.656      7.564
REMARK  Name = 
REMARK  6 active torsions:
REMARK  status: ('A' for Active; 'I' for Inactive)
REMARK    1  A    between atoms: C_1  and  C_2
REMARK    2  A    between atoms: C_2  and  O_3
REMARK    3  A    between atoms: O_3  and  C_4
REMARK    4  A    between atoms: C_7  and  C_8
REMARK    5  A    between atoms: N_10  and  C_11
REMARK    6  A    between atoms: N_15  and  C_16
REMARK                            x       y       z     vdW  Elec       q    Type
REMARK                         _______ _______ _______ _____ _____    ______ ____
ROOT
ATOM      1  C   UNL     1       0.719  12.355  18.749  0.00  0.00    +0.000 A 
ATOM      2  C   UNL     1       1.521  13.428  19.041  0.00  0.00    +0.000 A 
ATOM      3  C   UNL     1       0.698  14.551  18.904  0.00  0.00    +0.000 A 
ATOM      4  N   UNL     1      -0.524  14.255  18.469  0.00  0.00    +0.000 NA
ATOM      5  N   UNL     1      -0.542  12.891  18.469  0.00  0.00    +0.000 N 
ATOM      6  C   UNL     1       1.312  15.875  19.118  0.00  0.00    +0.000 C 
ATOM      7  S   UNL     1       3.140  15.517  18.928  0.00  0.00    +0.000 S 
ATOM      8  O   UNL     1       3.893  16.169  20.141  0.00  0.00    +0.000 OA
ATOM      9  C   UNL     1       2.942  13.691  19.301  0.00  0.00    +0.000 C 
ENDROOT
BRANCH   5  10
ATOM     10  C   UNL     1      -1.727  12.165  18.186  0.00  0.00    +0.000 A 
ATOM     11  C   UNL     1      -2.799  12.166  19.093  0.00  0.00    +0.000 A 
ATOM     12  C   UNL     1      -3.927  11.387  18.840  0.00  0.00    +0.000 A 
ATOM     13  C   UNL     1      -3.983  10.599  17.690  0.00  0.00    +0.000 A 
ATOM     14  C   UNL     1      -2.931  10.627  16.775  0.00  0.00    +0.000 A 
ATOM     15 CL   UNL     1      -2.998   9.630  15.375  0.00  0.00    +0.000 Cl
ATOM     16  C   UNL     1      -1.812  11.428  16.997  0.00  0.00    +0.000 A 
ENDBRANCH   5  10
BRANCH   1  19
ATOM     17  C   UNL     1       1.151  10.156  19.748  0.00  0.00    +0.000 C 
ATOM     18  O   UNL     1       0.747  10.544  20.831  0.00  0.00    +0.000 OA
ATOM     19  N   UNL     1       1.123  11.030  18.613  0.00  0.00    +0.000 N 
ATOM     20  H   UNL     1       1.185  10.638  17.678  0.00  0.00    +0.000 HD
BRANCH  17  24
ATOM     21  C   UNL     1       2.361   6.118  19.092  0.00  0.00    +0.000 A 
ATOM     22  C   UNL     1       1.897   6.527  20.344  0.00  0.00    +0.000 A 
ATOM     23  C   UNL     1       1.500   7.847  20.554  0.00  0.00    +0.000 A 
ATOM     24  C   UNL     1       1.569   8.764  19.501  0.00  0.00    +0.000 A 
ATOM     25  C   UNL     1       2.055   8.369  18.248  0.00  0.00    +0.000 A 
ATOM     26  C   UNL     1       2.463   7.046  18.054  0.00  0.00    +0.000 A 
BRANCH  21  27
ATOM     27  O   UNL     1       2.708   4.800  19.013  0.00  0.00    +0.000 OA
BRANCH  27  29
ATOM     28  C   UNL     1       1.096   3.078  19.326  0.00  0.00    +0.000 C 
ATOM     29  C   UNL     1       1.811   3.943  18.305  0.00  0.00    +0.000 C 
ENDBRANCH  27  29
ENDBRANCH  21  27
ENDBRANCH  17  24
ENDBRANCH   1  19
TORSDOF 5
ENDMDL
MODEL 9
REMARK VINA RESULT:      -7.2      4.923      7.603
REMARK  Name = 
REMARK  6 active torsions:
REMARK  status: ('A' for Active; 'I' for Inactive)
REMARK    1  A    between atoms: C_1  and  C_2
REMARK    2  A    between atoms: C_2  and  O_3
REMARK    3  A    between atoms: O_3  and  C_4
REMARK    4  A    between atoms: C_7  and  C_8
REMARK    5  A    between atoms: N_10  and  C_11
REMARK    6  A    between atoms: N_15  and  C_16
REMARK                            x       y       z     vdW  Elec       q    Type
REMARK                         _______ _______ _______ _____ _____    ______ ____
ROOT
ATOM      1  C   UNL     1       0.700  12.332  18.741  0.00  0.00    +0.000 A 
ATOM      2  C   UNL     1       1.436  13.462  18.989  0.00  0.00    +0.000 A 
ATOM      3  C   UNL     1       0.532  14.523  18.863  0.00  0.00    +0.000 A 
ATOM      4  N   UNL     1      -0.680  14.137  18.476  0.00  0.00    +0.000 NA
ATOM      5  N   UNL     1      -0.603  12.774  18.498  0.00  0.00    +0.000 N 
ATOM      6  C   UNL     1       1.060  15.890  19.035  0.00  0.00    +0.000 C 
ATOM      7  S   UNL     1       2.901  15.655  18.787  0.00  0.00    +0.000 S 
ATOM      8  O   UNL     1       3.647  16.379  19.962  0.00  0.00    +0.000 OA
ATOM      9  C   UNL     1       2.843  13.826  19.195  0.00  0.00    +0.000 C 
ENDROOT
BRANCH   5  10
ATOM     10  C   UNL     1      -1.744  11.963  18.267  0.00  0.00    +0.000 A 
ATOM     11  C   UNL     1      -1.710  10.942  17.303  0.00  0.00    +0.000 A 
ATOM     12  C   UNL     1      -2.860  10.202  17.031  0.00  0.00    +0.000 A 
ATOM     13  C   UNL     1      -4.046  10.487  17.709  0.00  0.00    +0.000 A 
ATOM     14  C   UNL     1      -4.066  11.479  18.690  0.00  0.00    +0.000 A 
ATOM     15 CL   UNL     1      -5.539  11.840  19.501  0.00  0.00    +0.000 Cl
ATOM     16  C   UNL     1      -2.914  12.202  18.998  0.00  0.00    +0.000 A 
ENDBRANCH   5  10
BRANCH   1  19
ATOM     17  C   UNL     1       1.022  10.083  19.670  0.00  0.00    +0.000 C 
ATOM     18  O   UNL     1       0.380  10.378  20.664  0.00  0.00    +0.000 OA
ATOM     19  N   UNL     1       1.190  11.035  18.613  0.00  0.00    +0.000 N 
ATOM     20  H   UNL     1       1.468  10.714  17.690  0.00  0.00    +0.000 HD
BRANCH  17  24
ATOM     21  C   UNL     1       2.560   6.154  19.038  0.00  0.00    +0.000 A 
ATOM     22  C   UNL     1       2.077   6.536  20.292  0.00  0.00    +0.000 A 
ATOM     23  C   UNL     1       1.573   7.820  20.494  0.00  0.00    +0.000 A 
ATOM     24  C   UNL     1       1.553   8.729  19.431  0.00  0.00    +0.000 A 
ATOM     25  C   UNL     1       2.057   8.363  18.177  0.00  0.00    +0.000 A 
ATOM     26  C   UNL     1       2.572   7.076  17.990  0.00  0.00    +0.000 A 
BRANCH  21  27
ATOM     27  O   UNL     1       3.015   4.869  18.967  0.00  0.00    +0.000 OA
BRANCH  27  29
ATOM     28  C   UNL     1       2.583   3.307  17.226  0.00  0.00    +0.000 C 
ATOM     29  C   UNL     1       3.492   4.427  17.696  0.00  0.00    +0.000 C 
ENDBRANCH  27  29
ENDBRANCH  21  27
ENDBRANCH  17  24
ENDBRANCH   1  19
TORSDOF 5
ENDMDL
