MODEL 1
REMARK VINA RESULT:      -7.3      0.000      0.000
REMARK  Name = 
REMARK  5 active torsions:
REMARK  status: ('A' for Active; 'I' for Inactive)
REMARK    1  A    between atoms: C_1  and  C_2
REMARK    2  A    between atoms: C_2  and  O_3
REMARK    3  A    between atoms: O_3  and  C_4
REMARK    4  A    between atoms: N_9  and  C_10
REMARK    5  A    between atoms: N_14  and  C_15
REMARK                            x       y       z     vdW  Elec       q    Type
REMARK                         _______ _______ _______ _____ _____    ______ ____
ROOT
ATOM      1  C   UNL     1       2.255   8.001  19.003  0.00  0.00    +0.000 A 
ATOM      2  C   UNL     1       3.012   7.956  17.905  0.00  0.00    +0.000 A 
ATOM      3  C   UNL     1       3.830   6.781  17.576  0.00  0.00    +0.000 A 
ATOM      4  O   UNL     1       4.405   6.840  16.494  0.00  0.00    +0.000 OA
ATOM      5  N   UNL     1       3.822   5.726  18.468  0.00  0.00    +0.000 N 
ATOM      6  C   UNL     1       3.060   5.794  19.630  0.00  0.00    +0.000 A 
ATOM      7  O   UNL     1       2.949   4.884  20.451  0.00  0.00    +0.000 OA
ATOM      8  N   UNL     1       2.347   6.935  19.844  0.00  0.00    +0.000 N 
ATOM      9  H   UNL     1       1.762   6.915  20.667  0.00  0.00    +0.000 HD
ENDROOT
BRANCH   1  15
ATOM     10  C   UNL     1      -1.547  11.794  20.047  0.00  0.00    +0.000 C 
ATOM     11  O   UNL     1      -1.908  12.560  19.162  0.00  0.00    +0.000 OA
ATOM     12  N   UNL     1      -0.961  10.571  19.810  0.00  0.00    +0.000 N 
ATOM     13  C   UNL     1      -0.632  10.180  18.438  0.00  0.00    +0.000 C 
ATOM     14  C   UNL     1       0.888   9.994  18.252  0.00  0.00    +0.000 C 
ATOM     15  N   UNL     1       1.413   9.068  19.278  0.00  0.00    +0.000 N 
ATOM     16  C   UNL     1       1.117   9.529  20.661  0.00  0.00    +0.000 C 
ATOM     17  C   UNL     1      -0.398   9.713  20.856  0.00  0.00    +0.000 C 
BRANCH  10  18
ATOM     18  O   UNL     1      -1.604  12.085  21.372  0.00  0.00    +0.000 OA
BRANCH  18  20
ATOM     19  C   UNL     1      -3.007  12.234  23.299  0.00  0.00    +0.000 C 
ATOM     20  C   UNL     1      -2.866  12.581  21.830  0.00  0.00    +0.000 C 
ENDBRANCH  18  20
ENDBRANCH  10  18
ENDBRANCH   1  15
BRANCH   5  21
ATOM     21  C   UNL     1       4.433   4.405  18.156  0.00  0.00    +0.000 C 
ATOM     22  C   UNL     1       4.396   3.901  16.698  0.00  0.00    +0.000 C 
ATOM     23  C   UNL     1       5.480   4.476  15.778  0.00  0.00    +0.000 C 
ATOM     24  C   UNL     1       6.873   4.527  16.391  0.00  0.00    +0.000 C 
ATOM     25  C   UNL     1       6.898   4.967  17.849  0.00  0.00    +0.000 C 
ATOM     26  C   UNL     1       5.869   4.228  18.690  0.00  0.00    +0.000 C 
ENDBRANCH   5  21
TORSDOF 4
ENDMDL
MODEL 2
REMARK VINA RESULT:      -7.3      1.100      1.818
REMARK  Name = 
REMARK  5 active torsions:
REMARK  status: ('A' for Active; 'I' for Inactive)
REMARK    1  A    between atoms: C_1  and  C_2
REMARK    2  A    between atoms: C_2  and  O_3
REMARK    3  A    between atoms: O_3  and  C_4
REMARK    4  A    between atoms: N_9  and  C_10
REMARK    5  A    between atoms: N_14  and  C_15
REMARK                            x       y       z     vdW  Elec       q    Type
REMARK                         _______ _______ _______ _____ _____    ______ ____
ROOT
ATOM      1  C   UNL     1       2.370   7.769  19.060  0.00  0.00    +0.000 A 
ATOM      2  C   UNL     1       3.065   7.887  17.927  0.00  0.00    +0.000 A 
ATOM      3  C   UNL     1       3.991   6.841  17.474  0.00  0.00    +0.000 A 
ATOM      4  O   UNL     1       4.496   7.040  16.373  0.00  0.00    +0.000 OA
ATOM      5  N   UNL     1       4.151   5.733  18.284  0.00  0.00    +0.000 N 
ATOM      6  C   UNL     1       3.451   5.632  19.482  0.00  0.00    +0.000 A 
ATOM      7  O   UNL     1       3.488   4.661  20.237  0.00  0.00    +0.000 OA
ATOM      8  N   UNL     1       2.627   6.665  19.814  0.00  0.00    +0.000 N 
ATOM      9  H   UNL     1       2.094   6.521  20.659  0.00  0.00    +0.000 HD
ENDROOT
BRANCH   1  15
ATOM     10  C   UNL     1      -0.852  11.855  20.747  0.00  0.00    +0.000 C 
ATOM     11  O   UNL     1      -1.363  11.814  21.860  0.00  0.00    +0.000 OA
ATOM     12  N   UNL     1       0.276  11.150  20.396  0.00  0.00    +0.000 N 
ATOM     13  C   UNL     1       0.860  10.199  21.343  0.00  0.00    +0.000 C 
ATOM     14  C   UNL     1       0.818   8.757  20.798  0.00  0.00    +0.000 C 
ATOM     15  N   UNL     1       1.429   8.709  19.452  0.00  0.00    +0.000 N 
ATOM     16  C   UNL     1       0.770   9.640  18.497  0.00  0.00    +0.000 C 
ATOM     17  C   UNL     1       0.811  11.081  19.033  0.00  0.00    +0.000 C 
BRANCH  10  18
ATOM     18  O   UNL     1      -1.376  12.538  19.696  0.00  0.00    +0.000 OA
BRANCH  18  20
ATOM     19  C   UNL     1      -2.772  11.469  18.080  0.00  0.00    +0.000 C 
ATOM     20  C   UNL     1      -2.739  12.228  19.392  0.00  0.00    +0.000 C 
ENDBRANCH  18  20
ENDBRANCH  10  18
ENDBRANCH   1  15
BRANCH   5  21
ATOM     21  C   UNL     1       4.888   4.516  17.846  0.00  0.00    +0.000 C 
ATOM     22  C   UNL     1       4.685   4.010  16.403  0.00  0.00    +0.000 C 
ATOM     23  C   UNL     1       5.506   4.738  15.331  0.00  0.00    +0.000 C 
ATOM     24  C   UNL     1       6.959   4.996  15.708  0.00  0.00    +0.000 C 
ATOM     25  C   UNL     1       7.160   5.437  17.152  0.00  0.00    +0.000 C 
ATOM     26  C   UNL     1       6.404   4.555  18.134  0.00  0.00    +0.000 C 
ENDBRANCH   5  21
TORSDOF 4
ENDMDL
MODEL 3
REMARK VINA RESULT:      -7.3      1.418      2.638
REMARK  Name = 
REMARK  5 active torsions:
REMARK  status: ('A' for Active; 'I' for Inactive)
REMARK    1  A    between atoms: C_1  and  C_2
REMARK    2  A    between atoms: C_2  and  O_3
REMARK    3  A    between atoms: O_3  and  C_4
REMARK    4  A    between atoms: N_9  and  C_10
REMARK    5  A    between atoms: N_14  and  C_15
REMARK                            x       y       z     vdW  Elec       q    Type
REMARK                         _______ _______ _______ _____ _____    ______ ____
ROOT
ATOM      1  C   UNL     1       1.922   7.798  19.700  0.00  0.00    +0.000 A 
ATOM      2  C   UNL     1       1.853   6.633  20.347  0.00  0.00    +0.000 A 
ATOM      3  C   UNL     1       2.581   5.445  19.881  0.00  0.00    +0.000 A 
ATOM      4  O   UNL     1       2.499   4.468  20.619  0.00  0.00    +0.000 OA
ATOM      5  N   UNL     1       3.318   5.561  18.718  0.00  0.00    +0.000 N 
ATOM      6  C   UNL     1       3.356   6.769  18.029  0.00  0.00    +0.000 A 
ATOM      7  O   UNL     1       4.028   6.979  17.019  0.00  0.00    +0.000 OA
ATOM      8  N   UNL     1       2.635   7.805  18.541  0.00  0.00    +0.000 N 
ATOM      9  H   UNL     1       2.742   8.677  18.043  0.00  0.00    +0.000 HD
ENDROOT
BRANCH   1  15
ATOM     10  C   UNL     1      -1.041  12.028  21.506  0.00  0.00    +0.000 C 
ATOM     11  O   UNL     1      -1.257  12.984  20.771  0.00  0.00    +0.000 OA
ATOM     12  N   UNL     1      -0.712  10.771  21.052  0.00  0.00    +0.000 N 
ATOM     13  C   UNL     1      -0.486  10.554  19.622  0.00  0.00    +0.000 C 
ATOM     14  C   UNL     1       0.963  10.112  19.337  0.00  0.00    +0.000 C 
ATOM     15  N   UNL     1       1.311   8.947  20.179  0.00  0.00    +0.000 N 
ATOM     16  C   UNL     1       1.132   9.224  21.630  0.00  0.00    +0.000 C 
ATOM     17  C   UNL     1      -0.313   9.661  21.922  0.00  0.00    +0.000 C 
BRANCH  10  18
ATOM     18  O   UNL     1      -1.020  12.103  22.862  0.00  0.00    +0.000 OA
BRANCH  18  20
ATOM     19  C   UNL     1      -3.273  12.365  23.611  0.00  0.00    +0.000 C 
ATOM     20  C   UNL     1      -1.931  13.048  23.431  0.00  0.00    +0.000 C 
ENDBRANCH  18  20
ENDBRANCH  10  18
ENDBRANCH   1  15
BRANCH   5  21
ATOM     21  C   UNL     1       4.262   4.507  18.257  0.00  0.00    +0.000 C 
ATOM     22  C   UNL     1       4.883   3.561  19.306  0.00  0.00    +0.000 C 
ATOM     23  C   UNL     1       3.992   2.392  19.744  0.00  0.00    +0.000 C 
ATOM     24  C   UNL     1       3.270   1.682  18.606  0.00  0.00    +0.000 C 
ATOM     25  C   UNL     1       2.712   2.617  17.542  0.00  0.00    +0.000 C 
ATOM     26  C   UNL     1       3.733   3.649  17.089  0.00  0.00    +0.000 C 
ENDBRANCH   5  21
TORSDOF 4
ENDMDL
MODEL 4
REMARK VINA RESULT:      -7.3      1.396      2.049
REMARK  Name = 
REMARK  5 active torsions:
REMARK  status: ('A' for Active; 'I' for Inactive)
REMARK    1  A    between atoms: C_1  and  C_2
REMARK    2  A    between atoms: C_2  and  O_3
REMARK    3  A    between atoms: O_3  and  C_4
REMARK    4  A    between atoms: N_9  and  C_10
REMARK    5  A    between atoms: N_14  and  C_15
REMARK                            x       y       z     vdW  Elec       q    Type
REMARK                         _______ _______ _______ _____ _____    ______ ____
ROOT
ATOM      1  C   UNL     1       1.577   7.713  20.221  0.00  0.00    +0.000 A 
ATOM      2  C   UNL     1       2.281   7.846  19.094  0.00  0.00    +0.000 A 
ATOM      3  C   UNL     1       3.089   6.745  18.552  0.00  0.00    +0.000 A 
ATOM      4  O   UNL     1       3.611   6.975  17.466  0.00  0.00    +0.000 OA
ATOM      5  N   UNL     1       3.130   5.566  19.273  0.00  0.00    +0.000 N 
ATOM      6  C   UNL     1       2.425   5.448  20.466  0.00  0.00    +0.000 A 
ATOM      7  O   UNL     1       2.358   4.422  21.143  0.00  0.00    +0.000 OA
ATOM      8  N   UNL     1       1.716   6.534  20.885  0.00  0.00    +0.000 N 
ATOM      9  H   UNL     1       1.171   6.381  21.721  0.00  0.00    +0.000 HD
ENDROOT
BRANCH   1  15
ATOM     10  C   UNL     1      -1.245  11.817  22.485  0.00  0.00    +0.000 C 
ATOM     11  O   UNL     1      -2.110  11.579  23.319  0.00  0.00    +0.000 OA
ATOM     12  N   UNL     1      -0.210  10.959  22.188  0.00  0.00    +0.000 N 
ATOM     13  C   UNL     1      -0.173   9.631  22.802  0.00  0.00    +0.000 C 
ATOM     14  C   UNL     1      -0.279   8.514  21.743  0.00  0.00    +0.000 C 
ATOM     15  N   UNL     1       0.743   8.715  20.694  0.00  0.00    +0.000 N 
ATOM     16  C   UNL     1       0.635  10.050  20.046  0.00  0.00    +0.000 C 
ATOM     17  C   UNL     1       0.744  11.169  21.096  0.00  0.00    +0.000 C 
BRANCH  10  18
ATOM     18  O   UNL     1      -1.239  12.918  21.690  0.00  0.00    +0.000 OA
BRANCH  18  20
ATOM     19  C   UNL     1      -2.574  12.360  19.789  0.00  0.00    +0.000 C 
ATOM     20  C   UNL     1      -2.484  13.206  21.044  0.00  0.00    +0.000 C 
ENDBRANCH  18  20
ENDBRANCH  10  18
ENDBRANCH   1  15
BRANCH   5  21
ATOM     21  C   UNL     1       3.733   4.316  18.735  0.00  0.00    +0.000 C 
ATOM     22  C   UNL     1       3.689   4.072  17.212  0.00  0.00    +0.000 C 
ATOM     23  C   UNL     1       4.772   4.792  16.400  0.00  0.00    +0.000 C 
ATOM     24  C   UNL     1       6.168   4.731  17.007  0.00  0.00    +0.000 C 
ATOM     25  C   UNL     1       6.200   4.912  18.519  0.00  0.00    +0.000 C 
ATOM     26  C   UNL     1       5.170   4.043  19.224  0.00  0.00    +0.000 C 
ENDBRANCH   5  21
TORSDOF 4
ENDMDL
MODEL 5
REMARK VINA RESULT:      -7.2      1.109      1.921
REMARK  Name = 
REMARK  5 active torsions:
REMARK  status: ('A' for Active; 'I' for Inactive)
REMARK    1  A    between atoms: C_1  and  C_2
REMARK    2  A    between atoms: C_2  and  O_3
REMARK    3  A    between atoms: O_3  and  C_4
REMARK    4  A    between atoms: N_9  and  C_10
REMARK    5  A    between atoms: N_14  and  C_15
REMARK                            x       y       z     vdW  Elec       q    Type
REMARK                         _______ _______ _______ _____ _____    ______ ____
ROOT
ATOM      1  C   UNL     1       2.302   7.882  19.070  0.00  0.00    +0.000 A 
ATOM      2  C   UNL     1       3.019   7.944  17.947  0.00  0.00    +0.000 A 
ATOM      3  C   UNL     1       3.900   6.845  17.529  0.00  0.00    +0.000 A 
ATOM      4  O   UNL     1       4.430   6.997  16.433  0.00  0.00    +0.000 OA
ATOM      5  N   UNL     1       3.995   5.748  18.364  0.00  0.00    +0.000 N 
ATOM      6  C   UNL     1       3.273   5.706  19.553  0.00  0.00    +0.000 A 
ATOM      7  O   UNL     1       3.252   4.750  20.327  0.00  0.00    +0.000 OA
ATOM      8  N   UNL     1       2.494   6.784  19.850  0.00  0.00    +0.000 N 
ATOM      9  H   UNL     1       1.942   6.683  20.690  0.00  0.00    +0.000 HD
ENDROOT
BRANCH   1  15
ATOM     10  C   UNL     1      -0.749  12.122  20.697  0.00  0.00    +0.000 C 
ATOM     11  O   UNL     1      -1.375  12.060  21.748  0.00  0.00    +0.000 OA
ATOM     12  N   UNL     1       0.351  11.345  20.413  0.00  0.00    +0.000 N 
ATOM     13  C   UNL     1       0.757  10.295  21.349  0.00  0.00    +0.000 C 
ATOM     14  C   UNL     1       0.659   8.896  20.707  0.00  0.00    +0.000 C 
ATOM     15  N   UNL     1       1.401   8.874  19.429  0.00  0.00    +0.000 N 
ATOM     16  C   UNL     1       0.920   9.912  18.477  0.00  0.00    +0.000 C 
ATOM     17  C   UNL     1       1.018  11.310  19.108  0.00  0.00    +0.000 C 
BRANCH  10  18
ATOM     18  O   UNL     1      -1.105  12.906  19.647  0.00  0.00    +0.000 OA
BRANCH  18  20
ATOM     19  C   UNL     1      -0.100  14.920  18.849  0.00  0.00    +0.000 C 
ATOM     20  C   UNL     1      -1.024  14.314  19.887  0.00  0.00    +0.000 C 
ENDBRANCH  18  20
ENDBRANCH  10  18
ENDBRANCH   1  15
BRANCH   5  21
ATOM     21  C   UNL     1       4.679   4.489  17.962  0.00  0.00    +0.000 C 
ATOM     22  C   UNL     1       4.567   4.024  16.495  0.00  0.00    +0.000 C 
ATOM     23  C   UNL     1       5.527   4.708  15.515  0.00  0.00    +0.000 C 
ATOM     24  C   UNL     1       6.956   4.853  16.021  0.00  0.00    +0.000 C 
ATOM     25  C   UNL     1       7.062   5.253  17.487  0.00  0.00    +0.000 C 
ATOM     26  C   UNL     1       6.162   4.412  18.379  0.00  0.00    +0.000 C 
ENDBRANCH   5  21
TORSDOF 4
ENDMDL
MODEL 6
REMARK VINA RESULT:      -7.1      1.227      1.747
REMARK  Name = 
REMARK  5 active torsions:
REMARK  status: ('A' for Active; 'I' for Inactive)
REMARK    1  A    between atoms: C_1  and  C_2
REMARK    2  A    between atoms: C_2  and  O_3
REMARK    3  A    between atoms: O_3  and  C_4
REMARK    4  A    between atoms: N_9  and  C_10
REMARK    5  A    between atoms: N_14  and  C_15
REMARK                            x       y       z     vdW  Elec       q    Type
REMARK                         _______ _______ _______ _____ _____    ______ ____
ROOT
ATOM      1  C   UNL     1       2.477   7.467  19.362  0.00  0.00    +0.000 A 
ATOM      2  C   UNL     1       3.096   7.702  18.204  0.00  0.00    +0.000 A 
ATOM      3  C   UNL     1       4.006   6.720  17.600  0.00  0.00    +0.000 A 
ATOM      4  O   UNL     1       4.436   7.029  16.493  0.00  0.00    +0.000 OA
ATOM      5  N   UNL     1       4.234   5.547  18.294  0.00  0.00    +0.000 N 
ATOM      6  C   UNL     1       3.614   5.324  19.519  0.00  0.00    +0.000 A 
ATOM      7  O   UNL     1       3.714   4.290  20.178  0.00  0.00    +0.000 OA
ATOM      8  N   UNL     1       2.798   6.306  19.995  0.00  0.00    +0.000 N 
ATOM      9  H   UNL     1       2.322   6.075  20.855  0.00  0.00    +0.000 HD
ENDROOT
BRANCH   1  15
ATOM     10  C   UNL     1      -0.687  11.289  21.669  0.00  0.00    +0.000 C 
ATOM     11  O   UNL     1      -1.198  11.083  22.763  0.00  0.00    +0.000 OA
ATOM     12  N   UNL     1       0.432  10.630  21.210  0.00  0.00    +0.000 N 
ATOM     13  C   UNL     1       1.002   9.536  21.997  0.00  0.00    +0.000 C 
ATOM     14  C   UNL     1       0.939   8.197  21.236  0.00  0.00    +0.000 C 
ATOM     15  N   UNL     1       1.549   8.348  19.897  0.00  0.00    +0.000 N 
ATOM     16  C   UNL     1       0.904   9.426  19.099  0.00  0.00    +0.000 C 
ATOM     17  C   UNL     1       0.966  10.765  19.851  0.00  0.00    +0.000 C 
BRANCH  10  18
ATOM     18  O   UNL     1      -1.200  12.133  20.737  0.00  0.00    +0.000 OA
BRANCH  18  20
ATOM     19  C   UNL     1      -3.154  13.499  20.890  0.00  0.00    +0.000 C 
ATOM     20  C   UNL     1      -1.686  13.378  21.250  0.00  0.00    +0.000 C 
ENDBRANCH  18  20
ENDBRANCH  10  18
ENDBRANCH   1  15
BRANCH   5  21
ATOM     21  C   UNL     1       4.959   4.390  17.701  0.00  0.00    +0.000 C 
ATOM     22  C   UNL     1       4.697   4.034  16.222  0.00  0.00    +0.000 C 
ATOM     23  C   UNL     1       5.465   4.878  15.198  0.00  0.00    +0.000 C 
ATOM     24  C   UNL     1       6.931   5.111  15.537  0.00  0.00    +0.000 C 
ATOM     25  C   UNL     1       7.192   5.403  17.009  0.00  0.00    +0.000 C 
ATOM     26  C   UNL     1       6.485   4.416  17.926  0.00  0.00    +0.000 C 
ENDBRANCH   5  21
TORSDOF 4
ENDMDL
MODEL 7
REMARK VINA RESULT:      -7.0      1.661      3.080
REMARK  Name = 
REMARK  5 active torsions:
REMARK  status: ('A' for Active; 'I' for Inactive)
REMARK    1  A    between atoms: C_1  and  C_2
REMARK    2  A    between atoms: C_2  and  O_3
REMARK    3  A    between atoms: O_3  and  C_4
REMARK    4  A    between atoms: N_9  and  C_10
REMARK    5  A    between atoms: N_14  and  C_15
REMARK                            x       y       z     vdW  Elec       q    Type
REMARK                         _______ _______ _______ _____ _____    ______ ____
ROOT
ATOM      1  C   UNL     1       1.525   7.721  20.053  0.00  0.00    +0.000 A 
ATOM      2  C   UNL     1       1.599   6.519  20.629  0.00  0.00    +0.000 A 
ATOM      3  C   UNL     1       2.477   5.463  20.108  0.00  0.00    +0.000 A 
ATOM      4  O   UNL     1       2.514   4.442  20.786  0.00  0.00    +0.000 OA
ATOM      5  N   UNL     1       3.204   5.741  18.966  0.00  0.00    +0.000 N 
ATOM      6  C   UNL     1       3.094   6.983  18.348  0.00  0.00    +0.000 A 
ATOM      7  O   UNL     1       3.742   7.337  17.364  0.00  0.00    +0.000 OA
ATOM      8  N   UNL     1       2.242   7.887  18.908  0.00  0.00    +0.000 N 
ATOM      9  H   UNL     1       2.241   8.793  18.463  0.00  0.00    +0.000 HD
ENDROOT
BRANCH   1  15
ATOM     10  C   UNL     1      -0.966  11.912  22.534  0.00  0.00    +0.000 C 
ATOM     11  O   UNL     1      -1.794  11.702  23.411  0.00  0.00    +0.000 OA
ATOM     12  N   UNL     1       0.008  11.012  22.166  0.00  0.00    +0.000 N 
ATOM     13  C   UNL     1       0.016   9.672  22.757  0.00  0.00    +0.000 C 
ATOM     14  C   UNL     1      -0.203   8.581  21.689  0.00  0.00    +0.000 C 
ATOM     15  N   UNL     1       0.767   8.752  20.587  0.00  0.00    +0.000 N 
ATOM     16  C   UNL     1       0.689  10.102  19.967  0.00  0.00    +0.000 C 
ATOM     17  C   UNL     1       0.910  11.196  21.025  0.00  0.00    +0.000 C 
BRANCH  10  18
ATOM     18  O   UNL     1      -0.951  13.026  21.756  0.00  0.00    +0.000 OA
BRANCH  18  20
ATOM     19  C   UNL     1      -2.470  12.609  19.961  0.00  0.00    +0.000 C 
ATOM     20  C   UNL     1      -2.222  13.411  21.224  0.00  0.00    +0.000 C 
ENDBRANCH  18  20
ENDBRANCH  10  18
ENDBRANCH   1  15
BRANCH   5  21
ATOM     21  C   UNL     1       4.279   4.845  18.460  0.00  0.00    +0.000 C 
ATOM     22  C   UNL     1       4.931   3.847  19.440  0.00  0.00    +0.000 C 
ATOM     23  C   UNL     1       4.142   2.554  19.680  0.00  0.00    +0.000 C 
ATOM     24  C   UNL     1       3.568   1.916  18.422  0.00  0.00    +0.000 C 
ATOM     25  C   UNL     1       2.981   2.911  17.430  0.00  0.00    +0.000 C 
ATOM     26  C   UNL     1       3.915   4.083  17.169  0.00  0.00    +0.000 C 
ENDBRANCH   5  21
TORSDOF 4
ENDMDL
MODEL 8
REMARK VINA RESULT:      -6.9      2.074      8.451
REMARK  Name = 
REMARK  5 active torsions:
REMARK  status: ('A' for Active; 'I' for Inactive)
REMARK    1  A    between atoms: C_1  and  C_2
REMARK    2  A    between atoms: C_2  and  O_3
REMARK    3  A    between atoms: O_3  and  C_4
REMARK    4  A    between atoms: N_9  and  C_10
REMARK    5  A    between atoms: N_14  and  C_15
REMARK                            x       y       z     vdW  Elec       q    Type
REMARK                         _______ _______ _______ _____ _____    ______ ____
ROOT
ATOM      1  C   UNL     1       1.742   8.173  19.771  0.00  0.00    +0.000 A 
ATOM      2  C   UNL     1       1.320   9.172  18.994  0.00  0.00    +0.000 A 
ATOM      3  C   UNL     1       0.791  10.421  19.558  0.00  0.00    +0.000 A 
ATOM      4  O   UNL     1       0.523  11.287  18.732  0.00  0.00    +0.000 OA
ATOM      5  N   UNL     1       0.707  10.516  20.934  0.00  0.00    +0.000 N 
ATOM      6  C   UNL     1       1.114   9.456  21.738  0.00  0.00    +0.000 A 
ATOM      7  O   UNL     1       1.128   9.473  22.968  0.00  0.00    +0.000 OA
ATOM      8  N   UNL     1       1.578   8.339  21.111  0.00  0.00    +0.000 N 
ATOM      9  H   UNL     1       1.920   7.620  21.734  0.00  0.00    +0.000 HD
ENDROOT
BRANCH   1  15
ATOM     10  C   UNL     1       4.565   3.825  18.023  0.00  0.00    +0.000 C 
ATOM     11  O   UNL     1       5.020   3.805  16.885  0.00  0.00    +0.000 OA
ATOM     12  N   UNL     1       4.243   4.979  18.699  0.00  0.00    +0.000 N 
ATOM     13  C   UNL     1       4.328   6.269  18.013  0.00  0.00    +0.000 C 
ATOM     14  C   UNL     1       2.947   6.949  17.912  0.00  0.00    +0.000 C 
ATOM     15  N   UNL     1       2.324   7.026  19.250  0.00  0.00    +0.000 N 
ATOM     16  C   UNL     1       2.194   5.691  19.893  0.00  0.00    +0.000 C 
ATOM     17  C   UNL     1       3.568   5.008  20.001  0.00  0.00    +0.000 C 
BRANCH  10  18
ATOM     18  O   UNL     1       4.247   2.711  18.732  0.00  0.00    +0.000 OA
BRANCH  18  20
ATOM     19  C   UNL     1       1.968   2.239  18.197  0.00  0.00    +0.000 C 
ATOM     20  C   UNL     1       3.404   1.778  18.048  0.00  0.00    +0.000 C 
ENDBRANCH  18  20
ENDBRANCH  10  18
ENDBRANCH   1  15
BRANCH   5  21
ATOM     21  C   UNL     1       0.392  11.792  21.634  0.00  0.00    +0.000 C 
ATOM     22  C   UNL     1       0.841  13.119  20.987  0.00  0.00    +0.000 C 
ATOM     23  C   UNL     1      -0.075  13.650  19.877  0.00  0.00    +0.000 C 
ATOM     24  C   UNL     1      -1.563  13.574  20.190  0.00  0.00    +0.000 C 
ATOM     25  C   UNL     1      -1.991  12.288  20.884  0.00  0.00    +0.000 C 
ATOM     26  C   UNL     1      -1.085  11.937  22.054  0.00  0.00    +0.000 C 
ENDBRANCH   5  21
TORSDOF 4
ENDMDL
MODEL 9
REMARK VINA RESULT:      -6.9      1.801      2.871
REMARK  Name = 
REMARK  5 active torsions:
REMARK  status: ('A' for Active; 'I' for Inactive)
REMARK    1  A    between atoms: C_1  and  C_2
REMARK    2  A    between atoms: C_2  and  O_3
REMARK    3  A    between atoms: O_3  and  C_4
REMARK    4  A    between atoms: N_9  and  C_10
REMARK    5  A    between atoms: N_14  and  C_15
REMARK                            x       y       z     vdW  Elec       q    Type
REMARK                         _______ _______ _______ _____ _____    ______ ____
ROOT
ATOM      1  C   UNL     1       1.665   7.508  20.365  0.00  0.00    +0.000 A 
ATOM      2  C   UNL     1       2.420   7.552  19.265  0.00  0.00    +0.000 A 
ATOM      3  C   UNL     1       3.245   6.411  18.846  0.00  0.00    +0.000 A 
ATOM      4  O   UNL     1       3.818   6.556  17.771  0.00  0.00    +0.000 OA
ATOM      5  N   UNL     1       3.245   5.290  19.655  0.00  0.00    +0.000 N 
ATOM      6  C   UNL     1       2.485   5.265  20.820  0.00  0.00    +0.000 A 
ATOM      7  O   UNL     1       2.381   4.294  21.568  0.00  0.00    +0.000 OA
ATOM      8  N   UNL     1       1.765   6.382  21.122  0.00  0.00    +0.000 N 
ATOM      9  H   UNL     1       1.182   6.295  21.941  0.00  0.00    +0.000 HD
ENDROOT
BRANCH   1  15
ATOM     10  C   UNL     1      -1.221  11.793  22.164  0.00  0.00    +0.000 C 
ATOM     11  O   UNL     1      -2.103  11.632  22.999  0.00  0.00    +0.000 OA
ATOM     12  N   UNL     1      -0.177  10.917  21.973  0.00  0.00    +0.000 N 
ATOM     13  C   UNL     1      -0.147   9.654  22.712  0.00  0.00    +0.000 C 
ATOM     14  C   UNL     1      -0.226   8.440  21.764  0.00  0.00    +0.000 C 
ATOM     15  N   UNL     1       0.817   8.545  20.722  0.00  0.00    +0.000 N 
ATOM     16  C   UNL     1       0.718   9.812  19.946  0.00  0.00    +0.000 C 
ATOM     17  C   UNL     1       0.800  11.027  20.885  0.00  0.00    +0.000 C 
BRANCH  10  18
ATOM     18  O   UNL     1      -1.203  12.813  21.267  0.00  0.00    +0.000 OA
BRANCH  18  20
ATOM     19  C   UNL     1      -2.506  12.105  19.395  0.00  0.00    +0.000 C 
ATOM     20  C   UNL     1      -2.440  13.042  20.585  0.00  0.00    +0.000 C 
ENDBRANCH  18  20
ENDBRANCH  10  18
ENDBRANCH   1  15
BRANCH   5  21
ATOM     21  C   UNL     1       3.863   4.001  19.241  0.00  0.00    +0.000 C 
ATOM     22  C   UNL     1       3.386   2.702  19.923  0.00  0.00    +0.000 C 
ATOM     23  C   UNL     1       2.085   2.110  19.367  0.00  0.00    +0.000 C 
ATOM     24  C   UNL     1       1.991   2.093  17.847  0.00  0.00    +0.000 C 
ATOM     25  C   UNL     1       2.520   3.354  17.176  0.00  0.00    +0.000 C 
ATOM     26  C   UNL     1       3.881   3.766  17.716  0.00  0.00    +0.000 C 
ENDBRANCH   5  21
TORSDOF 4
ENDMDL
