MODEL 1
REMARK VINA RESULT:      -7.4      0.000      0.000
REMARK  Name = 
REMARK  5 active torsions:
REMARK  status: ('A' for Active; 'I' for Inactive)
REMARK    1  A    between atoms: C_1  and  O_2
REMARK    2  A    between atoms: O_2  and  C_3
REMARK    3  A    between atoms: C_5  and  C_6
REMARK    4  A    between atoms: C_8  and  C_9
REMARK    5  A    between atoms: C_20  and  O_21
REMARK                            x       y       z     vdW  Elec       q    Type
REMARK                         _______ _______ _______ _____ _____    ______ ____
ROOT
ATOM      1  C   UNL     1       2.999   6.662  17.859  0.00  0.00    +0.000 C 
ATOM      2  C   UNL     1       2.299   6.875  19.198  0.00  0.00    +0.000 C 
ATOM      3  C   UNL     1       1.854   8.306  19.053  0.00  0.00    +0.000 C 
ATOM      4  N   UNL     1       2.200   8.881  17.939  0.00  0.00    +0.000 NA
ATOM      5  N   UNL     1       3.006   8.010  17.297  0.00  0.00    +0.000 N 
ATOM      6  H   UNL     1       2.954   8.045  16.281  0.00  0.00    +0.000 HD
ENDROOT
BRANCH   3   7
ATOM      7  C   UNL     1       1.072   8.983  20.111  0.00  0.00    +0.000 A 
ATOM      8  C   UNL     1       1.106   8.530  21.436  0.00  0.00    +0.000 A 
ATOM      9  C   UNL     1       0.375   9.197  22.423  0.00  0.00    +0.000 A 
ATOM     10  C   UNL     1      -0.385  10.316  22.089  0.00  0.00    +0.000 A 
ATOM     11 CL   UNL     1      -1.285  11.130  23.308  0.00  0.00    +0.000 Cl
ATOM     12  C   UNL     1      -0.419  10.779  20.775  0.00  0.00    +0.000 A 
ATOM     13  C   UNL     1       0.311  10.114  19.785  0.00  0.00    +0.000 A 
ENDBRANCH   3   7
BRANCH   1  16
ATOM     14  C   UNL     1       6.590   5.598  17.014  0.00  0.00    +0.000 A 
ATOM     15  C   UNL     1       5.291   6.113  16.915  0.00  0.00    +0.000 A 
ATOM     16  C   UNL     1       4.395   6.100  18.000  0.00  0.00    +0.000 A 
ATOM     17  C   UNL     1       4.830   5.560  19.213  0.00  0.00    +0.000 A 
ATOM     18  C   UNL     1       6.119   5.033  19.327  0.00  0.00    +0.000 A 
ATOM     19  C   UNL     1       6.993   5.048  18.232  0.00  0.00    +0.000 A 
BRANCH  14  21
ATOM     20  C   UNL     1       6.978   4.849  14.776  0.00  0.00    +0.000 C 
ATOM     21  O   UNL     1       7.296   5.720  15.850  0.00  0.00    +0.000 OA
ENDBRANCH  14  21
BRANCH  19  22
ATOM     22  O   UNL     1       8.239   4.507  18.395  0.00  0.00    +0.000 OA
ATOM     23  H   UNL     1       8.166   3.539  18.415  0.00  0.00    +0.000 HD
ENDBRANCH  19  22
ENDBRANCH   1  16
TORSDOF 4
ENDMDL
MODEL 2
REMARK VINA RESULT:      -7.3      4.924      7.979
REMARK  Name = 
REMARK  5 active torsions:
REMARK  status: ('A' for Active; 'I' for Inactive)
REMARK    1  A    between atoms: C_1  and  O_2
REMARK    2  A    between atoms: O_2  and  C_3
REMARK    3  A    between atoms: C_5  and  C_6
REMARK    4  A    between atoms: C_8  and  C_9
REMARK    5  A    between atoms: C_20  and  O_21
REMARK                            x       y       z     vdW  Elec       q    Type
REMARK                         _______ _______ _______ _____ _____    ______ ____
ROOT
ATOM      1  C   UNL     1       1.145  10.237  18.856  0.00  0.00    +0.000 C 
ATOM      2  C   UNL     1       1.254   8.922  19.623  0.00  0.00    +0.000 C 
ATOM      3  C   UNL     1       2.125   8.128  18.685  0.00  0.00    +0.000 C 
ATOM      4  N   UNL     1       2.461   8.743  17.590  0.00  0.00    +0.000 NA
ATOM      5  N   UNL     1       1.775   9.905  17.581  0.00  0.00    +0.000 N 
ATOM      6  H   UNL     1       2.252  10.682  17.129  0.00  0.00    +0.000 HD
ENDROOT
BRANCH   3   7
ATOM      7  C   UNL     1       2.560   6.752  19.014  0.00  0.00    +0.000 A 
ATOM      8  C   UNL     1       2.098   6.105  20.166  0.00  0.00    +0.000 A 
ATOM      9  C   UNL     1       2.506   4.798  20.447  0.00  0.00    +0.000 A 
ATOM     10  C   UNL     1       3.371   4.137  19.577  0.00  0.00    +0.000 A 
ATOM     11 CL   UNL     1       3.872   2.531  19.929  0.00  0.00    +0.000 Cl
ATOM     12  C   UNL     1       3.830   4.771  18.422  0.00  0.00    +0.000 A 
ATOM     13  C   UNL     1       3.423   6.078  18.140  0.00  0.00    +0.000 A 
ENDBRANCH   3   7
BRANCH   1  16
ATOM     14  C   UNL     1      -2.431  10.556  17.497  0.00  0.00    +0.000 A 
ATOM     15  C   UNL     1      -1.107  10.141  17.688  0.00  0.00    +0.000 A 
ATOM     16  C   UNL     1      -0.281  10.705  18.678  0.00  0.00    +0.000 A 
ATOM     17  C   UNL     1      -0.814  11.705  19.496  0.00  0.00    +0.000 A 
ATOM     18  C   UNL     1      -2.130  12.137  19.314  0.00  0.00    +0.000 A 
ATOM     19  C   UNL     1      -2.933  11.569  18.316  0.00  0.00    +0.000 A 
BRANCH  14  21
ATOM     20  C   UNL     1      -3.039  10.430  15.187  0.00  0.00    +0.000 C 
ATOM     21  O   UNL     1      -3.058   9.873  16.492  0.00  0.00    +0.000 OA
ENDBRANCH  14  21
BRANCH  19  22
ATOM     22  O   UNL     1      -4.210  12.038  18.172  0.00  0.00    +0.000 OA
ATOM     23  H   UNL     1      -4.827  11.289  18.174  0.00  0.00    +0.000 HD
ENDBRANCH  19  22
ENDBRANCH   1  16
TORSDOF 4
ENDMDL
MODEL 3
REMARK VINA RESULT:      -7.3      0.202      1.052
REMARK  Name = 
REMARK  5 active torsions:
REMARK  status: ('A' for Active; 'I' for Inactive)
REMARK    1  A    between atoms: C_1  and  O_2
REMARK    2  A    between atoms: O_2  and  C_3
REMARK    3  A    between atoms: C_5  and  C_6
REMARK    4  A    between atoms: C_8  and  C_9
REMARK    5  A    between atoms: C_20  and  O_21
REMARK                            x       y       z     vdW  Elec       q    Type
REMARK                         _______ _______ _______ _____ _____    ______ ____
ROOT
ATOM      1  C   UNL     1       2.906   6.716  17.883  0.00  0.00    +0.000 C 
ATOM      2  C   UNL     1       2.233   6.986  19.226  0.00  0.00    +0.000 C 
ATOM      3  C   UNL     1       1.805   8.418  19.038  0.00  0.00    +0.000 C 
ATOM      4  N   UNL     1       2.138   8.948  17.899  0.00  0.00    +0.000 NA
ATOM      5  N   UNL     1       2.921   8.044  17.273  0.00  0.00    +0.000 N 
ATOM      6  H   UNL     1       2.850   8.044  16.258  0.00  0.00    +0.000 HD
ENDROOT
BRANCH   3   7
ATOM      7  C   UNL     1       1.052   9.142  20.086  0.00  0.00    +0.000 A 
ATOM      8  C   UNL     1       0.578  10.441  19.868  0.00  0.00    +0.000 A 
ATOM      9  C   UNL     1      -0.149  11.099  20.864  0.00  0.00    +0.000 A 
ATOM     10  C   UNL     1      -0.405  10.458  22.075  0.00  0.00    +0.000 A 
ATOM     11 CL   UNL     1      -1.296  11.273  23.299  0.00  0.00    +0.000 Cl
ATOM     12  C   UNL     1       0.055   9.161  22.298  0.00  0.00    +0.000 A 
ATOM     13  C   UNL     1       0.783   8.501  21.303  0.00  0.00    +0.000 A 
ENDBRANCH   3   7
BRANCH   1  16
ATOM     14  C   UNL     1       6.498   5.659  17.038  0.00  0.00    +0.000 A 
ATOM     15  C   UNL     1       5.204   6.187  16.943  0.00  0.00    +0.000 A 
ATOM     16  C   UNL     1       4.296   6.141  18.018  0.00  0.00    +0.000 A 
ATOM     17  C   UNL     1       4.714   5.554  19.215  0.00  0.00    +0.000 A 
ATOM     18  C   UNL     1       5.999   5.014  19.324  0.00  0.00    +0.000 A 
ATOM     19  C   UNL     1       6.885   5.063  18.240  0.00  0.00    +0.000 A 
BRANCH  14  21
ATOM     20  C   UNL     1       7.020   4.885  14.836  0.00  0.00    +0.000 C 
ATOM     21  O   UNL     1       7.218   5.818  15.886  0.00  0.00    +0.000 OA
ENDBRANCH  14  21
BRANCH  19  22
ATOM     22  O   UNL     1       8.126   4.508  18.396  0.00  0.00    +0.000 OA
ATOM     23  H   UNL     1       8.744   4.934  17.781  0.00  0.00    +0.000 HD
ENDBRANCH  19  22
ENDBRANCH   1  16
TORSDOF 4
ENDMDL
MODEL 4
REMARK VINA RESULT:      -7.3      4.937      8.049
REMARK  Name = 
REMARK  5 active torsions:
REMARK  status: ('A' for Active; 'I' for Inactive)
REMARK    1  A    between atoms: C_1  and  O_2
REMARK    2  A    between atoms: O_2  and  C_3
REMARK    3  A    between atoms: C_5  and  C_6
REMARK    4  A    between atoms: C_8  and  C_9
REMARK    5  A    between atoms: C_20  and  O_21
REMARK                            x       y       z     vdW  Elec       q    Type
REMARK                         _______ _______ _______ _____ _____    ______ ____
ROOT
ATOM      1  C   UNL     1       1.099  10.289  18.900  0.00  0.00    +0.000 C 
ATOM      2  C   UNL     1       1.208   8.918  19.561  0.00  0.00    +0.000 C 
ATOM      3  C   UNL     1       2.134   8.221  18.599  0.00  0.00    +0.000 C 
ATOM      4  N   UNL     1       2.499   8.930  17.572  0.00  0.00    +0.000 NA
ATOM      5  N   UNL     1       1.787  10.075  17.630  0.00  0.00    +0.000 N 
ATOM      6  H   UNL     1       2.264  10.896  17.263  0.00  0.00    +0.000 HD
ENDROOT
BRANCH   3   7
ATOM      7  C   UNL     1       2.586   6.831  18.833  0.00  0.00    +0.000 A 
ATOM      8  C   UNL     1       3.377   6.160  17.892  0.00  0.00    +0.000 A 
ATOM      9  C   UNL     1       3.810   4.856  18.143  0.00  0.00    +0.000 A 
ATOM     10  C   UNL     1       3.457   4.223  19.334  0.00  0.00    +0.000 A 
ATOM     11 CL   UNL     1       3.990   2.616  19.636  0.00  0.00    +0.000 Cl
ATOM     12  C   UNL     1       2.677   4.886  20.281  0.00  0.00    +0.000 A 
ATOM     13  C   UNL     1       2.243   6.191  20.031  0.00  0.00    +0.000 A 
ENDBRANCH   3   7
BRANCH   1  16
ATOM     14  C   UNL     1      -2.459  10.572  17.487  0.00  0.00    +0.000 A 
ATOM     15  C   UNL     1      -1.133  10.172  17.697  0.00  0.00    +0.000 A 
ATOM     16  C   UNL     1      -0.328  10.742  18.702  0.00  0.00    +0.000 A 
ATOM     17  C   UNL     1      -0.884  11.734  19.513  0.00  0.00    +0.000 A 
ATOM     18  C   UNL     1      -2.203  12.152  19.312  0.00  0.00    +0.000 A 
ATOM     19  C   UNL     1      -2.984  11.578  18.301  0.00  0.00    +0.000 A 
BRANCH  14  21
ATOM     20  C   UNL     1      -3.051  10.456  15.173  0.00  0.00    +0.000 C 
ATOM     21  O   UNL     1      -3.063   9.885  16.471  0.00  0.00    +0.000 OA
ENDBRANCH  14  21
BRANCH  19  22
ATOM     22  O   UNL     1      -4.264  12.034  18.138  0.00  0.00    +0.000 OA
ATOM     23  H   UNL     1      -4.700  12.075  19.004  0.00  0.00    +0.000 HD
ENDBRANCH  19  22
ENDBRANCH   1  16
TORSDOF 4
ENDMDL
MODEL 5
REMARK VINA RESULT:      -7.1      0.908      1.567
REMARK  Name = 
REMARK  5 active torsions:
REMARK  status: ('A' for Active; 'I' for Inactive)
REMARK    1  A    between atoms: C_1  and  O_2
REMARK    2  A    between atoms: O_2  and  C_3
REMARK    3  A    between atoms: C_5  and  C_6
REMARK    4  A    between atoms: C_8  and  C_9
REMARK    5  A    between atoms: C_20  and  O_21
REMARK                            x       y       z     vdW  Elec       q    Type
REMARK                         _______ _______ _______ _____ _____    ______ ____
ROOT
ATOM      1  C   UNL     1       2.870   6.752  17.920  0.00  0.00    +0.000 C 
ATOM      2  C   UNL     1       2.175   6.997  19.256  0.00  0.00    +0.000 C 
ATOM      3  C   UNL     1       1.753   8.433  19.088  0.00  0.00    +0.000 C 
ATOM      4  N   UNL     1       2.108   8.985  17.966  0.00  0.00    +0.000 NA
ATOM      5  N   UNL     1       2.899   8.092  17.337  0.00  0.00    +0.000 N 
ATOM      6  H   UNL     1       2.846   8.112  16.321  0.00  0.00    +0.000 HD
ENDROOT
BRANCH   3   7
ATOM      7  C   UNL     1       0.983   9.138  20.137  0.00  0.00    +0.000 A 
ATOM      8  C   UNL     1       0.233  10.282  19.837  0.00  0.00    +0.000 A 
ATOM      9  C   UNL     1      -0.504  10.920  20.839  0.00  0.00    +0.000 A 
ATOM     10  C   UNL     1      -0.493  10.415  22.138  0.00  0.00    +0.000 A 
ATOM     11 CL   UNL     1      -1.398  11.207  23.367  0.00  0.00    +0.000 Cl
ATOM     12  C   UNL     1       0.244   9.272  22.445  0.00  0.00    +0.000 A 
ATOM     13  C   UNL     1       0.981   8.632  21.444  0.00  0.00    +0.000 A 
ENDBRANCH   3   7
BRANCH   1  16
ATOM     14  C   UNL     1       6.672   6.305  17.633  0.00  0.00    +0.000 A 
ATOM     15  C   UNL     1       5.376   6.821  17.514  0.00  0.00    +0.000 A 
ATOM     16  C   UNL     1       4.257   6.171  18.068  0.00  0.00    +0.000 A 
ATOM     17  C   UNL     1       4.461   4.976  18.764  0.00  0.00    +0.000 A 
ATOM     18  C   UNL     1       5.748   4.443  18.885  0.00  0.00    +0.000 A 
ATOM     19  C   UNL     1       6.847   5.101  18.318  0.00  0.00    +0.000 A 
BRANCH  14  21
ATOM     20  C   UNL     1       7.896   8.360  17.613  0.00  0.00    +0.000 C 
ATOM     21  O   UNL     1       7.613   7.097  17.034  0.00  0.00    +0.000 OA
ENDBRANCH  14  21
BRANCH  19  22
ATOM     22  O   UNL     1       8.082   4.528  18.454  0.00  0.00    +0.000 OA
ATOM     23  H   UNL     1       8.127   4.069  19.308  0.00  0.00    +0.000 HD
ENDBRANCH  19  22
ENDBRANCH   1  16
TORSDOF 4
ENDMDL
MODEL 6
REMARK VINA RESULT:      -7.1      5.159      8.222
REMARK  Name = 
REMARK  5 active torsions:
REMARK  status: ('A' for Active; 'I' for Inactive)
REMARK    1  A    between atoms: C_1  and  O_2
REMARK    2  A    between atoms: O_2  and  C_3
REMARK    3  A    between atoms: C_5  and  C_6
REMARK    4  A    between atoms: C_8  and  C_9
REMARK    5  A    between atoms: C_20  and  O_21
REMARK                            x       y       z     vdW  Elec       q    Type
REMARK                         _______ _______ _______ _____ _____    ______ ____
ROOT
ATOM      1  C   UNL     1       0.137  10.585  18.937  0.00  0.00    +0.000 C 
ATOM      2  C   UNL     1       0.473   9.145  19.316  0.00  0.00    +0.000 C 
ATOM      3  C   UNL     1       1.764   8.956  18.563  0.00  0.00    +0.000 C 
ATOM      4  N   UNL     1       2.146   9.978  17.858  0.00  0.00    +0.000 NA
ATOM      5  N   UNL     1       1.143  10.879  17.920  0.00  0.00    +0.000 N 
ATOM      6  H   UNL     1       1.438  11.853  17.885  0.00  0.00    +0.000 HD
ENDROOT
BRANCH   3   7
ATOM      7  C   UNL     1       2.526   7.690  18.646  0.00  0.00    +0.000 A 
ATOM      8  C   UNL     1       2.325   6.792  19.701  0.00  0.00    +0.000 A 
ATOM      9  C   UNL     1       3.041   5.593  19.748  0.00  0.00    +0.000 A 
ATOM     10  C   UNL     1       3.956   5.290  18.741  0.00  0.00    +0.000 A 
ATOM     11 CL   UNL     1       4.837   3.815  18.806  0.00  0.00    +0.000 Cl
ATOM     12  C   UNL     1       4.157   6.174  17.682  0.00  0.00    +0.000 A 
ATOM     13  C   UNL     1       3.441   7.374  17.633  0.00  0.00    +0.000 A 
ENDBRANCH   3   7
BRANCH   1  16
ATOM     14  C   UNL     1      -2.977  10.208  16.724  0.00  0.00    +0.000 A 
ATOM     15  C   UNL     1      -1.683  10.074  17.241  0.00  0.00    +0.000 A 
ATOM     16  C   UNL     1      -1.268  10.748  18.406  0.00  0.00    +0.000 A 
ATOM     17  C   UNL     1      -2.190  11.567  19.062  0.00  0.00    +0.000 A 
ATOM     18  C   UNL     1      -3.484  11.719  18.554  0.00  0.00    +0.000 A 
ATOM     19  C   UNL     1      -3.874  11.047  17.388  0.00  0.00    +0.000 A 
BRANCH  14  21
ATOM     20  C   UNL     1      -3.222  10.131  14.346  0.00  0.00    +0.000 C 
ATOM     21  O   UNL     1      -3.174   9.461  15.595  0.00  0.00    +0.000 OA
ENDBRANCH  14  21
BRANCH  19  22
ATOM     22  O   UNL     1      -5.147  11.242  16.927  0.00  0.00    +0.000 OA
ATOM     23  H   UNL     1      -5.633  11.796  17.559  0.00  0.00    +0.000 HD
ENDBRANCH  19  22
ENDBRANCH   1  16
TORSDOF 4
ENDMDL
MODEL 7
REMARK VINA RESULT:      -7.1      0.960      1.186
REMARK  Name = 
REMARK  5 active torsions:
REMARK  status: ('A' for Active; 'I' for Inactive)
REMARK    1  A    between atoms: C_1  and  O_2
REMARK    2  A    between atoms: O_2  and  C_3
REMARK    3  A    between atoms: C_5  and  C_6
REMARK    4  A    between atoms: C_8  and  C_9
REMARK    5  A    between atoms: C_20  and  O_21
REMARK                            x       y       z     vdW  Elec       q    Type
REMARK                         _______ _______ _______ _____ _____    ______ ____
ROOT
ATOM      1  C   UNL     1       2.767   6.799  18.054  0.00  0.00    +0.000 C 
ATOM      2  C   UNL     1       2.097   7.098  19.392  0.00  0.00    +0.000 C 
ATOM      3  C   UNL     1       1.642   8.516  19.163  0.00  0.00    +0.000 C 
ATOM      4  N   UNL     1       1.961   9.017  18.006  0.00  0.00    +0.000 NA
ATOM      5  N   UNL     1       2.755   8.107  17.404  0.00  0.00    +0.000 N 
ATOM      6  H   UNL     1       2.680   8.075  16.390  0.00  0.00    +0.000 HD
ENDROOT
BRANCH   3   7
ATOM      7  C   UNL     1       0.882   9.258  20.193  0.00  0.00    +0.000 A 
ATOM      8  C   UNL     1       0.793   8.785  21.507  0.00  0.00    +0.000 A 
ATOM      9  C   UNL     1       0.087   9.513  22.469  0.00  0.00    +0.000 A 
ATOM     10  C   UNL     1      -0.527  10.714  22.118  0.00  0.00    +0.000 A 
ATOM     11 CL   UNL     1      -1.397  11.604  23.304  0.00  0.00    +0.000 Cl
ATOM     12  C   UNL     1      -0.437  11.198  20.814  0.00  0.00    +0.000 A 
ATOM     13  C   UNL     1       0.269  10.471  19.851  0.00  0.00    +0.000 A 
ENDBRANCH   3   7
BRANCH   1  16
ATOM     14  C   UNL     1       6.565   6.393  17.679  0.00  0.00    +0.000 A 
ATOM     15  C   UNL     1       5.257   6.879  17.565  0.00  0.00    +0.000 A 
ATOM     16  C   UNL     1       4.167   6.252  18.199  0.00  0.00    +0.000 A 
ATOM     17  C   UNL     1       4.415   5.113  18.970  0.00  0.00    +0.000 A 
ATOM     18  C   UNL     1       5.713   4.610  19.087  0.00  0.00    +0.000 A 
ATOM     19  C   UNL     1       6.783   5.244  18.441  0.00  0.00    +0.000 A 
BRANCH  14  21
ATOM     20  C   UNL     1       7.951   8.341  17.608  0.00  0.00    +0.000 C 
ATOM     21  O   UNL     1       7.472   7.155  16.995  0.00  0.00    +0.000 OA
ENDBRANCH  14  21
BRANCH  19  22
ATOM     22  O   UNL     1       8.031   4.702  18.578  0.00  0.00    +0.000 OA
ATOM     23  H   UNL     1       8.429   4.594  17.699  0.00  0.00    +0.000 HD
ENDBRANCH  19  22
ENDBRANCH   1  16
TORSDOF 4
ENDMDL
MODEL 8
REMARK VINA RESULT:      -7.0      1.078      2.273
REMARK  Name = 
REMARK  5 active torsions:
REMARK  status: ('A' for Active; 'I' for Inactive)
REMARK    1  A    between atoms: C_1  and  O_2
REMARK    2  A    between atoms: O_2  and  C_3
REMARK    3  A    between atoms: C_5  and  C_6
REMARK    4  A    between atoms: C_8  and  C_9
REMARK    5  A    between atoms: C_20  and  O_21
REMARK                            x       y       z     vdW  Elec       q    Type
REMARK                         _______ _______ _______ _____ _____    ______ ____
ROOT
ATOM      1  C   UNL     1       2.793   6.864  17.763  0.00  0.00    +0.000 C 
ATOM      2  C   UNL     1       2.061   7.054  19.088  0.00  0.00    +0.000 C 
ATOM      3  C   UNL     1       1.739   8.524  19.017  0.00  0.00    +0.000 C 
ATOM      4  N   UNL     1       2.174   9.133  17.954  0.00  0.00    +0.000 NA
ATOM      5  N   UNL     1       2.932   8.238  17.287  0.00  0.00    +0.000 N 
ATOM      6  H   UNL     1       2.922   8.338  16.274  0.00  0.00    +0.000 HD
ENDROOT
BRANCH   3   7
ATOM      7  C   UNL     1       0.973   9.199  20.089  0.00  0.00    +0.000 A 
ATOM      8  C   UNL     1       0.158  10.302  19.810  0.00  0.00    +0.000 A 
ATOM      9  C   UNL     1      -0.573  10.911  20.833  0.00  0.00    +0.000 A 
ATOM     10  C   UNL     1      -0.490  10.417  22.134  0.00  0.00    +0.000 A 
ATOM     11 CL   UNL     1      -1.388  11.173  23.391  0.00  0.00    +0.000 Cl
ATOM     12  C   UNL     1       0.313   9.314  22.421  0.00  0.00    +0.000 A 
ATOM     13  C   UNL     1       1.044   8.703  21.397  0.00  0.00    +0.000 A 
ENDBRANCH   3   7
BRANCH   1  16
ATOM     14  C   UNL     1       5.491   4.359  18.852  0.00  0.00    +0.000 A 
ATOM     15  C   UNL     1       4.263   5.012  18.689  0.00  0.00    +0.000 A 
ATOM     16  C   UNL     1       4.132   6.181  17.915  0.00  0.00    +0.000 A 
ATOM     17  C   UNL     1       5.272   6.692  17.288  0.00  0.00    +0.000 A 
ATOM     18  C   UNL     1       6.507   6.057  17.447  0.00  0.00    +0.000 A 
ATOM     19  C   UNL     1       6.617   4.899  18.228  0.00  0.00    +0.000 A 
BRANCH  14  21
ATOM     20  C   UNL     1       4.111   2.666  19.827  0.00  0.00    +0.000 C 
ATOM     21  O   UNL     1       5.394   3.239  19.631  0.00  0.00    +0.000 OA
ENDBRANCH  14  21
BRANCH  19  22
ATOM     22  O   UNL     1       7.852   4.326  18.361  0.00  0.00    +0.000 OA
ATOM     23  H   UNL     1       8.514   4.896  17.937  0.00  0.00    +0.000 HD
ENDBRANCH  19  22
ENDBRANCH   1  16
TORSDOF 4
ENDMDL
MODEL 9
REMARK VINA RESULT:      -7.0      1.072      2.006
REMARK  Name = 
REMARK  5 active torsions:
REMARK  status: ('A' for Active; 'I' for Inactive)
REMARK    1  A    between atoms: C_1  and  O_2
REMARK    2  A    between atoms: O_2  and  C_3
REMARK    3  A    between atoms: C_5  and  C_6
REMARK    4  A    between atoms: C_8  and  C_9
REMARK    5  A    between atoms: C_20  and  O_21
REMARK                            x       y       z     vdW  Elec       q    Type
REMARK                         _______ _______ _______ _____ _____    ______ ____
ROOT
ATOM      1  C   UNL     1       2.822   6.902  17.732  0.00  0.00    +0.000 C 
ATOM      2  C   UNL     1       2.067   7.046  19.051  0.00  0.00    +0.000 C 
ATOM      3  C   UNL     1       1.755   8.519  19.030  0.00  0.00    +0.000 C 
ATOM      4  N   UNL     1       2.213   9.166  18.000  0.00  0.00    +0.000 NA
ATOM      5  N   UNL     1       2.977   8.292  17.312  0.00  0.00    +0.000 N 
ATOM      6  H   UNL     1       2.986   8.431  16.304  0.00  0.00    +0.000 HD
ENDROOT
BRANCH   3   7
ATOM      7  C   UNL     1       0.974   9.157  20.113  0.00  0.00    +0.000 A 
ATOM      8  C   UNL     1       1.098   8.732  21.441  0.00  0.00    +0.000 A 
ATOM      9  C   UNL     1       0.367   9.363  22.451  0.00  0.00    +0.000 A 
ATOM     10  C   UNL     1      -0.486  10.419  22.135  0.00  0.00    +0.000 A 
ATOM     11 CL   UNL     1      -1.387  11.189  23.381  0.00  0.00    +0.000 Cl
ATOM     12  C   UNL     1      -0.611  10.855  20.817  0.00  0.00    +0.000 A 
ATOM     13  C   UNL     1       0.121  10.225  19.805  0.00  0.00    +0.000 A 
ENDBRANCH   3   7
BRANCH   1  16
ATOM     14  C   UNL     1       5.498   4.378  18.830  0.00  0.00    +0.000 A 
ATOM     15  C   UNL     1       4.277   5.044  18.669  0.00  0.00    +0.000 A 
ATOM     16  C   UNL     1       4.155   6.205  17.883  0.00  0.00    +0.000 A 
ATOM     17  C   UNL     1       5.295   6.695  17.241  0.00  0.00    +0.000 A 
ATOM     18  C   UNL     1       6.524   6.048  17.398  0.00  0.00    +0.000 A 
ATOM     19  C   UNL     1       6.626   4.898  18.192  0.00  0.00    +0.000 A 
BRANCH  14  21
ATOM     20  C   UNL     1       4.116   2.677  19.786  0.00  0.00    +0.000 C 
ATOM     21  O   UNL     1       5.395   3.268  19.622  0.00  0.00    +0.000 OA
ENDBRANCH  14  21
BRANCH  19  22
ATOM     22  O   UNL     1       7.856   4.312  18.322  0.00  0.00    +0.000 OA
ATOM     23  H   UNL     1       8.273   4.627  19.139  0.00  0.00    +0.000 HD
ENDBRANCH  19  22
ENDBRANCH   1  16
TORSDOF 4
ENDMDL
