MODEL 1
REMARK VINA RESULT:      -7.7      0.000      0.000
REMARK  Name = 
REMARK  7 active torsions:
REMARK  status: ('A' for Active; 'I' for Inactive)
REMARK    1  A    between atoms: C_1  and  C_2
REMARK    2  A    between atoms: C_4  and  C_5
REMARK    3  A    between atoms: C_5  and  N_6
REMARK    4  A    between atoms: N_12  and  C_13
REMARK    5  A    between atoms: C_13  and  C_14
REMARK    6  A    between atoms: C_14  and  C_15
REMARK    7  A    between atoms: C_18  and  C_19
REMARK                            x       y       z     vdW  Elec       q    Type
REMARK                         _______ _______ _______ _____ _____    ______ ____
ROOT
ATOM      1  N   UNL     1       5.408   5.472  17.812  0.00  0.00    +0.000 NA
ATOM      2  C   UNL     1       4.968   6.838  17.460  0.00  0.00    +0.000 C 
ATOM      3  C   UNL     1       3.444   6.902  17.601  0.00  0.00    +0.000 C 
ATOM      4  N   UNL     1       3.030   6.580  18.969  0.00  0.00    +0.000 N 
ATOM      5  C   UNL     1       2.154   7.444  19.589  0.00  0.00    +0.000 C 
ATOM      6  O   UNL     1       1.764   8.478  19.057  0.00  0.00    +0.000 OA
ATOM      7  N   UNL     1       1.760   7.113  20.852  0.00  0.00    +0.000 N 
ATOM      8  C   UNL     1       3.613   5.339  19.507  0.00  0.00    +0.000 C 
ATOM      9  C   UNL     1       5.141   5.257  19.246  0.00  0.00    +0.000 C 
ATOM     10  H   UNL     1       1.742   6.140  21.112  0.00  0.00    +0.000 HD
ENDROOT
BRANCH   1  11
ATOM     11  C   UNL     1       6.784   5.202  17.400  0.00  0.00    +0.000 C 
BRANCH  11  15
ATOM     12  C   UNL     1       6.141   3.508  12.616  0.00  0.00    +0.000 C 
ATOM     13  C   UNL     1       6.550   4.192  13.863  0.00  0.00    +0.000 A 
ATOM     14  C   UNL     1       6.158   3.905  15.188  0.00  0.00    +0.000 A 
ATOM     15  C   UNL     1       6.813   4.844  15.951  0.00  0.00    +0.000 A 
ATOM     16  O   UNL     1       7.554   5.640  15.135  0.00  0.00    +0.000 OA
ATOM     17  N   UNL     1       7.392   5.232  13.821  0.00  0.00    +0.000 NA
ENDBRANCH  11  15
ENDBRANCH   1  11
BRANCH   7  18
ATOM     18  C   UNL     1       0.869   8.017  21.556  0.00  0.00    +0.000 C 
BRANCH  18  19
ATOM     19  C   UNL     1       1.545   9.269  22.101  0.00  0.00    +0.000 C 
BRANCH  19  20
ATOM     20  C   UNL     1       0.744  10.509  21.895  0.00  0.00    +0.000 A 
ATOM     21  C   UNL     1       0.907  11.442  20.886  0.00  0.00    +0.000 A 
ATOM     22  S   UNL     1      -0.244  12.697  21.051  0.00  0.00    +0.000 S 
ATOM     23  C   UNL     1      -0.879  11.913  22.443  0.00  0.00    +0.000 A 
ATOM     24  C   UNL     1      -2.024  12.506  23.186  0.00  0.00    +0.000 C 
ATOM     25  N   UNL     1      -0.288  10.785  22.781  0.00  0.00    +0.000 NA
ENDBRANCH  19  20
ENDBRANCH  18  19
ENDBRANCH   7  18
TORSDOF 5
ENDMDL
MODEL 2
REMARK VINA RESULT:      -7.3      1.256      1.591
REMARK  Name = 
REMARK  7 active torsions:
REMARK  status: ('A' for Active; 'I' for Inactive)
REMARK    1  A    between atoms: C_1  and  C_2
REMARK    2  A    between atoms: C_4  and  C_5
REMARK    3  A    between atoms: C_5  and  N_6
REMARK    4  A    between atoms: N_12  and  C_13
REMARK    5  A    between atoms: C_13  and  C_14
REMARK    6  A    between atoms: C_14  and  C_15
REMARK    7  A    between atoms: C_18  and  C_19
REMARK                            x       y       z     vdW  Elec       q    Type
REMARK                         _______ _______ _______ _____ _____    ______ ____
ROOT
ATOM      1  N   UNL     1       5.370   5.135  17.972  0.00  0.00    +0.000 NA
ATOM      2  C   UNL     1       5.068   6.511  17.527  0.00  0.00    +0.000 C 
ATOM      3  C   UNL     1       3.558   6.736  17.657  0.00  0.00    +0.000 C 
ATOM      4  N   UNL     1       3.118   6.551  19.042  0.00  0.00    +0.000 N 
ATOM      5  C   UNL     1       2.334   7.538  19.599  0.00  0.00    +0.000 C 
ATOM      6  O   UNL     1       2.048   8.567  18.995  0.00  0.00    +0.000 OA
ATOM      7  N   UNL     1       1.914   7.335  20.880  0.00  0.00    +0.000 N 
ATOM      8  C   UNL     1       3.577   5.298  19.666  0.00  0.00    +0.000 C 
ATOM      9  C   UNL     1       5.087   5.046  19.417  0.00  0.00    +0.000 C 
ATOM     10  H   UNL     1       1.799   6.389  21.206  0.00  0.00    +0.000 HD
ENDROOT
BRANCH   1  11
ATOM     11  C   UNL     1       6.712   4.701  17.585  0.00  0.00    +0.000 C 
BRANCH  11  15
ATOM     12  C   UNL     1       6.211   3.705  12.593  0.00  0.00    +0.000 C 
ATOM     13  C   UNL     1       6.581   4.206  13.935  0.00  0.00    +0.000 A 
ATOM     14  C   UNL     1       6.156   3.731  15.195  0.00  0.00    +0.000 A 
ATOM     15  C   UNL     1       6.782   4.554  16.101  0.00  0.00    +0.000 A 
ATOM     16  O   UNL     1       7.538   5.462  15.428  0.00  0.00    +0.000 OA
ATOM     17  N   UNL     1       7.415   5.244  14.065  0.00  0.00    +0.000 NA
ENDBRANCH  11  15
ENDBRANCH   1  11
BRANCH   7  18
ATOM     18  C   UNL     1       1.119   8.369  21.516  0.00  0.00    +0.000 C 
BRANCH  18  19
ATOM     19  C   UNL     1      -0.205   8.663  20.819  0.00  0.00    +0.000 C 
BRANCH  19  20
ATOM     20  C   UNL     1      -0.468  10.120  20.647  0.00  0.00    +0.000 A 
ATOM     21  C   UNL     1      -0.673  11.049  21.652  0.00  0.00    +0.000 A 
ATOM     22  S   UNL     1      -0.935  12.600  20.977  0.00  0.00    +0.000 S 
ATOM     23  C   UNL     1      -0.754  11.932  19.404  0.00  0.00    +0.000 A 
ATOM     24  C   UNL     1      -0.871  12.797  18.199  0.00  0.00    +0.000 C 
ATOM     25  N   UNL     1      -0.511  10.638  19.359  0.00  0.00    +0.000 NA
ENDBRANCH  19  20
ENDBRANCH  18  19
ENDBRANCH   7  18
TORSDOF 5
ENDMDL
MODEL 3
REMARK VINA RESULT:      -7.3      3.110      8.547
REMARK  Name = 
REMARK  7 active torsions:
REMARK  status: ('A' for Active; 'I' for Inactive)
REMARK    1  A    between atoms: C_1  and  C_2
REMARK    2  A    between atoms: C_4  and  C_5
REMARK    3  A    between atoms: C_5  and  N_6
REMARK    4  A    between atoms: N_12  and  C_13
REMARK    5  A    between atoms: C_13  and  C_14
REMARK    6  A    between atoms: C_14  and  C_15
REMARK    7  A    between atoms: C_18  and  C_19
REMARK                            x       y       z     vdW  Elec       q    Type
REMARK                         _______ _______ _______ _____ _____    ______ ____
ROOT
ATOM      1  N   UNL     1       1.603   6.807  20.241  0.00  0.00    +0.000 NA
ATOM      2  C   UNL     1       1.923   5.392  20.520  0.00  0.00    +0.000 C 
ATOM      3  C   UNL     1       1.799   4.607  19.211  0.00  0.00    +0.000 C 
ATOM      4  N   UNL     1       2.713   5.135  18.194  0.00  0.00    +0.000 N 
ATOM      5  C   UNL     1       3.517   4.234  17.530  0.00  0.00    +0.000 C 
ATOM      6  O   UNL     1       3.524   3.037  17.800  0.00  0.00    +0.000 OA
ATOM      7  N   UNL     1       4.341   4.742  16.570  0.00  0.00    +0.000 N 
ATOM      8  C   UNL     1       2.641   6.594  18.007  0.00  0.00    +0.000 C 
ATOM      9  C   UNL     1       2.654   7.352  19.361  0.00  0.00    +0.000 C 
ATOM     10  H   UNL     1       4.062   5.583  16.091  0.00  0.00    +0.000 HD
ENDROOT
BRANCH   1  11
ATOM     11  C   UNL     1       1.367   7.580  21.460  0.00  0.00    +0.000 C 
BRANCH  11  15
ATOM     12  C   UNL     1      -0.731  11.929  19.771  0.00  0.00    +0.000 C 
ATOM     13  C   UNL     1       0.048  10.870  20.451  0.00  0.00    +0.000 A 
ATOM     14  C   UNL     1       0.077   9.487  20.170  0.00  0.00    +0.000 A 
ATOM     15  C   UNL     1       0.946   8.966  21.101  0.00  0.00    +0.000 A 
ATOM     16  O   UNL     1       1.412   9.974  21.886  0.00  0.00    +0.000 OA
ATOM     17  N   UNL     1       0.851  11.173  21.478  0.00  0.00    +0.000 NA
ENDBRANCH  11  15
ENDBRANCH   1  11
BRANCH   7  18
ATOM     18  C   UNL     1       5.233   3.832  15.875  0.00  0.00    +0.000 C 
BRANCH  18  19
ATOM     19  C   UNL     1       6.646   4.366  15.675  0.00  0.00    +0.000 C 
BRANCH  19  20
ATOM     20  C   UNL     1       7.120   5.214  16.806  0.00  0.00    +0.000 A 
ATOM     21  C   UNL     1       7.444   4.787  18.082  0.00  0.00    +0.000 A 
ATOM     22  S   UNL     1       7.942   6.114  19.039  0.00  0.00    +0.000 S 
ATOM     23  C   UNL     1       7.697   7.159  17.696  0.00  0.00    +0.000 A 
ATOM     24  C   UNL     1       7.960   8.618  17.818  0.00  0.00    +0.000 C 
ATOM     25  N   UNL     1       7.274   6.577  16.593  0.00  0.00    +0.000 NA
ENDBRANCH  19  20
ENDBRANCH  18  19
ENDBRANCH   7  18
TORSDOF 5
ENDMDL
MODEL 4
REMARK VINA RESULT:      -7.1      1.212      1.404
REMARK  Name = 
REMARK  7 active torsions:
REMARK  status: ('A' for Active; 'I' for Inactive)
REMARK    1  A    between atoms: C_1  and  C_2
REMARK    2  A    between atoms: C_4  and  C_5
REMARK    3  A    between atoms: C_5  and  N_6
REMARK    4  A    between atoms: N_12  and  C_13
REMARK    5  A    between atoms: C_13  and  C_14
REMARK    6  A    between atoms: C_14  and  C_15
REMARK    7  A    between atoms: C_18  and  C_19
REMARK                            x       y       z     vdW  Elec       q    Type
REMARK                         _______ _______ _______ _____ _____    ______ ____
ROOT
ATOM      1  N   UNL     1       4.616   5.477  18.031  0.00  0.00    +0.000 NA
ATOM      2  C   UNL     1       4.720   6.803  17.388  0.00  0.00    +0.000 C 
ATOM      3  C   UNL     1       3.304   7.358  17.204  0.00  0.00    +0.000 C 
ATOM      4  N   UNL     1       2.617   7.479  18.493  0.00  0.00    +0.000 N 
ATOM      5  C   UNL     1       2.007   8.681  18.779  0.00  0.00    +0.000 C 
ATOM      6  O   UNL     1       2.070   9.646  18.024  0.00  0.00    +0.000 OA
ATOM      7  N   UNL     1       1.351   8.765  19.972  0.00  0.00    +0.000 N 
ATOM      8  C   UNL     1       2.663   6.265  19.325  0.00  0.00    +0.000 C 
ATOM      9  C   UNL     1       4.092   5.666  19.397  0.00  0.00    +0.000 C 
ATOM     10  H   UNL     1       0.968   7.924  20.371  0.00  0.00    +0.000 HD
ENDROOT
BRANCH   1  11
ATOM     11  C   UNL     1       5.863   4.717  17.955  0.00  0.00    +0.000 C 
BRANCH  11  15
ATOM     12  C   UNL     1       6.438   3.853  12.946  0.00  0.00    +0.000 C 
ATOM     13  C   UNL     1       6.550   4.268  14.362  0.00  0.00    +0.000 A 
ATOM     14  C   UNL     1       5.745   3.881  15.454  0.00  0.00    +0.000 A 
ATOM     15  C   UNL     1       6.270   4.563  16.527  0.00  0.00    +0.000 A 
ATOM     16  O   UNL     1       7.327   5.308  16.104  0.00  0.00    +0.000 OA
ATOM     17  N   UNL     1       7.507   5.123  14.743  0.00  0.00    +0.000 NA
ENDBRANCH  11  15
ENDBRANCH   1  11
BRANCH   7  18
ATOM     18  C   UNL     1       0.729  10.027  20.329  0.00  0.00    +0.000 C 
BRANCH  18  19
ATOM     19  C   UNL     1       0.152  10.066  21.740  0.00  0.00    +0.000 C 
BRANCH  19  20
ATOM     20  C   UNL     1      -0.831  11.168  21.943  0.00  0.00    +0.000 A 
ATOM     21  C   UNL     1      -1.018  12.271  21.129  0.00  0.00    +0.000 A 
ATOM     22  S   UNL     1      -2.260  13.265  21.760  0.00  0.00    +0.000 S 
ATOM     23  C   UNL     1      -2.464  12.162  23.063  0.00  0.00    +0.000 A 
ATOM     24  C   UNL     1      -3.485  12.417  24.114  0.00  0.00    +0.000 C 
ATOM     25  N   UNL     1      -1.670  11.111  23.048  0.00  0.00    +0.000 NA
ENDBRANCH  19  20
ENDBRANCH  18  19
ENDBRANCH   7  18
TORSDOF 5
ENDMDL
MODEL 5
REMARK VINA RESULT:      -7.0      2.651      3.151
REMARK  Name = 
REMARK  7 active torsions:
REMARK  status: ('A' for Active; 'I' for Inactive)
REMARK    1  A    between atoms: C_1  and  C_2
REMARK    2  A    between atoms: C_4  and  C_5
REMARK    3  A    between atoms: C_5  and  N_6
REMARK    4  A    between atoms: N_12  and  C_13
REMARK    5  A    between atoms: C_13  and  C_14
REMARK    6  A    between atoms: C_14  and  C_15
REMARK    7  A    between atoms: C_18  and  C_19
REMARK                            x       y       z     vdW  Elec       q    Type
REMARK                         _______ _______ _______ _____ _____    ______ ____
ROOT
ATOM      1  N   UNL     1       4.579   4.612  17.603  0.00  0.00    +0.000 NA
ATOM      2  C   UNL     1       3.611   4.180  18.632  0.00  0.00    +0.000 C 
ATOM      3  C   UNL     1       3.573   5.246  19.731  0.00  0.00    +0.000 C 
ATOM      4  N   UNL     1       3.176   6.547  19.186  0.00  0.00    +0.000 N 
ATOM      5  C   UNL     1       2.169   7.228  19.834  0.00  0.00    +0.000 C 
ATOM      6  O   UNL     1       1.575   6.760  20.800  0.00  0.00    +0.000 OA
ATOM      7  N   UNL     1       1.832   8.449  19.327  0.00  0.00    +0.000 N 
ATOM      8  C   UNL     1       3.933   6.966  17.994  0.00  0.00    +0.000 C 
ATOM      9  C   UNL     1       4.048   5.824  16.950  0.00  0.00    +0.000 C 
ATOM     10  H   UNL     1       2.535   8.979  18.839  0.00  0.00    +0.000 HD
ENDROOT
BRANCH   1  11
ATOM     11  C   UNL     1       4.941   3.533  16.685  0.00  0.00    +0.000 C 
BRANCH  11  15
ATOM     12  C   UNL     1       7.595   5.110  12.606  0.00  0.00    +0.000 C 
ATOM     13  C   UNL     1       7.070   4.792  13.952  0.00  0.00    +0.000 A 
ATOM     14  C   UNL     1       5.954   3.999  14.292  0.00  0.00    +0.000 A 
ATOM     15  C   UNL     1       5.906   4.045  15.666  0.00  0.00    +0.000 A 
ATOM     16  O   UNL     1       6.931   4.814  16.121  0.00  0.00    +0.000 OA
ATOM     17  N   UNL     1       7.667   5.284  15.045  0.00  0.00    +0.000 NA
ENDBRANCH  11  15
ENDBRANCH   1  11
BRANCH   7  18
ATOM     18  C   UNL     1       0.749   9.182  19.957  0.00  0.00    +0.000 C 
BRANCH  18  19
ATOM     19  C   UNL     1       0.523  10.579  19.390  0.00  0.00    +0.000 C 
BRANCH  19  20
ATOM     20  C   UNL     1      -0.806  10.741  18.735  0.00  0.00    +0.000 A 
ATOM     21  C   UNL     1      -1.862  11.514  19.185  0.00  0.00    +0.000 A 
ATOM     22  S   UNL     1      -3.184  11.392  18.105  0.00  0.00    +0.000 S 
ATOM     23  C   UNL     1      -2.262  10.330  17.117  0.00  0.00    +0.000 A 
ATOM     24  C   UNL     1      -2.843   9.766  15.868  0.00  0.00    +0.000 C 
ATOM     25  N   UNL     1      -1.044  10.069  17.544  0.00  0.00    +0.000 NA
ENDBRANCH  19  20
ENDBRANCH  18  19
ENDBRANCH   7  18
TORSDOF 5
ENDMDL
MODEL 6
REMARK VINA RESULT:      -6.9      5.190      7.717
REMARK  Name = 
REMARK  7 active torsions:
REMARK  status: ('A' for Active; 'I' for Inactive)
REMARK    1  A    between atoms: C_1  and  C_2
REMARK    2  A    between atoms: C_4  and  C_5
REMARK    3  A    between atoms: C_5  and  N_6
REMARK    4  A    between atoms: N_12  and  C_13
REMARK    5  A    between atoms: C_13  and  C_14
REMARK    6  A    between atoms: C_14  and  C_15
REMARK    7  A    between atoms: C_18  and  C_19
REMARK                            x       y       z     vdW  Elec       q    Type
REMARK                         _______ _______ _______ _____ _____    ______ ____
ROOT
ATOM      1  N   UNL     1       3.718   4.044  16.887  0.00  0.00    +0.000 NA
ATOM      2  C   UNL     1       5.022   3.817  16.231  0.00  0.00    +0.000 C 
ATOM      3  C   UNL     1       5.549   5.166  15.732  0.00  0.00    +0.000 C 
ATOM      4  N   UNL     1       5.705   6.110  16.842  0.00  0.00    +0.000 N 
ATOM      5  C   UNL     1       6.907   6.775  16.948  0.00  0.00    +0.000 C 
ATOM      6  O   UNL     1       7.846   6.561  16.187  0.00  0.00    +0.000 OA
ATOM      7  N   UNL     1       7.023   7.669  17.971  0.00  0.00    +0.000 N 
ATOM      8  C   UNL     1       4.522   6.232  17.711  0.00  0.00    +0.000 C 
ATOM      9  C   UNL     1       3.948   4.845  18.104  0.00  0.00    +0.000 C 
ATOM     10  H   UNL     1       6.191   8.122  18.313  0.00  0.00    +0.000 HD
ENDROOT
BRANCH   1  11
ATOM     11  C   UNL     1       2.974   2.804  17.104  0.00  0.00    +0.000 C 
BRANCH  11  15
ATOM     12  C   UNL     1       1.470   2.644  21.990  0.00  0.00    +0.000 C 
ATOM     13  C   UNL     1       1.627   2.854  20.533  0.00  0.00    +0.000 A 
ATOM     14  C   UNL     1       2.617   2.330  19.675  0.00  0.00    +0.000 A 
ATOM     15  C   UNL     1       2.307   2.846  18.438  0.00  0.00    +0.000 A 
ATOM     16  O   UNL     1       1.198   3.626  18.548  0.00  0.00    +0.000 OA
ATOM     17  N   UNL     1       0.767   3.631  19.864  0.00  0.00    +0.000 NA
ENDBRANCH  11  15
ENDBRANCH   1  11
BRANCH   7  18
ATOM     18  C   UNL     1       8.288   8.361  18.142  0.00  0.00    +0.000 C 
BRANCH  18  19
ATOM     19  C   UNL     1       8.276   9.814  17.680  0.00  0.00    +0.000 C 
BRANCH  19  20
ATOM     20  C   UNL     1       9.125  10.705  18.521  0.00  0.00    +0.000 A 
ATOM     21  C   UNL     1       9.491  10.498  19.839  0.00  0.00    +0.000 A 
ATOM     22  S   UNL     1      10.473  11.788  20.387  0.00  0.00    +0.000 S 
ATOM     23  C   UNL     1      10.347  12.526  18.840  0.00  0.00    +0.000 A 
ATOM     24  C   UNL     1      11.026  13.820  18.564  0.00  0.00    +0.000 C 
ATOM     25  N   UNL     1       9.625  11.870  17.954  0.00  0.00    +0.000 NA
ENDBRANCH  19  20
ENDBRANCH  18  19
ENDBRANCH   7  18
TORSDOF 5
ENDMDL
MODEL 7
REMARK VINA RESULT:      -6.9      1.489      1.922
REMARK  Name = 
REMARK  7 active torsions:
REMARK  status: ('A' for Active; 'I' for Inactive)
REMARK    1  A    between atoms: C_1  and  C_2
REMARK    2  A    between atoms: C_4  and  C_5
REMARK    3  A    between atoms: C_5  and  N_6
REMARK    4  A    between atoms: N_12  and  C_13
REMARK    5  A    between atoms: C_13  and  C_14
REMARK    6  A    between atoms: C_14  and  C_15
REMARK    7  A    between atoms: C_18  and  C_19
REMARK                            x       y       z     vdW  Elec       q    Type
REMARK                         _______ _______ _______ _____ _____    ______ ____
ROOT
ATOM      1  N   UNL     1       4.650   4.034  17.302  0.00  0.00    +0.000 NA
ATOM      2  C   UNL     1       3.796   3.298  18.255  0.00  0.00    +0.000 C 
ATOM      3  C   UNL     1       3.847   4.023  19.603  0.00  0.00    +0.000 C 
ATOM      4  N   UNL     1       3.376   5.405  19.473  0.00  0.00    +0.000 N 
ATOM      5  C   UNL     1       2.426   5.841  20.371  0.00  0.00    +0.000 C 
ATOM      6  O   UNL     1       1.937   5.103  21.221  0.00  0.00    +0.000 OA
ATOM      7  N   UNL     1       2.020   7.137  20.250  0.00  0.00    +0.000 N 
ATOM      8  C   UNL     1       4.005   6.164  18.379  0.00  0.00    +0.000 C 
ATOM      9  C   UNL     1       4.037   5.353  17.057  0.00  0.00    +0.000 C 
ATOM     10  H   UNL     1       2.663   7.810  19.865  0.00  0.00    +0.000 HD
ENDROOT
BRANCH   1  11
ATOM     11  C   UNL     1       4.940   3.262  16.094  0.00  0.00    +0.000 C 
BRANCH  11  15
ATOM     12  C   UNL     1       7.979   5.480  12.629  0.00  0.00    +0.000 C 
ATOM     13  C   UNL     1       7.296   4.986  13.846  0.00  0.00    +0.000 A 
ATOM     14  C   UNL     1       6.245   4.049  13.940  0.00  0.00    +0.000 A 
ATOM     15  C   UNL     1       5.980   3.965  15.287  0.00  0.00    +0.000 A 
ATOM     16  O   UNL     1       6.823   4.795  15.958  0.00  0.00    +0.000 OA
ATOM     17  N   UNL     1       7.653   5.438  15.054  0.00  0.00    +0.000 NA
ENDBRANCH  11  15
ENDBRANCH   1  11
BRANCH   7  18
ATOM     18  C   UNL     1       0.991   7.625  21.151  0.00  0.00    +0.000 C 
BRANCH  18  19
ATOM     19  C   UNL     1       1.372   8.887  21.916  0.00  0.00    +0.000 C 
BRANCH  19  20
ATOM     20  C   UNL     1       0.461  10.036  21.647  0.00  0.00    +0.000 A 
ATOM     21  C   UNL     1       0.042  10.488  20.408  0.00  0.00    +0.000 A 
ATOM     22  S   UNL     1      -1.000  11.832  20.593  0.00  0.00    +0.000 S 
ATOM     23  C   UNL     1      -0.826  11.717  22.299  0.00  0.00    +0.000 A 
ATOM     24  C   UNL     1      -1.529  12.674  23.195  0.00  0.00    +0.000 C 
ATOM     25  N   UNL     1      -0.047  10.745  22.727  0.00  0.00    +0.000 NA
ENDBRANCH  19  20
ENDBRANCH  18  19
ENDBRANCH   7  18
TORSDOF 5
ENDMDL
MODEL 8
REMARK VINA RESULT:      -6.8      1.943      2.506
REMARK  Name = 
REMARK  7 active torsions:
REMARK  status: ('A' for Active; 'I' for Inactive)
REMARK    1  A    between atoms: C_1  and  C_2
REMARK    2  A    between atoms: C_4  and  C_5
REMARK    3  A    between atoms: C_5  and  N_6
REMARK    4  A    between atoms: N_12  and  C_13
REMARK    5  A    between atoms: C_13  and  C_14
REMARK    6  A    between atoms: C_14  and  C_15
REMARK    7  A    between atoms: C_18  and  C_19
REMARK                            x       y       z     vdW  Elec       q    Type
REMARK                         _______ _______ _______ _____ _____    ______ ____
ROOT
ATOM      1  N   UNL     1       4.613   4.047  17.364  0.00  0.00    +0.000 NA
ATOM      2  C   UNL     1       3.740   3.332  18.317  0.00  0.00    +0.000 C 
ATOM      3  C   UNL     1       3.809   4.055  19.666  0.00  0.00    +0.000 C 
ATOM      4  N   UNL     1       3.373   5.448  19.537  0.00  0.00    +0.000 N 
ATOM      5  C   UNL     1       2.434   5.907  20.435  0.00  0.00    +0.000 C 
ATOM      6  O   UNL     1       1.928   5.181  21.284  0.00  0.00    +0.000 OA
ATOM      7  N   UNL     1       2.061   7.213  20.314  0.00  0.00    +0.000 N 
ATOM      8  C   UNL     1       4.022   6.192  18.443  0.00  0.00    +0.000 C 
ATOM      9  C   UNL     1       4.033   5.381  17.120  0.00  0.00    +0.000 C 
ATOM     10  H   UNL     1       2.721   7.870  19.930  0.00  0.00    +0.000 HD
ENDROOT
BRANCH   1  11
ATOM     11  C   UNL     1       4.883   3.269  16.156  0.00  0.00    +0.000 C 
BRANCH  11  15
ATOM     12  C   UNL     1       7.940   5.442  12.678  0.00  0.00    +0.000 C 
ATOM     13  C   UNL     1       7.259   4.953  13.898  0.00  0.00    +0.000 A 
ATOM     14  C   UNL     1       6.182   4.045  13.994  0.00  0.00    +0.000 A 
ATOM     15  C   UNL     1       5.933   3.952  15.344  0.00  0.00    +0.000 A 
ATOM     16  O   UNL     1       6.808   4.749  16.013  0.00  0.00    +0.000 OA
ATOM     17  N   UNL     1       7.644   5.379  15.106  0.00  0.00    +0.000 NA
ENDBRANCH  11  15
ENDBRANCH   1  11
BRANCH   7  18
ATOM     18  C   UNL     1       1.045   7.726  21.216  0.00  0.00    +0.000 C 
BRANCH  18  19
ATOM     19  C   UNL     1       1.221   9.192  21.592  0.00  0.00    +0.000 C 
BRANCH  19  20
ATOM     20  C   UNL     1       0.658  10.131  20.580  0.00  0.00    +0.000 A 
ATOM     21  C   UNL     1       0.919  11.486  20.471  0.00  0.00    +0.000 A 
ATOM     22  S   UNL     1       0.048  12.150  19.157  0.00  0.00    +0.000 S 
ATOM     23  C   UNL     1      -0.609  10.598  18.823  0.00  0.00    +0.000 A 
ATOM     24  C   UNL     1      -1.554  10.406  17.690  0.00  0.00    +0.000 C 
ATOM     25  N   UNL     1      -0.217   9.629  19.626  0.00  0.00    +0.000 NA
ENDBRANCH  19  20
ENDBRANCH  18  19
ENDBRANCH   7  18
TORSDOF 5
ENDMDL
MODEL 9
REMARK VINA RESULT:      -6.8      3.598      4.620
REMARK  Name = 
REMARK  7 active torsions:
REMARK  status: ('A' for Active; 'I' for Inactive)
REMARK    1  A    between atoms: C_1  and  C_2
REMARK    2  A    between atoms: C_4  and  C_5
REMARK    3  A    between atoms: C_5  and  N_6
REMARK    4  A    between atoms: N_12  and  C_13
REMARK    5  A    between atoms: C_13  and  C_14
REMARK    6  A    between atoms: C_14  and  C_15
REMARK    7  A    between atoms: C_18  and  C_19
REMARK                            x       y       z     vdW  Elec       q    Type
REMARK                         _______ _______ _______ _____ _____    ______ ____
ROOT
ATOM      1  N   UNL     1       2.853   6.339  19.616  0.00  0.00    +0.000 NA
ATOM      2  C   UNL     1       1.769   6.632  20.576  0.00  0.00    +0.000 C 
ATOM      3  C   UNL     1       1.667   8.152  20.734  0.00  0.00    +0.000 C 
ATOM      4  N   UNL     1       1.384   8.795  19.448  0.00  0.00    +0.000 N 
ATOM      5  C   UNL     1       0.347   9.701  19.405  0.00  0.00    +0.000 C 
ATOM      6  O   UNL     1      -0.360   9.938  20.379  0.00  0.00    +0.000 OA
ATOM      7  N   UNL     1       0.116  10.308  18.205  0.00  0.00    +0.000 N 
ATOM      8  C   UNL     1       2.274   8.382  18.350  0.00  0.00    +0.000 C 
ATOM      9  C   UNL     1       2.443   6.840  18.291  0.00  0.00    +0.000 C 
ATOM     10  H   UNL     1       0.888  10.428  17.569  0.00  0.00    +0.000 HD
ENDROOT
BRANCH   1  11
ATOM     11  C   UNL     1       3.259   4.934  19.638  0.00  0.00    +0.000 C 
BRANCH  11  15
ATOM     12  C   UNL     1       7.447   4.573  16.723  0.00  0.00    +0.000 C 
ATOM     13  C   UNL     1       6.450   4.688  17.811  0.00  0.00    +0.000 A 
ATOM     14  C   UNL     1       5.044   4.605  17.723  0.00  0.00    +0.000 A 
ATOM     15  C   UNL     1       4.607   4.792  19.013  0.00  0.00    +0.000 A 
ATOM     16  O   UNL     1       5.684   4.971  19.825  0.00  0.00    +0.000 OA
ATOM     17  N   UNL     1       6.845   4.904  19.072  0.00  0.00    +0.000 NA
ENDBRANCH  11  15
ENDBRANCH   1  11
BRANCH   7  18
ATOM     18  C   UNL     1      -0.992  11.241  18.107  0.00  0.00    +0.000 C 
BRANCH  18  19
ATOM     19  C   UNL     1      -2.093  10.809  17.146  0.00  0.00    +0.000 C 
BRANCH  19  20
ATOM     20  C   UNL     1      -3.443  11.310  17.535  0.00  0.00    +0.000 A 
ATOM     21  C   UNL     1      -4.564  11.381  16.727  0.00  0.00    +0.000 A 
ATOM     22  S   UNL     1      -5.885  12.021  17.606  0.00  0.00    +0.000 S 
ATOM     23  C   UNL     1      -4.880  12.153  18.995  0.00  0.00    +0.000 A 
ATOM     24  C   UNL     1      -5.423  12.692  20.271  0.00  0.00    +0.000 C 
ATOM     25  N   UNL     1      -3.636  11.750  18.837  0.00  0.00    +0.000 NA
ENDBRANCH  19  20
ENDBRANCH  18  19
ENDBRANCH   7  18
TORSDOF 5
ENDMDL
