MODEL 1
REMARK VINA RESULT:      -7.7      0.000      0.000
REMARK  Name = 
REMARK  4 active torsions:
REMARK  status: ('A' for Active; 'I' for Inactive)
REMARK    1  A    between atoms: C_1  and  N_2
REMARK    2  A    between atoms: C_6  and  C_7
REMARK    3  A    between atoms: C_7  and  O_9
REMARK    4  A    between atoms: N_12  and  C_13
REMARK                            x       y       z     vdW  Elec       q    Type
REMARK                         _______ _______ _______ _____ _____    ______ ____
ROOT
ATOM      1  C   UNL     1       1.812   5.445  20.832  0.00  0.00    +0.000 C 
ATOM      2  N   UNL     1       1.979   4.339  19.901  0.00  0.00    +0.000 N 
ATOM      3  C   UNL     1       1.395   3.124  20.256  0.00  0.00    +0.000 C 
ATOM      4  O   UNL     1       0.943   2.909  21.383  0.00  0.00    +0.000 OA
ATOM      5  C   UNL     1       1.242   2.047  19.206  0.00  0.00    +0.000 C 
ATOM      6  C   UNL     1       2.293   2.017  18.122  0.00  0.00    +0.000 C 
ATOM      7  S   UNL     1       2.445   3.656  17.402  0.00  0.00    +0.000 S 
ATOM      8  C   UNL     1       2.907   4.495  18.870  0.00  0.00    +0.000 C 
ATOM      9  N   UNL     1       3.950   5.245  19.018  0.00  0.00    +0.000 NA
ENDROOT
BRANCH   9  10
ATOM     10  C   UNL     1       4.965   5.414  18.059  0.00  0.00    +0.000 A 
ATOM     11  C   UNL     1       5.854   6.489  18.209  0.00  0.00    +0.000 A 
ATOM     12  C   UNL     1       6.865   6.716  17.267  0.00  0.00    +0.000 A 
ATOM     13 CL   UNL     1       7.954   8.033  17.472  0.00  0.00    +0.000 Cl
ATOM     14  C   UNL     1       6.999   5.891  16.156  0.00  0.00    +0.000 A 
ATOM     15  C   UNL     1       6.175   4.784  16.050  0.00  0.00    +0.000 A 
ATOM     16 CL   UNL     1       6.284   3.745  14.680  0.00  0.00    +0.000 Cl
ATOM     17  C   UNL     1       5.222   4.512  17.025  0.00  0.00    +0.000 A 
ENDBRANCH   9  10
BRANCH   6  18
ATOM     18  C   UNL     1       3.625   1.498  18.625  0.00  0.00    +0.000 C 
ATOM     19  O   UNL     1       4.156   1.857  19.666  0.00  0.00    +0.000 OA
BRANCH  18  20
ATOM     20  O   UNL     1       4.224   0.619  17.786  0.00  0.00    +0.000 OA
ATOM     21  H   UNL     1       3.630   0.155  17.163  0.00  0.00    +0.000 HD
ENDBRANCH  18  20
ENDBRANCH   6  18
TORSDOF 3
ENDMDL
MODEL 2
REMARK VINA RESULT:      -7.4      0.186      2.017
REMARK  Name = 
REMARK  4 active torsions:
REMARK  status: ('A' for Active; 'I' for Inactive)
REMARK    1  A    between atoms: C_1  and  N_2
REMARK    2  A    between atoms: C_6  and  C_7
REMARK    3  A    between atoms: C_7  and  O_9
REMARK    4  A    between atoms: N_12  and  C_13
REMARK                            x       y       z     vdW  Elec       q    Type
REMARK                         _______ _______ _______ _____ _____    ______ ____
ROOT
ATOM      1  C   UNL     1       1.630   5.570  20.735  0.00  0.00    +0.000 C 
ATOM      2  N   UNL     1       1.891   4.439  19.857  0.00  0.00    +0.000 N 
ATOM      3  C   UNL     1       1.354   3.210  20.239  0.00  0.00    +0.000 C 
ATOM      4  O   UNL     1       0.867   3.016  21.355  0.00  0.00    +0.000 OA
ATOM      5  C   UNL     1       1.299   2.087  19.228  0.00  0.00    +0.000 C 
ATOM      6  C   UNL     1       2.394   2.069  18.189  0.00  0.00    +0.000 C 
ATOM      7  S   UNL     1       2.492   3.684  17.409  0.00  0.00    +0.000 S 
ATOM      8  C   UNL     1       2.851   4.602  18.859  0.00  0.00    +0.000 C 
ATOM      9  N   UNL     1       3.848   5.410  19.017  0.00  0.00    +0.000 NA
ENDROOT
BRANCH   9  10
ATOM     10  C   UNL     1       4.893   5.594  18.092  0.00  0.00    +0.000 A 
ATOM     11  C   UNL     1       5.010   4.688  17.028  0.00  0.00    +0.000 A 
ATOM     12  C   UNL     1       6.049   4.812  16.096  0.00  0.00    +0.000 A 
ATOM     13 CL   UNL     1       6.172   3.698  14.790  0.00  0.00    +0.000 Cl
ATOM     14  C   UNL     1       6.992   5.826  16.215  0.00  0.00    +0.000 A 
ATOM     15  C   UNL     1       6.831   6.768  17.216  0.00  0.00    +0.000 A 
ATOM     16 CL   UNL     1       7.986   8.029  17.422  0.00  0.00    +0.000 Cl
ATOM     17  C   UNL     1       5.756   6.692  18.095  0.00  0.00    +0.000 A 
ENDBRANCH   9  10
BRANCH   6  18
ATOM     18  C   UNL     1       3.728   1.639  18.764  0.00  0.00    +0.000 C 
ATOM     19  O   UNL     1       4.271   2.175  19.720  0.00  0.00    +0.000 OA
BRANCH  18  20
ATOM     20  O   UNL     1       4.314   0.620  18.091  0.00  0.00    +0.000 OA
ATOM     21  H   UNL     1       4.800   0.872  17.281  0.00  0.00    +0.000 HD
ENDBRANCH  18  20
ENDBRANCH   6  18
TORSDOF 3
ENDMDL
MODEL 3
REMARK VINA RESULT:      -7.4      3.794      6.200
REMARK  Name = 
REMARK  4 active torsions:
REMARK  status: ('A' for Active; 'I' for Inactive)
REMARK    1  A    between atoms: C_1  and  N_2
REMARK    2  A    between atoms: C_6  and  C_7
REMARK    3  A    between atoms: C_7  and  O_9
REMARK    4  A    between atoms: N_12  and  C_13
REMARK                            x       y       z     vdW  Elec       q    Type
REMARK                         _______ _______ _______ _____ _____    ______ ____
ROOT
ATOM      1  C   UNL     1       5.305   4.311  14.473  0.00  0.00    +0.000 C 
ATOM      2  N   UNL     1       5.779   5.026  15.649  0.00  0.00    +0.000 N 
ATOM      3  C   UNL     1       7.006   5.679  15.535  0.00  0.00    +0.000 C 
ATOM      4  O   UNL     1       7.768   5.501  14.581  0.00  0.00    +0.000 OA
ATOM      5  C   UNL     1       7.395   6.699  16.581  0.00  0.00    +0.000 C 
ATOM      6  C   UNL     1       6.867   6.461  17.975  0.00  0.00    +0.000 C 
ATOM      7  S   UNL     1       5.089   6.208  17.896  0.00  0.00    +0.000 S 
ATOM      8  C   UNL     1       5.118   4.798  16.855  0.00  0.00    +0.000 C 
ATOM      9  N   UNL     1       4.548   3.663  17.101  0.00  0.00    +0.000 NA
ENDROOT
BRANCH   9  10
ATOM     10  C   UNL     1       3.911   3.324  18.309  0.00  0.00    +0.000 A 
ATOM     11  C   UNL     1       4.629   2.577  19.255  0.00  0.00    +0.000 A 
ATOM     12  C   UNL     1       4.030   2.192  20.462  0.00  0.00    +0.000 A 
ATOM     13 CL   UNL     1       4.928   1.286  21.618  0.00  0.00    +0.000 Cl
ATOM     14  C   UNL     1       2.711   2.528  20.740  0.00  0.00    +0.000 A 
ATOM     15  C   UNL     1       2.029   3.332  19.844  0.00  0.00    +0.000 A 
ATOM     16 CL   UNL     1       0.384   3.755  20.129  0.00  0.00    +0.000 Cl
ATOM     17  C   UNL     1       2.646   3.782  18.682  0.00  0.00    +0.000 A 
ENDBRANCH   9  10
BRANCH   6  18
ATOM     18  C   UNL     1       7.568   5.312  18.670  0.00  0.00    +0.000 C 
ATOM     19  O   UNL     1       8.135   4.398  18.089  0.00  0.00    +0.000 OA
BRANCH  18  20
ATOM     20  O   UNL     1       7.474   5.347  20.021  0.00  0.00    +0.000 OA
ATOM     21  H   UNL     1       8.282   5.088  20.508  0.00  0.00    +0.000 HD
ENDBRANCH  18  20
ENDBRANCH   6  18
TORSDOF 3
ENDMDL
MODEL 4
REMARK VINA RESULT:      -7.3      3.812      6.217
REMARK  Name = 
REMARK  4 active torsions:
REMARK  status: ('A' for Active; 'I' for Inactive)
REMARK    1  A    between atoms: C_1  and  N_2
REMARK    2  A    between atoms: C_6  and  C_7
REMARK    3  A    between atoms: C_7  and  O_9
REMARK    4  A    between atoms: N_12  and  C_13
REMARK                            x       y       z     vdW  Elec       q    Type
REMARK                         _______ _______ _______ _____ _____    ______ ____
ROOT
ATOM      1  C   UNL     1       5.289   4.289  14.478  0.00  0.00    +0.000 C 
ATOM      2  N   UNL     1       5.767   4.996  15.657  0.00  0.00    +0.000 N 
ATOM      3  C   UNL     1       6.972   5.687  15.529  0.00  0.00    +0.000 C 
ATOM      4  O   UNL     1       7.717   5.550  14.556  0.00  0.00    +0.000 OA
ATOM      5  C   UNL     1       7.353   6.700  16.585  0.00  0.00    +0.000 C 
ATOM      6  C   UNL     1       6.862   6.422  17.986  0.00  0.00    +0.000 C 
ATOM      7  S   UNL     1       5.092   6.117  17.940  0.00  0.00    +0.000 S 
ATOM      8  C   UNL     1       5.140   4.727  16.873  0.00  0.00    +0.000 C 
ATOM      9  N   UNL     1       4.609   3.571  17.110  0.00  0.00    +0.000 NA
ENDROOT
BRANCH   9  10
ATOM     10  C   UNL     1       4.009   3.192  18.324  0.00  0.00    +0.000 A 
ATOM     11  C   UNL     1       2.677   3.564  18.556  0.00  0.00    +0.000 A 
ATOM     12  C   UNL     1       2.043   3.233  19.761  0.00  0.00    +0.000 A 
ATOM     13 CL   UNL     1       0.404   3.687  20.025  0.00  0.00    +0.000 Cl
ATOM     14  C   UNL     1       2.726   2.544  20.757  0.00  0.00    +0.000 A 
ATOM     15  C   UNL     1       4.013   2.107  20.498  0.00  0.00    +0.000 A 
ATOM     16 CL   UNL     1       4.910   1.272  21.707  0.00  0.00    +0.000 Cl
ATOM     17  C   UNL     1       4.616   2.366  19.272  0.00  0.00    +0.000 A 
ENDBRANCH   9  10
BRANCH   6  18
ATOM     18  C   UNL     1       7.612   5.282  18.644  0.00  0.00    +0.000 C 
ATOM     19  O   UNL     1       8.232   4.422  18.035  0.00  0.00    +0.000 OA
BRANCH  18  20
ATOM     20  O   UNL     1       7.501   5.258  19.994  0.00  0.00    +0.000 OA
ATOM     21  H   UNL     1       7.028   4.488  20.366  0.00  0.00    +0.000 HD
ENDBRANCH  18  20
ENDBRANCH   6  18
TORSDOF 3
ENDMDL
MODEL 5
REMARK VINA RESULT:      -7.3      1.997      2.495
REMARK  Name = 
REMARK  4 active torsions:
REMARK  status: ('A' for Active; 'I' for Inactive)
REMARK    1  A    between atoms: C_1  and  N_2
REMARK    2  A    between atoms: C_6  and  C_7
REMARK    3  A    between atoms: C_7  and  O_9
REMARK    4  A    between atoms: N_12  and  C_13
REMARK                            x       y       z     vdW  Elec       q    Type
REMARK                         _______ _______ _______ _____ _____    ______ ____
ROOT
ATOM      1  C   UNL     1       4.479   1.956  20.945  0.00  0.00    +0.000 C 
ATOM      2  N   UNL     1       3.683   3.034  20.377  0.00  0.00    +0.000 N 
ATOM      3  C   UNL     1       2.297   2.909  20.472  0.00  0.00    +0.000 C 
ATOM      4  O   UNL     1       1.746   1.861  20.818  0.00  0.00    +0.000 OA
ATOM      5  C   UNL     1       1.431   4.120  20.212  0.00  0.00    +0.000 C 
ATOM      6  C   UNL     1       1.966   5.124  19.220  0.00  0.00    +0.000 C 
ATOM      7  S   UNL     1       3.644   5.572  19.682  0.00  0.00    +0.000 S 
ATOM      8  C   UNL     1       4.335   3.964  19.568  0.00  0.00    +0.000 C 
ATOM      9  N   UNL     1       5.377   3.634  18.877  0.00  0.00    +0.000 NA
ENDROOT
BRANCH   9  10
ATOM     10  C   UNL     1       6.061   4.487  17.992  0.00  0.00    +0.000 A 
ATOM     11  C   UNL     1       6.723   5.605  18.520  0.00  0.00    +0.000 A 
ATOM     12  C   UNL     1       7.397   6.500  17.677  0.00  0.00    +0.000 A 
ATOM     13 CL   UNL     1       8.215   7.860  18.342  0.00  0.00    +0.000 Cl
ATOM     14  C   UNL     1       7.410   6.306  16.301  0.00  0.00    +0.000 A 
ATOM     15  C   UNL     1       6.826   5.161  15.787  0.00  0.00    +0.000 A 
ATOM     16 CL   UNL     1       6.793   4.887  14.087  0.00  0.00    +0.000 Cl
ATOM     17  C   UNL     1       6.225   4.232  16.629  0.00  0.00    +0.000 A 
ENDBRANCH   9  10
BRANCH   6  18
ATOM     18  C   UNL     1       1.890   4.621  17.793  0.00  0.00    +0.000 C 
ATOM     19  O   UNL     1       0.965   3.961  17.343  0.00  0.00    +0.000 OA
BRANCH  18  20
ATOM     20  O   UNL     1       2.979   4.924  17.045  0.00  0.00    +0.000 OA
ATOM     21  H   UNL     1       3.561   4.172  16.820  0.00  0.00    +0.000 HD
ENDBRANCH  18  20
ENDBRANCH   6  18
TORSDOF 3
ENDMDL
MODEL 6
REMARK VINA RESULT:      -7.2      3.629      5.278
REMARK  Name = 
REMARK  4 active torsions:
REMARK  status: ('A' for Active; 'I' for Inactive)
REMARK    1  A    between atoms: C_1  and  N_2
REMARK    2  A    between atoms: C_6  and  C_7
REMARK    3  A    between atoms: C_7  and  O_9
REMARK    4  A    between atoms: N_12  and  C_13
REMARK                            x       y       z     vdW  Elec       q    Type
REMARK                         _______ _______ _______ _____ _____    ______ ____
ROOT
ATOM      1  C   UNL     1       2.578   2.899  21.503  0.00  0.00    +0.000 C 
ATOM      2  N   UNL     1       2.959   3.453  20.213  0.00  0.00    +0.000 N 
ATOM      3  C   UNL     1       3.991   2.809  19.531  0.00  0.00    +0.000 C 
ATOM      4  O   UNL     1       4.703   1.952  20.060  0.00  0.00    +0.000 OA
ATOM      5  C   UNL     1       4.209   3.117  18.067  0.00  0.00    +0.000 C 
ATOM      6  C   UNL     1       3.851   4.513  17.617  0.00  0.00    +0.000 C 
ATOM      7  S   UNL     1       2.179   4.894  18.153  0.00  0.00    +0.000 S 
ATOM      8  C   UNL     1       2.456   4.709  19.874  0.00  0.00    +0.000 C 
ATOM      9  N   UNL     1       2.181   5.587  20.784  0.00  0.00    +0.000 NA
ENDROOT
BRANCH   9  10
ATOM     10  C   UNL     1       1.728   6.895  20.534  0.00  0.00    +0.000 A 
ATOM     11  C   UNL     1       0.910   7.513  21.491  0.00  0.00    +0.000 A 
ATOM     12  C   UNL     1       0.412   8.805  21.276  0.00  0.00    +0.000 A 
ATOM     13 CL   UNL     1      -0.581   9.554  22.466  0.00  0.00    +0.000 Cl
ATOM     14  C   UNL     1       0.704   9.493  20.105  0.00  0.00    +0.000 A 
ATOM     15  C   UNL     1       1.575   8.917  19.197  0.00  0.00    +0.000 A 
ATOM     16 CL   UNL     1       1.949   9.718  17.719  0.00  0.00    +0.000 Cl
ATOM     17  C   UNL     1       2.134   7.668  19.445  0.00  0.00    +0.000 A 
ENDBRANCH   9  10
BRANCH   6  18
ATOM     18  C   UNL     1       4.846   5.548  18.101  0.00  0.00    +0.000 C 
ATOM     19  O   UNL     1       5.655   5.360  18.998  0.00  0.00    +0.000 OA
BRANCH  18  20
ATOM     20  O   UNL     1       4.736   6.748  17.481  0.00  0.00    +0.000 OA
ATOM     21  H   UNL     1       4.600   6.714  16.514  0.00  0.00    +0.000 HD
ENDBRANCH  18  20
ENDBRANCH   6  18
TORSDOF 3
ENDMDL
MODEL 7
REMARK VINA RESULT:      -7.1      3.618      5.934
REMARK  Name = 
REMARK  4 active torsions:
REMARK  status: ('A' for Active; 'I' for Inactive)
REMARK    1  A    between atoms: C_1  and  N_2
REMARK    2  A    between atoms: C_6  and  C_7
REMARK    3  A    between atoms: C_7  and  O_9
REMARK    4  A    between atoms: N_12  and  C_13
REMARK                            x       y       z     vdW  Elec       q    Type
REMARK                         _______ _______ _______ _____ _____    ______ ____
ROOT
ATOM      1  C   UNL     1       4.854   4.368  14.603  0.00  0.00    +0.000 C 
ATOM      2  N   UNL     1       5.519   5.101  15.670  0.00  0.00    +0.000 N 
ATOM      3  C   UNL     1       6.901   5.250  15.564  0.00  0.00    +0.000 C 
ATOM      4  O   UNL     1       7.576   4.625  14.742  0.00  0.00    +0.000 OA
ATOM      5  C   UNL     1       7.600   6.265  16.440  0.00  0.00    +0.000 C 
ATOM      6  C   UNL     1       6.980   6.521  17.793  0.00  0.00    +0.000 C 
ATOM      7  S   UNL     1       5.234   6.889  17.580  0.00  0.00    +0.000 S 
ATOM      8  C   UNL     1       4.784   5.373  16.824  0.00  0.00    +0.000 C 
ATOM      9  N   UNL     1       3.837   4.584  17.214  0.00  0.00    +0.000 NA
ENDROOT
BRANCH   9  10
ATOM     10  C   UNL     1       3.085   4.745  18.392  0.00  0.00    +0.000 A 
ATOM     11  C   UNL     1       2.774   6.047  18.813  0.00  0.00    +0.000 A 
ATOM     12  C   UNL     1       2.051   6.261  19.994  0.00  0.00    +0.000 A 
ATOM     13 CL   UNL     1       1.667   7.864  20.489  0.00  0.00    +0.000 Cl
ATOM     14  C   UNL     1       1.640   5.191  20.779  0.00  0.00    +0.000 A 
ATOM     15  C   UNL     1       1.876   3.906  20.325  0.00  0.00    +0.000 A 
ATOM     16 CL   UNL     1       1.411   2.546  21.274  0.00  0.00    +0.000 Cl
ATOM     17  C   UNL     1       2.525   3.689  19.114  0.00  0.00    +0.000 A 
ENDBRANCH   9  10
BRANCH   6  18
ATOM     18  C   UNL     1       7.200   5.371  18.754  0.00  0.00    +0.000 C 
ATOM     19  O   UNL     1       6.862   5.381  19.929  0.00  0.00    +0.000 OA
BRANCH  18  20
ATOM     20  O   UNL     1       7.862   4.320  18.213  0.00  0.00    +0.000 OA
ATOM     21  H   UNL     1       7.357   3.791  17.564  0.00  0.00    +0.000 HD
ENDBRANCH  18  20
ENDBRANCH   6  18
TORSDOF 3
ENDMDL
MODEL 8
REMARK VINA RESULT:      -7.1      3.616      6.227
REMARK  Name = 
REMARK  4 active torsions:
REMARK  status: ('A' for Active; 'I' for Inactive)
REMARK    1  A    between atoms: C_1  and  N_2
REMARK    2  A    between atoms: C_6  and  C_7
REMARK    3  A    between atoms: C_7  and  O_9
REMARK    4  A    between atoms: N_12  and  C_13
REMARK                            x       y       z     vdW  Elec       q    Type
REMARK                         _______ _______ _______ _____ _____    ______ ____
ROOT
ATOM      1  C   UNL     1       4.830   4.391  14.620  0.00  0.00    +0.000 C 
ATOM      2  N   UNL     1       5.526   5.120  15.669  0.00  0.00    +0.000 N 
ATOM      3  C   UNL     1       6.908   5.250  15.534  0.00  0.00    +0.000 C 
ATOM      4  O   UNL     1       7.557   4.613  14.701  0.00  0.00    +0.000 OA
ATOM      5  C   UNL     1       7.638   6.260  16.391  0.00  0.00    +0.000 C 
ATOM      6  C   UNL     1       7.050   6.528  17.755  0.00  0.00    +0.000 C 
ATOM      7  S   UNL     1       5.305   6.919  17.578  0.00  0.00    +0.000 S 
ATOM      8  C   UNL     1       4.819   5.405  16.838  0.00  0.00    +0.000 C 
ATOM      9  N   UNL     1       3.870   4.630  17.250  0.00  0.00    +0.000 NA
ENDROOT
BRANCH   9  10
ATOM     10  C   UNL     1       3.145   4.806  18.443  0.00  0.00    +0.000 A 
ATOM     11  C   UNL     1       2.794   3.668  19.185  0.00  0.00    +0.000 A 
ATOM     12  C   UNL     1       2.049   3.789  20.366  0.00  0.00    +0.000 A 
ATOM     13 CL   UNL     1       1.636   2.384  21.271  0.00  0.00    +0.000 Cl
ATOM     14  C   UNL     1       1.631   5.035  20.818  0.00  0.00    +0.000 A 
ATOM     15  C   UNL     1       2.046   6.163  20.132  0.00  0.00    +0.000 A 
ATOM     16 CL   UNL     1       1.534   7.728  20.636  0.00  0.00    +0.000 Cl
ATOM     17  C   UNL     1       2.851   6.050  19.003  0.00  0.00    +0.000 A 
ENDBRANCH   9  10
BRANCH   6  18
ATOM     18  C   UNL     1       7.274   5.379  18.717  0.00  0.00    +0.000 C 
ATOM     19  O   UNL     1       8.038   4.447  18.510  0.00  0.00    +0.000 OA
BRANCH  18  20
ATOM     20  O   UNL     1       6.507   5.437  19.832  0.00  0.00    +0.000 OA
ATOM     21  H   UNL     1       6.726   6.154  20.459  0.00  0.00    +0.000 HD
ENDBRANCH  18  20
ENDBRANCH   6  18
TORSDOF 3
ENDMDL
MODEL 9
REMARK VINA RESULT:      -7.0      1.962      3.153
REMARK  Name = 
REMARK  4 active torsions:
REMARK  status: ('A' for Active; 'I' for Inactive)
REMARK    1  A    between atoms: C_1  and  N_2
REMARK    2  A    between atoms: C_6  and  C_7
REMARK    3  A    between atoms: C_7  and  O_9
REMARK    4  A    between atoms: N_12  and  C_13
REMARK                            x       y       z     vdW  Elec       q    Type
REMARK                         _______ _______ _______ _____ _____    ______ ____
ROOT
ATOM      1  C   UNL     1       4.556   1.871  21.204  0.00  0.00    +0.000 C 
ATOM      2  N   UNL     1       3.636   2.872  20.685  0.00  0.00    +0.000 N 
ATOM      3  C   UNL     1       2.285   2.701  20.986  0.00  0.00    +0.000 C 
ATOM      4  O   UNL     1       1.840   1.660  21.475  0.00  0.00    +0.000 OA
ATOM      5  C   UNL     1       1.333   3.856  20.772  0.00  0.00    +0.000 C 
ATOM      6  C   UNL     1       1.676   4.805  19.648  0.00  0.00    +0.000 C 
ATOM      7  S   UNL     1       3.378   5.350  19.835  0.00  0.00    +0.000 S 
ATOM      8  C   UNL     1       4.123   3.766  19.732  0.00  0.00    +0.000 C 
ATOM      9  N   UNL     1       5.073   3.427  18.922  0.00  0.00    +0.000 NA
ENDROOT
BRANCH   9  10
ATOM     10  C   UNL     1       5.585   4.239  17.894  0.00  0.00    +0.000 A 
ATOM     11  C   UNL     1       5.350   3.860  16.564  0.00  0.00    +0.000 A 
ATOM     12  C   UNL     1       5.862   4.621  15.504  0.00  0.00    +0.000 A 
ATOM     13 CL   UNL     1       5.555   4.148  13.878  0.00  0.00    +0.000 Cl
ATOM     14  C   UNL     1       6.625   5.756  15.749  0.00  0.00    +0.000 A 
ATOM     15  C   UNL     1       6.789   6.176  17.057  0.00  0.00    +0.000 A 
ATOM     16 CL   UNL     1       7.747   7.561  17.415  0.00  0.00    +0.000 Cl
ATOM     17  C   UNL     1       6.216   5.466  18.107  0.00  0.00    +0.000 A 
ENDBRANCH   9  10
BRANCH   6  18
ATOM     18  C   UNL     1       1.426   4.197  18.283  0.00  0.00    +0.000 C 
ATOM     19  O   UNL     1       0.787   3.173  18.091  0.00  0.00    +0.000 OA
BRANCH  18  20
ATOM     20  O   UNL     1       2.023   4.865  17.267  0.00  0.00    +0.000 OA
ATOM     21  H   UNL     1       1.455   5.054  16.494  0.00  0.00    +0.000 HD
ENDBRANCH  18  20
ENDBRANCH   6  18
TORSDOF 3
ENDMDL
