MODEL 1
REMARK VINA RESULT:      -7.8      0.000      0.000
REMARK  Name = 
REMARK  6 active torsions:
REMARK  status: ('A' for Active; 'I' for Inactive)
REMARK    1  A    between atoms: C_1  and  O_2
REMARK    2  A    between atoms: O_2  and  C_3
REMARK    3  A    between atoms: C_6  and  C_7
REMARK    4  A    between atoms: N_12  and  C_13
REMARK    5  A    between atoms: C_13  and  C_14
REMARK    6  A    between atoms: C_14  and  N_15
REMARK                            x       y       z     vdW  Elec       q    Type
REMARK                         _______ _______ _______ _____ _____    ______ ____
ROOT
ATOM      1  C   UNL     1       2.432   4.282  19.424  0.00  0.00    +0.000 C 
ATOM      2  S   UNL     1       1.541   3.723  20.912  0.00  0.00    +0.000 S 
ATOM      3  C   UNL     1       2.685   2.382  21.226  0.00  0.00    +0.000 C 
ATOM      4  C   UNL     1       3.908   2.647  20.396  0.00  0.00    +0.000 C 
ATOM      5  O   UNL     1       4.928   1.970  20.552  0.00  0.00    +0.000 OA
ATOM      6  N   UNL     1       3.751   3.664  19.466  0.00  0.00    +0.000 N 
ENDROOT
BRANCH   1  10
ATOM      7  C   UNL     1       1.839   8.558  19.012  0.00  0.00    +0.000 A 
ATOM      8  C   UNL     1       1.728   7.949  20.262  0.00  0.00    +0.000 A 
ATOM      9  C   UNL     1       2.008   6.588  20.429  0.00  0.00    +0.000 A 
ATOM     10  C   UNL     1       2.368   5.796  19.328  0.00  0.00    +0.000 A 
ATOM     11  C   UNL     1       2.517   6.430  18.078  0.00  0.00    +0.000 A 
ATOM     12  C   UNL     1       2.251   7.800  17.919  0.00  0.00    +0.000 A 
BRANCH   7  14
ATOM     13  C   UNL     1       0.375  10.235  19.824  0.00  0.00    +0.000 C 
ATOM     14  O   UNL     1       1.457   9.869  18.980  0.00  0.00    +0.000 OA
ENDBRANCH   7  14
ENDBRANCH   1  10
BRANCH   6  15
ATOM     15  C   UNL     1       4.827   4.100  18.553  0.00  0.00    +0.000 C 
BRANCH  15  16
ATOM     16  C   UNL     1       5.852   5.098  19.158  0.00  0.00    +0.000 C 
BRANCH  16  17
ATOM     17  N   UNL     1       7.261   4.997  18.718  0.00  0.00    +0.000 NA
ATOM     18  C   UNL     1       7.891   6.349  18.767  0.00  0.00    +0.000 C 
ATOM     19  C   UNL     1       7.460   7.309  17.634  0.00  0.00    +0.000 C 
ATOM     20  O   UNL     1       7.661   6.722  16.342  0.00  0.00    +0.000 OA
ATOM     21  C   UNL     1       6.956   5.477  16.242  0.00  0.00    +0.000 C 
ATOM     22  C   UNL     1       7.422   4.497  17.332  0.00  0.00    +0.000 C 
ENDBRANCH  16  17
ENDBRANCH  15  16
ENDBRANCH   6  15
TORSDOF 5
ENDMDL
MODEL 2
REMARK VINA RESULT:      -7.5      0.563      1.167
REMARK  Name = 
REMARK  6 active torsions:
REMARK  status: ('A' for Active; 'I' for Inactive)
REMARK    1  A    between atoms: C_1  and  O_2
REMARK    2  A    between atoms: O_2  and  C_3
REMARK    3  A    between atoms: C_6  and  C_7
REMARK    4  A    between atoms: N_12  and  C_13
REMARK    5  A    between atoms: C_13  and  C_14
REMARK    6  A    between atoms: C_14  and  N_15
REMARK                            x       y       z     vdW  Elec       q    Type
REMARK                         _______ _______ _______ _____ _____    ______ ____
ROOT
ATOM      1  C   UNL     1       2.365   3.796  19.470  0.00  0.00    +0.000 C 
ATOM      2  S   UNL     1       1.581   3.327  21.047  0.00  0.00    +0.000 S 
ATOM      3  C   UNL     1       2.866   2.152  21.462  0.00  0.00    +0.000 C 
ATOM      4  C   UNL     1       4.030   2.438  20.557  0.00  0.00    +0.000 C 
ATOM      5  O   UNL     1       5.119   1.888  20.745  0.00  0.00    +0.000 OA
ATOM      6  N   UNL     1       3.740   3.321  19.525  0.00  0.00    +0.000 N 
ENDROOT
BRANCH   1  10
ATOM      7  C   UNL     1       2.151   8.077  18.809  0.00  0.00    +0.000 A 
ATOM      8  C   UNL     1       2.270   7.202  17.729  0.00  0.00    +0.000 A 
ATOM      9  C   UNL     1       2.246   5.816  17.917  0.00  0.00    +0.000 A 
ATOM     10  C   UNL     1       2.142   5.275  19.207  0.00  0.00    +0.000 A 
ATOM     11  C   UNL     1       1.980   6.166  20.287  0.00  0.00    +0.000 A 
ATOM     12  C   UNL     1       1.988   7.557  20.092  0.00  0.00    +0.000 A 
BRANCH   7  14
ATOM     13  C   UNL     1       1.067  10.147  18.414  0.00  0.00    +0.000 C 
ATOM     14  O   UNL     1       2.272   9.399  18.490  0.00  0.00    +0.000 OA
ENDBRANCH   7  14
ENDBRANCH   1  10
BRANCH   6  15
ATOM     15  C   UNL     1       4.738   3.752  18.525  0.00  0.00    +0.000 C 
BRANCH  15  16
ATOM     16  C   UNL     1       5.708   4.872  18.991  0.00  0.00    +0.000 C 
BRANCH  16  17
ATOM     17  N   UNL     1       7.126   4.777  18.577  0.00  0.00    +0.000 NA
ATOM     18  C   UNL     1       7.794   6.092  18.803  0.00  0.00    +0.000 C 
ATOM     19  C   UNL     1       7.426   7.192  17.781  0.00  0.00    +0.000 C 
ATOM     20  O   UNL     1       7.646   6.756  16.434  0.00  0.00    +0.000 OA
ATOM     21  C   UNL     1       6.908   5.556  16.169  0.00  0.00    +0.000 C 
ATOM     22  C   UNL     1       7.312   4.439  17.147  0.00  0.00    +0.000 C 
ENDBRANCH  16  17
ENDBRANCH  15  16
ENDBRANCH   6  15
TORSDOF 5
ENDMDL
MODEL 3
REMARK VINA RESULT:      -7.3      1.186      1.760
REMARK  Name = 
REMARK  6 active torsions:
REMARK  status: ('A' for Active; 'I' for Inactive)
REMARK    1  A    between atoms: C_1  and  O_2
REMARK    2  A    between atoms: O_2  and  C_3
REMARK    3  A    between atoms: C_6  and  C_7
REMARK    4  A    between atoms: N_12  and  C_13
REMARK    5  A    between atoms: C_13  and  C_14
REMARK    6  A    between atoms: C_14  and  N_15
REMARK                            x       y       z     vdW  Elec       q    Type
REMARK                         _______ _______ _______ _____ _____    ______ ____
ROOT
ATOM      1  C   UNL     1       2.333   4.524  19.304  0.00  0.00    +0.000 C 
ATOM      2  S   UNL     1       1.290   3.786  20.603  0.00  0.00    +0.000 S 
ATOM      3  C   UNL     1       2.436   2.446  20.914  0.00  0.00    +0.000 C 
ATOM      4  C   UNL     1       3.740   2.827  20.274  0.00  0.00    +0.000 C 
ATOM      5  O   UNL     1       4.757   2.161  20.482  0.00  0.00    +0.000 OA
ATOM      6  N   UNL     1       3.658   3.936  19.443  0.00  0.00    +0.000 N 
ENDROOT
BRANCH   1  10
ATOM      7  C   UNL     1       1.619   8.801  19.326  0.00  0.00    +0.000 A 
ATOM      8  C   UNL     1       1.537   8.068  20.510  0.00  0.00    +0.000 A 
ATOM      9  C   UNL     1       1.855   6.705  20.538  0.00  0.00    +0.000 A 
ATOM     10  C   UNL     1       2.227   6.038  19.360  0.00  0.00    +0.000 A 
ATOM     11  C   UNL     1       2.346   6.797  18.179  0.00  0.00    +0.000 A 
ATOM     12  C   UNL     1       2.042   8.168  18.160  0.00  0.00    +0.000 A 
BRANCH   7  14
ATOM     13  C   UNL     1       1.769  11.021  18.511  0.00  0.00    +0.000 C 
ATOM     14  O   UNL     1       1.201  10.098  19.428  0.00  0.00    +0.000 OA
ENDBRANCH   7  14
ENDBRANCH   1  10
BRANCH   6  15
ATOM     15  C   UNL     1       4.820   4.492  18.721  0.00  0.00    +0.000 C 
BRANCH  15  16
ATOM     16  C   UNL     1       4.846   4.224  17.191  0.00  0.00    +0.000 C 
BRANCH  16  17
ATOM     17  N   UNL     1       4.891   5.391  16.282  0.00  0.00    +0.000 NA
ATOM     18  C   UNL     1       5.526   4.988  14.994  0.00  0.00    +0.000 C 
ATOM     19  C   UNL     1       7.060   4.802  15.055  0.00  0.00    +0.000 C 
ATOM     20  O   UNL     1       7.712   5.965  15.579  0.00  0.00    +0.000 OA
ATOM     21  C   UNL     1       7.192   6.289  16.876  0.00  0.00    +0.000 C 
ATOM     22  C   UNL     1       5.675   6.532  16.811  0.00  0.00    +0.000 C 
ENDBRANCH  16  17
ENDBRANCH  15  16
ENDBRANCH   6  15
TORSDOF 5
ENDMDL
MODEL 4
REMARK VINA RESULT:      -7.3      1.161      1.335
REMARK  Name = 
REMARK  6 active torsions:
REMARK  status: ('A' for Active; 'I' for Inactive)
REMARK    1  A    between atoms: C_1  and  O_2
REMARK    2  A    between atoms: O_2  and  C_3
REMARK    3  A    between atoms: C_6  and  C_7
REMARK    4  A    between atoms: N_12  and  C_13
REMARK    5  A    between atoms: C_13  and  C_14
REMARK    6  A    between atoms: C_14  and  N_15
REMARK                            x       y       z     vdW  Elec       q    Type
REMARK                         _______ _______ _______ _____ _____    ______ ____
ROOT
ATOM      1  C   UNL     1       2.562   4.699  19.004  0.00  0.00    +0.000 C 
ATOM      2  S   UNL     1       1.218   3.711  19.738  0.00  0.00    +0.000 S 
ATOM      3  C   UNL     1       2.300   2.348  20.153  0.00  0.00    +0.000 C 
ATOM      4  C   UNL     1       3.709   2.859  20.051  0.00  0.00    +0.000 C 
ATOM      5  O   UNL     1       4.654   2.175  20.453  0.00  0.00    +0.000 OA
ATOM      6  N   UNL     1       3.814   4.108  19.456  0.00  0.00    +0.000 N 
ENDROOT
BRANCH   1  10
ATOM      7  C   UNL     1       1.512   8.853  19.678  0.00  0.00    +0.000 A 
ATOM      8  C   UNL     1       1.441   7.930  20.722  0.00  0.00    +0.000 A 
ATOM      9  C   UNL     1       1.865   6.609  20.547  0.00  0.00    +0.000 A 
ATOM     10  C   UNL     1       2.334   6.172  19.298  0.00  0.00    +0.000 A 
ATOM     11  C   UNL     1       2.440   7.122  18.262  0.00  0.00    +0.000 A 
ATOM     12  C   UNL     1       2.029   8.452  18.449  0.00  0.00    +0.000 A 
BRANCH   7  14
ATOM     13  C   UNL     1       0.938  11.015  18.897  0.00  0.00    +0.000 C 
ATOM     14  O   UNL     1       0.989  10.082  19.966  0.00  0.00    +0.000 OA
ENDBRANCH   7  14
ENDBRANCH   1  10
BRANCH   6  15
ATOM     15  C   UNL     1       5.102   4.807  19.263  0.00  0.00    +0.000 C 
BRANCH  15  16
ATOM     16  C   UNL     1       5.956   4.312  18.064  0.00  0.00    +0.000 C 
BRANCH  16  17
ATOM     17  N   UNL     1       6.862   5.283  17.410  0.00  0.00    +0.000 NA
ATOM     18  C   UNL     1       6.126   6.558  17.168  0.00  0.00    +0.000 C 
ATOM     19  C   UNL     1       5.110   6.512  16.003  0.00  0.00    +0.000 C 
ATOM     20  O   UNL     1       5.722   6.062  14.789  0.00  0.00    +0.000 OA
ATOM     21  C   UNL     1       6.328   4.776  14.979  0.00  0.00    +0.000 C 
ATOM     22  C   UNL     1       7.381   4.830  16.099  0.00  0.00    +0.000 C 
ENDBRANCH  16  17
ENDBRANCH  15  16
ENDBRANCH   6  15
TORSDOF 5
ENDMDL
MODEL 5
REMARK VINA RESULT:      -7.2      1.361      1.501
REMARK  Name = 
REMARK  6 active torsions:
REMARK  status: ('A' for Active; 'I' for Inactive)
REMARK    1  A    between atoms: C_1  and  O_2
REMARK    2  A    between atoms: O_2  and  C_3
REMARK    3  A    between atoms: C_6  and  C_7
REMARK    4  A    between atoms: N_12  and  C_13
REMARK    5  A    between atoms: C_13  and  C_14
REMARK    6  A    between atoms: C_14  and  N_15
REMARK                            x       y       z     vdW  Elec       q    Type
REMARK                         _______ _______ _______ _____ _____    ______ ____
ROOT
ATOM      1  C   UNL     1       3.037   4.808  18.163  0.00  0.00    +0.000 C 
ATOM      2  S   UNL     1       1.561   3.948  17.529  0.00  0.00    +0.000 S 
ATOM      3  C   UNL     1       2.268   2.322  17.775  0.00  0.00    +0.000 C 
ATOM      4  C   UNL     1       3.456   2.493  18.679  0.00  0.00    +0.000 C 
ATOM      5  O   UNL     1       4.028   1.508  19.153  0.00  0.00    +0.000 OA
ATOM      6  N   UNL     1       3.828   3.816  18.878  0.00  0.00    +0.000 N 
ENDROOT
BRANCH   1  10
ATOM      7  C   UNL     1       1.449   8.325  20.142  0.00  0.00    +0.000 A 
ATOM      8  C   UNL     1       1.481   7.098  20.805  0.00  0.00    +0.000 A 
ATOM      9  C   UNL     1       2.075   5.976  20.217  0.00  0.00    +0.000 A 
ATOM     10  C   UNL     1       2.616   6.053  18.925  0.00  0.00    +0.000 A 
ATOM     11  C   UNL     1       2.615   7.306  18.280  0.00  0.00    +0.000 A 
ATOM     12  C   UNL     1       2.033   8.434  18.882  0.00  0.00    +0.000 A 
BRANCH   7  14
ATOM     13  C   UNL     1      -0.166   8.889  21.782  0.00  0.00    +0.000 C 
ATOM     14  O   UNL     1       0.767   9.310  20.797  0.00  0.00    +0.000 OA
ENDBRANCH   7  14
ENDBRANCH   1  10
BRANCH   6  15
ATOM     15  C   UNL     1       4.960   4.217  19.738  0.00  0.00    +0.000 C 
BRANCH  15  16
ATOM     16  C   UNL     1       5.799   5.417  19.219  0.00  0.00    +0.000 C 
BRANCH  16  17
ATOM     17  N   UNL     1       7.187   5.154  18.778  0.00  0.00    +0.000 NA
ATOM     18  C   UNL     1       7.930   6.445  18.696  0.00  0.00    +0.000 C 
ATOM     19  C   UNL     1       7.565   7.330  17.482  0.00  0.00    +0.000 C 
ATOM     20  O   UNL     1       7.693   6.613  16.249  0.00  0.00    +0.000 OA
ATOM     21  C   UNL     1       6.883   5.430  16.270  0.00  0.00    +0.000 C 
ATOM     22  C   UNL     1       7.281   4.517  17.444  0.00  0.00    +0.000 C 
ENDBRANCH  16  17
ENDBRANCH  15  16
ENDBRANCH   6  15
TORSDOF 5
ENDMDL
MODEL 6
REMARK VINA RESULT:      -6.9      0.998      1.280
REMARK  Name = 
REMARK  6 active torsions:
REMARK  status: ('A' for Active; 'I' for Inactive)
REMARK    1  A    between atoms: C_1  and  O_2
REMARK    2  A    between atoms: O_2  and  C_3
REMARK    3  A    between atoms: C_6  and  C_7
REMARK    4  A    between atoms: N_12  and  C_13
REMARK    5  A    between atoms: C_13  and  C_14
REMARK    6  A    between atoms: C_14  and  N_15
REMARK                            x       y       z     vdW  Elec       q    Type
REMARK                         _______ _______ _______ _____ _____    ______ ____
ROOT
ATOM      1  C   UNL     1       2.285   4.541  19.369  0.00  0.00    +0.000 C 
ATOM      2  S   UNL     1       1.270   3.798  20.688  0.00  0.00    +0.000 S 
ATOM      3  C   UNL     1       2.415   2.449  20.959  0.00  0.00    +0.000 C 
ATOM      4  C   UNL     1       3.705   2.828  20.290  0.00  0.00    +0.000 C 
ATOM      5  O   UNL     1       4.723   2.154  20.468  0.00  0.00    +0.000 OA
ATOM      6  N   UNL     1       3.610   3.944  19.471  0.00  0.00    +0.000 N 
ENDROOT
BRANCH   1  10
ATOM      7  C   UNL     1       1.606   8.824  19.417  0.00  0.00    +0.000 A 
ATOM      8  C   UNL     1       1.467   8.076  20.586  0.00  0.00    +0.000 A 
ATOM      9  C   UNL     1       1.773   6.711  20.609  0.00  0.00    +0.000 A 
ATOM     10  C   UNL     1       2.189   6.055  19.441  0.00  0.00    +0.000 A 
ATOM     11  C   UNL     1       2.365   6.828  18.275  0.00  0.00    +0.000 A 
ATOM     12  C   UNL     1       2.073   8.202  18.261  0.00  0.00    +0.000 A 
BRANCH   7  14
ATOM     13  C   UNL     1      -0.047  10.346  20.169  0.00  0.00    +0.000 C 
ATOM     14  O   UNL     1       1.195  10.123  19.517  0.00  0.00    +0.000 OA
ENDBRANCH   7  14
ENDBRANCH   1  10
BRANCH   6  15
ATOM     15  C   UNL     1       4.757   4.500  18.724  0.00  0.00    +0.000 C 
BRANCH  15  16
ATOM     16  C   UNL     1       4.830   4.106  17.224  0.00  0.00    +0.000 C 
BRANCH  16  17
ATOM     17  N   UNL     1       6.132   3.644  16.691  0.00  0.00    +0.000 NA
ATOM     18  C   UNL     1       7.225   4.476  17.273  0.00  0.00    +0.000 C 
ATOM     19  C   UNL     1       7.336   5.904  16.692  0.00  0.00    +0.000 C 
ATOM     20  O   UNL     1       7.444   5.885  15.263  0.00  0.00    +0.000 OA
ATOM     21  C   UNL     1       6.330   5.192  14.686  0.00  0.00    +0.000 C 
ATOM     22  C   UNL     1       6.248   3.751  15.217  0.00  0.00    +0.000 C 
ENDBRANCH  16  17
ENDBRANCH  15  16
ENDBRANCH   6  15
TORSDOF 5
ENDMDL
MODEL 7
REMARK VINA RESULT:      -6.9      2.336      5.833
REMARK  Name = 
REMARK  6 active torsions:
REMARK  status: ('A' for Active; 'I' for Inactive)
REMARK    1  A    between atoms: C_1  and  O_2
REMARK    2  A    between atoms: O_2  and  C_3
REMARK    3  A    between atoms: C_6  and  C_7
REMARK    4  A    between atoms: N_12  and  C_13
REMARK    5  A    between atoms: C_13  and  C_14
REMARK    6  A    between atoms: C_14  and  N_15
REMARK                            x       y       z     vdW  Elec       q    Type
REMARK                         _______ _______ _______ _____ _____    ______ ____
ROOT
ATOM      1  C   UNL     1       2.499   6.902  18.183  0.00  0.00    +0.000 C 
ATOM      2  S   UNL     1       2.453   8.689  17.830  0.00  0.00    +0.000 S 
ATOM      3  C   UNL     1       1.561   9.074  19.333  0.00  0.00    +0.000 C 
ATOM      4  C   UNL     1       1.662   7.869  20.223  0.00  0.00    +0.000 C 
ATOM      5  O   UNL     1       1.283   7.924  21.396  0.00  0.00    +0.000 OA
ATOM      6  N   UNL     1       2.175   6.743  19.594  0.00  0.00    +0.000 N 
ENDROOT
BRANCH   1  10
ATOM      7  C   UNL     1       6.126   5.348  16.383  0.00  0.00    +0.000 A 
ATOM      8  C   UNL     1       6.124   6.602  16.995  0.00  0.00    +0.000 A 
ATOM      9  C   UNL     1       4.990   7.078  17.662  0.00  0.00    +0.000 A 
ATOM     10  C   UNL     1       3.812   6.316  17.693  0.00  0.00    +0.000 A 
ATOM     11  C   UNL     1       3.837   5.034  17.107  0.00  0.00    +0.000 A 
ATOM     12  C   UNL     1       4.983   4.554  16.454  0.00  0.00    +0.000 A 
BRANCH   7  14
ATOM     13  C   UNL     1       7.127   4.766  14.316  0.00  0.00    +0.000 C 
ATOM     14  O   UNL     1       7.270   5.047  15.701  0.00  0.00    +0.000 OA
ENDBRANCH   7  14
ENDBRANCH   1  10
BRANCH   6  15
ATOM     15  C   UNL     1       2.372   5.451  20.282  0.00  0.00    +0.000 C 
BRANCH  15  16
ATOM     16  C   UNL     1       1.451   4.294  19.805  0.00  0.00    +0.000 C 
BRANCH  16  17
ATOM     17  N   UNL     1       1.687   2.944  20.364  0.00  0.00    +0.000 NA
ATOM     18  C   UNL     1       3.087   2.860  20.875  0.00  0.00    +0.000 C 
ATOM     19  C   UNL     1       4.172   2.747  19.779  0.00  0.00    +0.000 C 
ATOM     20  O   UNL     1       3.910   1.657  18.887  0.00  0.00    +0.000 OA
ATOM     21  C   UNL     1       2.611   1.795  18.296  0.00  0.00    +0.000 C 
ATOM     22  C   UNL     1       1.521   1.850  19.380  0.00  0.00    +0.000 C 
ENDBRANCH  16  17
ENDBRANCH  15  16
ENDBRANCH   6  15
TORSDOF 5
ENDMDL
MODEL 8
REMARK VINA RESULT:      -6.8      0.977      1.301
REMARK  Name = 
REMARK  6 active torsions:
REMARK  status: ('A' for Active; 'I' for Inactive)
REMARK    1  A    between atoms: C_1  and  O_2
REMARK    2  A    between atoms: O_2  and  C_3
REMARK    3  A    between atoms: C_6  and  C_7
REMARK    4  A    between atoms: N_12  and  C_13
REMARK    5  A    between atoms: C_13  and  C_14
REMARK    6  A    between atoms: C_14  and  N_15
REMARK                            x       y       z     vdW  Elec       q    Type
REMARK                         _______ _______ _______ _____ _____    ______ ____
ROOT
ATOM      1  C   UNL     1       2.523   4.735  18.985  0.00  0.00    +0.000 C 
ATOM      2  S   UNL     1       1.252   3.802  19.897  0.00  0.00    +0.000 S 
ATOM      3  C   UNL     1       2.363   2.451  20.280  0.00  0.00    +0.000 C 
ATOM      4  C   UNL     1       3.757   2.943  20.015  0.00  0.00    +0.000 C 
ATOM      5  O   UNL     1       4.734   2.272  20.361  0.00  0.00    +0.000 OA
ATOM      6  N   UNL     1       3.811   4.157  19.345  0.00  0.00    +0.000 N 
ENDROOT
BRANCH   1  10
ATOM      7  C   UNL     1       1.572   8.936  19.495  0.00  0.00    +0.000 A 
ATOM      8  C   UNL     1       1.498   8.060  20.579  0.00  0.00    +0.000 A 
ATOM      9  C   UNL     1       1.891   6.723  20.454  0.00  0.00    +0.000 A 
ATOM     10  C   UNL     1       2.331   6.224  19.219  0.00  0.00    +0.000 A 
ATOM     11  C   UNL     1       2.441   7.126  18.141  0.00  0.00    +0.000 A 
ATOM     12  C   UNL     1       2.062   8.472  18.276  0.00  0.00    +0.000 A 
BRANCH   7  14
ATOM     13  C   UNL     1       0.211  10.728  18.753  0.00  0.00    +0.000 C 
ATOM     14  O   UNL     1       1.080  10.187  19.737  0.00  0.00    +0.000 OA
ENDBRANCH   7  14
ENDBRANCH   1  10
BRANCH   6  15
ATOM     15  C   UNL     1       5.076   4.832  18.992  0.00  0.00    +0.000 C 
BRANCH  15  16
ATOM     16  C   UNL     1       5.389   4.908  17.472  0.00  0.00    +0.000 C 
BRANCH  16  17
ATOM     17  N   UNL     1       6.810   4.956  17.058  0.00  0.00    +0.000 NA
ATOM     18  C   UNL     1       7.677   4.675  18.240  0.00  0.00    +0.000 C 
ATOM     19  C   UNL     1       7.790   5.837  19.254  0.00  0.00    +0.000 C 
ATOM     20  O   UNL     1       8.205   7.052  18.619  0.00  0.00    +0.000 OA
ATOM     21  C   UNL     1       7.305   7.397  17.558  0.00  0.00    +0.000 C 
ATOM     22  C   UNL     1       7.232   6.268  16.516  0.00  0.00    +0.000 C 
ENDBRANCH  16  17
ENDBRANCH  15  16
ENDBRANCH   6  15
TORSDOF 5
ENDMDL
MODEL 9
REMARK VINA RESULT:      -6.8      1.107      1.983
REMARK  Name = 
REMARK  6 active torsions:
REMARK  status: ('A' for Active; 'I' for Inactive)
REMARK    1  A    between atoms: C_1  and  O_2
REMARK    2  A    between atoms: O_2  and  C_3
REMARK    3  A    between atoms: C_6  and  C_7
REMARK    4  A    between atoms: N_12  and  C_13
REMARK    5  A    between atoms: C_13  and  C_14
REMARK    6  A    between atoms: C_14  and  N_15
REMARK                            x       y       z     vdW  Elec       q    Type
REMARK                         _______ _______ _______ _____ _____    ______ ____
ROOT
ATOM      1  C   UNL     1       2.362   4.007  19.216  0.00  0.00    +0.000 C 
ATOM      2  S   UNL     1       1.306   3.222  20.476  0.00  0.00    +0.000 S 
ATOM      3  C   UNL     1       2.572   2.056  20.968  0.00  0.00    +0.000 C 
ATOM      4  C   UNL     1       3.872   2.560  20.408  0.00  0.00    +0.000 C 
ATOM      5  O   UNL     1       4.940   2.040  20.743  0.00  0.00    +0.000 OA
ATOM      6  N   UNL     1       3.731   3.599  19.500  0.00  0.00    +0.000 N 
ENDROOT
BRANCH   1  10
ATOM      7  C   UNL     1       1.950   8.324  19.141  0.00  0.00    +0.000 A 
ATOM      8  C   UNL     1       2.075   7.608  17.950  0.00  0.00    +0.000 A 
ATOM      9  C   UNL     1       2.115   6.209  17.951  0.00  0.00    +0.000 A 
ATOM     10  C   UNL     1       2.070   5.497  19.159  0.00  0.00    +0.000 A 
ATOM     11  C   UNL     1       1.902   6.228  20.352  0.00  0.00    +0.000 A 
ATOM     12  C   UNL     1       1.845   7.631  20.345  0.00  0.00    +0.000 A 
BRANCH   7  14
ATOM     13  C   UNL     1       0.849  10.408  19.386  0.00  0.00    +0.000 C 
ATOM     14  O   UNL     1       2.007   9.681  18.999  0.00  0.00    +0.000 OA
ENDBRANCH   7  14
ENDBRANCH   1  10
BRANCH   6  15
ATOM     15  C   UNL     1       4.877   4.254  18.835  0.00  0.00    +0.000 C 
BRANCH  15  16
ATOM     16  C   UNL     1       5.011   3.978  17.312  0.00  0.00    +0.000 C 
BRANCH  16  17
ATOM     17  N   UNL     1       4.915   5.130  16.388  0.00  0.00    +0.000 NA
ATOM     18  C   UNL     1       5.514   4.756  15.073  0.00  0.00    +0.000 C 
ATOM     19  C   UNL     1       7.059   4.694  15.056  0.00  0.00    +0.000 C 
ATOM     20  O   UNL     1       7.641   5.915  15.531  0.00  0.00    +0.000 OA
ATOM     21  C   UNL     1       7.164   6.218  16.848  0.00  0.00    +0.000 C 
ATOM     22  C   UNL     1       5.630   6.338  16.859  0.00  0.00    +0.000 C 
ENDBRANCH  16  17
ENDBRANCH  15  16
ENDBRANCH   6  15
TORSDOF 5
ENDMDL
