MODEL 1
REMARK VINA RESULT:      -8.0      0.000      0.000
REMARK  Name = 
REMARK  6 active torsions:
REMARK  status: ('A' for Active; 'I' for Inactive)
REMARK    1  A    between atoms: C_1  and  C_2
REMARK    2  A    between atoms: C_2  and  O_3
REMARK    3  A    between atoms: O_3  and  C_4
REMARK    4  A    between atoms: C_6  and  C_7
REMARK    5  A    between atoms: C_7  and  N_8
REMARK    6  A    between atoms: C_11  and  N_12
REMARK                            x       y       z     vdW  Elec       q    Type
REMARK                         _______ _______ _______ _____ _____    ______ ____
ROOT
ATOM      1  N   UNL     1       2.805   2.727  19.177  0.00  0.00    +0.000 NA
ATOM      2  C   UNL     1       3.379   3.304  20.407  0.00  0.00    +0.000 C 
ATOM      3  C   UNL     1       2.311   3.794  21.377  0.00  0.00    +0.000 C 
ATOM      4  C   UNL     1       1.401   4.847  20.741  0.00  0.00    +0.000 C 
ATOM      5  C   UNL     1       0.766   4.202  19.505  0.00  0.00    +0.000 C 
ATOM      6  C   UNL     1       1.819   3.632  18.551  0.00  0.00    +0.000 C 
ENDROOT
BRANCH   4   7
ATOM      7  N   UNL     1       2.068   6.100  20.352  0.00  0.00    +0.000 N 
ATOM      8  C   UNL     1       1.490   7.279  20.660  0.00  0.00    +0.000 A 
ATOM      9  N   UNL     1       0.698   7.594  21.660  0.00  0.00    +0.000 NA
ATOM     10  C   UNL     1       0.420   8.916  21.463  0.00  0.00    +0.000 A 
ATOM     11  C   UNL     1      -0.371   9.805  22.201  0.00  0.00    +0.000 A 
ATOM     12  C   UNL     1      -0.493  11.122  21.736  0.00  0.00    +0.000 A 
ATOM     13  C   UNL     1       0.162  11.538  20.569  0.00  0.00    +0.000 A 
ATOM     14  C   UNL     1       0.966  10.660  19.827  0.00  0.00    +0.000 A 
ATOM     15  C   UNL     1       1.059   9.364  20.320  0.00  0.00    +0.000 A 
ATOM     16  O   UNL     1       1.762   8.310  19.801  0.00  0.00    +0.000 OA
ATOM     17  H   UNL     1       2.457   6.082  19.415  0.00  0.00    +0.000 HD
ENDBRANCH   4   7
BRANCH   1  18
ATOM     18  C   UNL     1       3.877   2.468  18.188  0.00  0.00    +0.000 C 
BRANCH  18  21
ATOM     19  C   UNL     1       5.809   5.239  16.349  0.00  0.00    +0.000 A 
ATOM     20  C   UNL     1       5.030   4.094  16.601  0.00  0.00    +0.000 A 
ATOM     21  C   UNL     1       4.817   3.623  17.907  0.00  0.00    +0.000 A 
ATOM     22  C   UNL     1       5.419   4.304  18.971  0.00  0.00    +0.000 A 
ATOM     23  C   UNL     1       6.161   5.460  18.739  0.00  0.00    +0.000 A 
ATOM     24  C   UNL     1       6.333   5.951  17.439  0.00  0.00    +0.000 A 
ATOM     25 CL   UNL     1       7.115   7.490  17.327  0.00  0.00    +0.000 Cl
BRANCH  19  26
ATOM     26  O   UNL     1       5.907   5.548  15.015  0.00  0.00    +0.000 OA
BRANCH  26  28
ATOM     27  C   UNL     1       6.189   3.870  13.319  0.00  0.00    +0.000 C 
ATOM     28  C   UNL     1       6.887   4.834  14.260  0.00  0.00    +0.000 C 
ENDBRANCH  26  28
ENDBRANCH  19  26
ENDBRANCH  18  21
ENDBRANCH   1  18
TORSDOF 5
ENDMDL
MODEL 2
REMARK VINA RESULT:      -8.0      1.411      2.232
REMARK  Name = 
REMARK  6 active torsions:
REMARK  status: ('A' for Active; 'I' for Inactive)
REMARK    1  A    between atoms: C_1  and  C_2
REMARK    2  A    between atoms: C_2  and  O_3
REMARK    3  A    between atoms: O_3  and  C_4
REMARK    4  A    between atoms: C_6  and  C_7
REMARK    5  A    between atoms: C_7  and  N_8
REMARK    6  A    between atoms: C_11  and  N_12
REMARK                            x       y       z     vdW  Elec       q    Type
REMARK                         _______ _______ _______ _____ _____    ______ ____
ROOT
ATOM      1  N   UNL     1       2.436   2.554  19.542  0.00  0.00    +0.000 NA
ATOM      2  C   UNL     1       3.307   3.175  20.557  0.00  0.00    +0.000 C 
ATOM      3  C   UNL     1       2.519   3.918  21.629  0.00  0.00    +0.000 C 
ATOM      4  C   UNL     1       1.634   5.014  21.031  0.00  0.00    +0.000 C 
ATOM      5  C   UNL     1       0.695   4.334  20.030  0.00  0.00    +0.000 C 
ATOM      6  C   UNL     1       1.462   3.517  18.988  0.00  0.00    +0.000 C 
ENDROOT
BRANCH   4   7
ATOM      7  N   UNL     1       2.356   6.107  20.361  0.00  0.00    +0.000 N 
ATOM      8  C   UNL     1       1.783   7.326  20.280  0.00  0.00    +0.000 A 
ATOM      9  N   UNL     1       0.925   7.909  21.087  0.00  0.00    +0.000 NA
ATOM     10  C   UNL     1       0.693   9.122  20.506  0.00  0.00    +0.000 A 
ATOM     11  C   UNL     1      -0.131  10.184  20.902  0.00  0.00    +0.000 A 
ATOM     12  C   UNL     1      -0.188  11.317  20.078  0.00  0.00    +0.000 A 
ATOM     13  C   UNL     1       0.562  11.388  18.897  0.00  0.00    +0.000 A 
ATOM     14  C   UNL     1       1.400  10.338  18.496  0.00  0.00    +0.000 A 
ATOM     15  C   UNL     1       1.427   9.232  19.338  0.00  0.00    +0.000 A 
ATOM     16  O   UNL     1       2.143   8.075  19.191  0.00  0.00    +0.000 OA
ATOM     17  H   UNL     1       2.815   5.827  19.500  0.00  0.00    +0.000 HD
ENDBRANCH   4   7
BRANCH   1  18
ATOM     18  C   UNL     1       3.252   2.036  18.420  0.00  0.00    +0.000 C 
BRANCH  18  21
ATOM     19  C   UNL     1       6.291   4.275  17.680  0.00  0.00    +0.000 A 
ATOM     20  C   UNL     1       5.378   3.439  18.350  0.00  0.00    +0.000 A 
ATOM     21  C   UNL     1       4.174   3.035  17.750  0.00  0.00    +0.000 A 
ATOM     22  C   UNL     1       3.877   3.502  16.465  0.00  0.00    +0.000 A 
ATOM     23  C   UNL     1       4.789   4.299  15.776  0.00  0.00    +0.000 A 
ATOM     24  C   UNL     1       6.008   4.661  16.361  0.00  0.00    +0.000 A 
ATOM     25 CL   UNL     1       7.110   5.491  15.318  0.00  0.00    +0.000 Cl
BRANCH  19  26
ATOM     26  O   UNL     1       7.410   4.564  18.420  0.00  0.00    +0.000 OA
BRANCH  26  28
ATOM     27  C   UNL     1       7.966   6.900  18.489  0.00  0.00    +0.000 C 
ATOM     28  C   UNL     1       7.354   5.732  19.240  0.00  0.00    +0.000 C 
ENDBRANCH  26  28
ENDBRANCH  19  26
ENDBRANCH  18  21
ENDBRANCH   1  18
TORSDOF 5
ENDMDL
MODEL 3
REMARK VINA RESULT:      -7.9      4.062      6.468
REMARK  Name = 
REMARK  6 active torsions:
REMARK  status: ('A' for Active; 'I' for Inactive)
REMARK    1  A    between atoms: C_1  and  C_2
REMARK    2  A    between atoms: C_2  and  O_3
REMARK    3  A    between atoms: O_3  and  C_4
REMARK    4  A    between atoms: C_6  and  C_7
REMARK    5  A    between atoms: C_7  and  N_8
REMARK    6  A    between atoms: C_11  and  N_12
REMARK                            x       y       z     vdW  Elec       q    Type
REMARK                         _______ _______ _______ _____ _____    ______ ____
ROOT
ATOM      1  N   UNL     1       1.397   9.744  18.959  0.00  0.00    +0.000 NA
ATOM      2  C   UNL     1       1.591  11.108  18.434  0.00  0.00    +0.000 C 
ATOM      3  C   UNL     1       1.128  12.183  19.410  0.00  0.00    +0.000 C 
ATOM      4  C   UNL     1      -0.349  12.023  19.777  0.00  0.00    +0.000 C 
ATOM      5  C   UNL     1      -0.512  10.625  20.381  0.00  0.00    +0.000 C 
ATOM      6  C   UNL     1       0.019   9.533  19.449  0.00  0.00    +0.000 C 
ENDROOT
BRANCH   4   7
ATOM      7  N   UNL     1      -1.294  12.189  18.661  0.00  0.00    +0.000 N 
ATOM      8  C   UNL     1      -2.620  12.148  18.907  0.00  0.00    +0.000 A 
ATOM      9  N   UNL     1      -3.287  12.480  19.989  0.00  0.00    +0.000 NA
ATOM     10  C   UNL     1      -4.590  12.229  19.668  0.00  0.00    +0.000 A 
ATOM     11  C   UNL     1      -5.764  12.385  20.416  0.00  0.00    +0.000 A 
ATOM     12  C   UNL     1      -6.978  12.015  19.823  0.00  0.00    +0.000 A 
ATOM     13  C   UNL     1      -7.018  11.509  18.517  0.00  0.00    +0.000 A 
ATOM     14  C   UNL     1      -5.852  11.358  17.753  0.00  0.00    +0.000 A 
ATOM     15  C   UNL     1      -4.668  11.734  18.378  0.00  0.00    +0.000 A 
ATOM     16  O   UNL     1      -3.396  11.689  17.876  0.00  0.00    +0.000 OA
ATOM     17  H   UNL     1      -1.030  11.680  17.824  0.00  0.00    +0.000 HD
ENDBRANCH   4   7
BRANCH   1  18
ATOM     18  C   UNL     1       1.659   8.748  17.896  0.00  0.00    +0.000 C 
BRANCH  18  21
ATOM     19  C   UNL     1       3.221   5.638  19.535  0.00  0.00    +0.000 A 
ATOM     20  C   UNL     1       2.375   6.734  19.284  0.00  0.00    +0.000 A 
ATOM     21  C   UNL     1       2.636   7.643  18.245  0.00  0.00    +0.000 A 
ATOM     22  C   UNL     1       3.782   7.455  17.464  0.00  0.00    +0.000 A 
ATOM     23  C   UNL     1       4.608   6.353  17.678  0.00  0.00    +0.000 A 
ATOM     24  C   UNL     1       4.317   5.426  18.685  0.00  0.00    +0.000 A 
ATOM     25 CL   UNL     1       5.323   4.018  18.706  0.00  0.00    +0.000 Cl
BRANCH  19  26
ATOM     26  O   UNL     1       2.808   4.860  20.588  0.00  0.00    +0.000 OA
BRANCH  26  28
ATOM     27  C   UNL     1       1.309   3.082  21.193  0.00  0.00    +0.000 C 
ATOM     28  C   UNL     1       1.433   4.473  20.599  0.00  0.00    +0.000 C 
ENDBRANCH  26  28
ENDBRANCH  19  26
ENDBRANCH  18  21
ENDBRANCH   1  18
TORSDOF 5
ENDMDL
MODEL 4
REMARK VINA RESULT:      -7.9      2.848      8.764
REMARK  Name = 
REMARK  6 active torsions:
REMARK  status: ('A' for Active; 'I' for Inactive)
REMARK    1  A    between atoms: C_1  and  C_2
REMARK    2  A    between atoms: C_2  and  O_3
REMARK    3  A    between atoms: O_3  and  C_4
REMARK    4  A    between atoms: C_6  and  C_7
REMARK    5  A    between atoms: C_7  and  N_8
REMARK    6  A    between atoms: C_11  and  N_12
REMARK                            x       y       z     vdW  Elec       q    Type
REMARK                         _______ _______ _______ _____ _____    ______ ____
ROOT
ATOM      1  N   UNL     1       4.389   6.585  18.633  0.00  0.00    +0.000 NA
ATOM      2  C   UNL     1       4.900   5.407  19.358  0.00  0.00    +0.000 C 
ATOM      3  C   UNL     1       6.422   5.387  19.443  0.00  0.00    +0.000 C 
ATOM      4  C   UNL     1       7.071   5.408  18.058  0.00  0.00    +0.000 C 
ATOM      5  C   UNL     1       6.578   6.674  17.351  0.00  0.00    +0.000 C 
ATOM      6  C   UNL     1       5.049   6.755  17.322  0.00  0.00    +0.000 C 
ENDROOT
BRANCH   4   7
ATOM      7  N   UNL     1       6.791   4.235  17.215  0.00  0.00    +0.000 N 
ATOM      8  C   UNL     1       6.895   4.343  15.875  0.00  0.00    +0.000 A 
ATOM      9  N   UNL     1       7.662   5.126  15.150  0.00  0.00    +0.000 NA
ATOM     10  C   UNL     1       7.341   4.808  13.862  0.00  0.00    +0.000 A 
ATOM     11  C   UNL     1       7.826   5.309  12.647  0.00  0.00    +0.000 A 
ATOM     12  C   UNL     1       7.281   4.801  11.460  0.00  0.00    +0.000 A 
ATOM     13  C   UNL     1       6.284   3.817  11.487  0.00  0.00    +0.000 A 
ATOM     14  C   UNL     1       5.798   3.299  12.696  0.00  0.00    +0.000 A 
ATOM     15  C   UNL     1       6.362   3.831  13.850  0.00  0.00    +0.000 A 
ATOM     16  O   UNL     1       6.076   3.518  15.152  0.00  0.00    +0.000 OA
ATOM     17  H   UNL     1       5.975   3.707  17.508  0.00  0.00    +0.000 HD
ENDBRANCH   4   7
BRANCH   1  18
ATOM     18  C   UNL     1       2.934   6.444  18.395  0.00  0.00    +0.000 C 
BRANCH  18  21
ATOM     19  C   UNL     1       0.789   8.893  20.444  0.00  0.00    +0.000 A 
ATOM     20  C   UNL     1       1.485   7.736  20.046  0.00  0.00    +0.000 A 
ATOM     21  C   UNL     1       2.079   7.636  18.777  0.00  0.00    +0.000 A 
ATOM     22  C   UNL     1       1.946   8.709  17.889  0.00  0.00    +0.000 A 
ATOM     23  C   UNL     1       1.292   9.874  18.284  0.00  0.00    +0.000 A 
ATOM     24  C   UNL     1       0.742   9.986  19.566  0.00  0.00    +0.000 A 
ATOM     25 CL   UNL     1       0.130  11.552  19.974  0.00  0.00    +0.000 Cl
BRANCH  19  26
ATOM     26  O   UNL     1       0.277   8.810  21.715  0.00  0.00    +0.000 OA
BRANCH  26  28
ATOM     27  C   UNL     1      -0.891  10.329  23.164  0.00  0.00    +0.000 C 
ATOM     28  C   UNL     1       0.446   9.955  22.551  0.00  0.00    +0.000 C 
ENDBRANCH  26  28
ENDBRANCH  19  26
ENDBRANCH  18  21
ENDBRANCH   1  18
TORSDOF 5
ENDMDL
MODEL 5
REMARK VINA RESULT:      -7.9      3.556      5.316
REMARK  Name = 
REMARK  6 active torsions:
REMARK  status: ('A' for Active; 'I' for Inactive)
REMARK    1  A    between atoms: C_1  and  C_2
REMARK    2  A    between atoms: C_2  and  O_3
REMARK    3  A    between atoms: O_3  and  C_4
REMARK    4  A    between atoms: C_6  and  C_7
REMARK    5  A    between atoms: C_7  and  N_8
REMARK    6  A    between atoms: C_11  and  N_12
REMARK                            x       y       z     vdW  Elec       q    Type
REMARK                         _______ _______ _______ _____ _____    ______ ____
ROOT
ATOM      1  N   UNL     1       1.634   8.258  18.542  0.00  0.00    +0.000 NA
ATOM      2  C   UNL     1       1.760   8.439  20.000  0.00  0.00    +0.000 C 
ATOM      3  C   UNL     1       0.533   9.102  20.616  0.00  0.00    +0.000 C 
ATOM      4  C   UNL     1       0.250  10.470  19.993  0.00  0.00    +0.000 C 
ATOM      5  C   UNL     1       0.057  10.246  18.490  0.00  0.00    +0.000 C 
ATOM      6  C   UNL     1       1.245   9.511  17.863  0.00  0.00    +0.000 C 
ENDROOT
BRANCH   4   7
ATOM      7  N   UNL     1       1.294  11.485  20.207  0.00  0.00    +0.000 N 
ATOM      8  C   UNL     1       1.081  12.750  19.790  0.00  0.00    +0.000 A 
ATOM      9  N   UNL     1      -0.044  13.418  19.664  0.00  0.00    +0.000 NA
ATOM     10  C   UNL     1       0.345  14.642  19.199  0.00  0.00    +0.000 A 
ATOM     11  C   UNL     1      -0.406  15.778  18.873  0.00  0.00    +0.000 A 
ATOM     12  C   UNL     1       0.277  16.903  18.388  0.00  0.00    +0.000 A 
ATOM     13  C   UNL     1       1.670  16.892  18.239  0.00  0.00    +0.000 A 
ATOM     14  C   UNL     1       2.434  15.765  18.573  0.00  0.00    +0.000 A 
ATOM     15  C   UNL     1       1.720  14.670  19.048  0.00  0.00    +0.000 A 
ATOM     16  O   UNL     1       2.204  13.451  19.438  0.00  0.00    +0.000 OA
ATOM     17  H   UNL     1       2.233  11.155  20.008  0.00  0.00    +0.000 HD
ENDBRANCH   4   7
BRANCH   1  18
ATOM     18  C   UNL     1       2.925   7.813  17.972  0.00  0.00    +0.000 C 
BRANCH  18  21
ATOM     19  C   UNL     1       4.776   4.480  18.481  0.00  0.00    +0.000 A 
ATOM     20  C   UNL     1       4.520   5.848  18.279  0.00  0.00    +0.000 A 
ATOM     21  C   UNL     1       3.218   6.328  18.063  0.00  0.00    +0.000 A 
ATOM     22  C   UNL     1       2.163   5.409  18.026  0.00  0.00    +0.000 A 
ATOM     23  C   UNL     1       2.398   4.056  18.262  0.00  0.00    +0.000 A 
ATOM     24  C   UNL     1       3.692   3.590  18.522  0.00  0.00    +0.000 A 
ATOM     25 CL   UNL     1       3.800   1.925  18.980  0.00  0.00    +0.000 Cl
BRANCH  19  26
ATOM     26  O   UNL     1       6.106   4.198  18.677  0.00  0.00    +0.000 OA
BRANCH  26  28
ATOM     27  C   UNL     1       7.871   5.733  19.227  0.00  0.00    +0.000 C 
ATOM     28  C   UNL     1       7.046   5.114  18.113  0.00  0.00    +0.000 C 
ENDBRANCH  26  28
ENDBRANCH  19  26
ENDBRANCH  18  21
ENDBRANCH   1  18
TORSDOF 5
ENDMDL
MODEL 6
REMARK VINA RESULT:      -7.9      4.413      7.228
REMARK  Name = 
REMARK  6 active torsions:
REMARK  status: ('A' for Active; 'I' for Inactive)
REMARK    1  A    between atoms: C_1  and  C_2
REMARK    2  A    between atoms: C_2  and  O_3
REMARK    3  A    between atoms: O_3  and  C_4
REMARK    4  A    between atoms: C_6  and  C_7
REMARK    5  A    between atoms: C_7  and  N_8
REMARK    6  A    between atoms: C_11  and  N_12
REMARK                            x       y       z     vdW  Elec       q    Type
REMARK                         _______ _______ _______ _____ _____    ______ ____
ROOT
ATOM      1  N   UNL     1       7.155   7.214  17.152  0.00  0.00    +0.000 NA
ATOM      2  C   UNL     1       7.629   5.977  16.505  0.00  0.00    +0.000 C 
ATOM      3  C   UNL     1       6.592   5.376  15.562  0.00  0.00    +0.000 C 
ATOM      4  C   UNL     1       5.280   5.060  16.283  0.00  0.00    +0.000 C 
ATOM      5  C   UNL     1       4.775   6.373  16.889  0.00  0.00    +0.000 C 
ATOM      6  C   UNL     1       5.830   7.036  17.780  0.00  0.00    +0.000 C 
ENDROOT
BRANCH   4   7
ATOM      7  N   UNL     1       5.373   4.037  17.337  0.00  0.00    +0.000 N 
ATOM      8  C   UNL     1       4.295   3.780  18.106  0.00  0.00    +0.000 A 
ATOM      9  N   UNL     1       3.016   3.887  17.826  0.00  0.00    +0.000 NA
ATOM     10  C   UNL     1       2.390   3.501  18.976  0.00  0.00    +0.000 A 
ATOM     11  C   UNL     1       1.028   3.406  19.290  0.00  0.00    +0.000 A 
ATOM     12  C   UNL     1       0.676   2.996  20.583  0.00  0.00    +0.000 A 
ATOM     13  C   UNL     1       1.657   2.684  21.533  0.00  0.00    +0.000 A 
ATOM     14  C   UNL     1       3.024   2.764  21.228  0.00  0.00    +0.000 A 
ATOM     15  C   UNL     1       3.331   3.176  19.937  0.00  0.00    +0.000 A 
ATOM     16  O   UNL     1       4.568   3.346  19.375  0.00  0.00    +0.000 OA
ATOM     17  H   UNL     1       6.239   4.073  17.866  0.00  0.00    +0.000 HD
ENDBRANCH   4   7
BRANCH   1  18
ATOM     18  C   UNL     1       8.106   7.631  18.208  0.00  0.00    +0.000 C 
BRANCH  18  21
ATOM     19  C   UNL     1       9.527  11.015  19.360  0.00  0.00    +0.000 A 
ATOM     20  C   UNL     1       9.199   9.647  19.320  0.00  0.00    +0.000 A 
ATOM     21  C   UNL     1       8.357   9.122  18.327  0.00  0.00    +0.000 A 
ATOM     22  C   UNL     1       7.818   9.995  17.375  0.00  0.00    +0.000 A 
ATOM     23  C   UNL     1       8.164  11.345  17.381  0.00  0.00    +0.000 A 
ATOM     24  C   UNL     1       9.041  11.854  18.346  0.00  0.00    +0.000 A 
ATOM     25 CL   UNL     1       9.521  13.500  18.113  0.00  0.00    +0.000 Cl
BRANCH  19  26
ATOM     26  O   UNL     1      10.361  11.345  20.400  0.00  0.00    +0.000 OA
BRANCH  26  28
ATOM     27  C   UNL     1       8.726  11.858  22.084  0.00  0.00    +0.000 C 
ATOM     28  C   UNL     1       9.910  12.371  21.285  0.00  0.00    +0.000 C 
ENDBRANCH  26  28
ENDBRANCH  19  26
ENDBRANCH  18  21
ENDBRANCH   1  18
TORSDOF 5
ENDMDL
MODEL 7
REMARK VINA RESULT:      -7.8      3.038      8.617
REMARK  Name = 
REMARK  6 active torsions:
REMARK  status: ('A' for Active; 'I' for Inactive)
REMARK    1  A    between atoms: C_1  and  C_2
REMARK    2  A    between atoms: C_2  and  O_3
REMARK    3  A    between atoms: O_3  and  C_4
REMARK    4  A    between atoms: C_6  and  C_7
REMARK    5  A    between atoms: C_7  and  N_8
REMARK    6  A    between atoms: C_11  and  N_12
REMARK                            x       y       z     vdW  Elec       q    Type
REMARK                         _______ _______ _______ _____ _____    ______ ____
ROOT
ATOM      1  N   UNL     1       4.486   6.735  18.625  0.00  0.00    +0.000 NA
ATOM      2  C   UNL     1       4.909   5.521  19.348  0.00  0.00    +0.000 C 
ATOM      3  C   UNL     1       6.425   5.389  19.434  0.00  0.00    +0.000 C 
ATOM      4  C   UNL     1       7.075   5.365  18.049  0.00  0.00    +0.000 C 
ATOM      5  C   UNL     1       6.676   6.665  17.344  0.00  0.00    +0.000 C 
ATOM      6  C   UNL     1       5.157   6.858  17.315  0.00  0.00    +0.000 C 
ENDROOT
BRANCH   4   7
ATOM      7  N   UNL     1       6.710   4.217  17.204  0.00  0.00    +0.000 N 
ATOM      8  C   UNL     1       6.831   4.317  15.865  0.00  0.00    +0.000 A 
ATOM      9  N   UNL     1       7.661   5.037  15.145  0.00  0.00    +0.000 NA
ATOM     10  C   UNL     1       7.323   4.746  13.855  0.00  0.00    +0.000 A 
ATOM     11  C   UNL     1       7.854   5.207  12.643  0.00  0.00    +0.000 A 
ATOM     12  C   UNL     1       7.279   4.743  11.452  0.00  0.00    +0.000 A 
ATOM     13  C   UNL     1       6.208   3.839  11.473  0.00  0.00    +0.000 A 
ATOM     14  C   UNL     1       5.675   3.360  12.679  0.00  0.00    +0.000 A 
ATOM     15  C   UNL     1       6.272   3.847  13.836  0.00  0.00    +0.000 A 
ATOM     16  O   UNL     1       5.954   3.557  15.136  0.00  0.00    +0.000 OA
ATOM     17  H   UNL     1       5.853   3.754  17.492  0.00  0.00    +0.000 HD
ENDBRANCH   4   7
BRANCH   1  18
ATOM     18  C   UNL     1       3.025   6.701  18.386  0.00  0.00    +0.000 C 
BRANCH  18  21
ATOM     19  C   UNL     1       0.862   9.792  19.137  0.00  0.00    +0.000 A 
ATOM     20  C   UNL     1       1.720   8.888  18.484  0.00  0.00    +0.000 A 
ATOM     21  C   UNL     1       2.205   7.739  19.128  0.00  0.00    +0.000 A 
ATOM     22  C   UNL     1       1.839   7.512  20.459  0.00  0.00    +0.000 A 
ATOM     23  C   UNL     1       0.961   8.380  21.106  0.00  0.00    +0.000 A 
ATOM     24  C   UNL     1       0.444   9.499  20.444  0.00  0.00    +0.000 A 
ATOM     25 CL   UNL     1      -0.774  10.373  21.309  0.00  0.00    +0.000 Cl
BRANCH  19  26
ATOM     26  O   UNL     1       0.491  10.855  18.351  0.00  0.00    +0.000 OA
BRANCH  26  28
ATOM     27  C   UNL     1      -0.212  13.148  18.506  0.00  0.00    +0.000 C 
ATOM     28  C   UNL     1       0.897  12.152  18.791  0.00  0.00    +0.000 C 
ENDBRANCH  26  28
ENDBRANCH  19  26
ENDBRANCH  18  21
ENDBRANCH   1  18
TORSDOF 5
ENDMDL
MODEL 8
REMARK VINA RESULT:      -7.8      3.538      5.150
REMARK  Name = 
REMARK  6 active torsions:
REMARK  status: ('A' for Active; 'I' for Inactive)
REMARK    1  A    between atoms: C_1  and  C_2
REMARK    2  A    between atoms: C_2  and  O_3
REMARK    3  A    between atoms: O_3  and  C_4
REMARK    4  A    between atoms: C_6  and  C_7
REMARK    5  A    between atoms: C_7  and  N_8
REMARK    6  A    between atoms: C_11  and  N_12
REMARK                            x       y       z     vdW  Elec       q    Type
REMARK                         _______ _______ _______ _____ _____    ______ ____
ROOT
ATOM      1  N   UNL     1       1.647   8.210  18.704  0.00  0.00    +0.000 NA
ATOM      2  C   UNL     1       1.698   8.491  20.150  0.00  0.00    +0.000 C 
ATOM      3  C   UNL     1       0.458   9.223  20.649  0.00  0.00    +0.000 C 
ATOM      4  C   UNL     1       0.243  10.549  19.917  0.00  0.00    +0.000 C 
ATOM      5  C   UNL     1       0.126  10.223  18.425  0.00  0.00    +0.000 C 
ATOM      6  C   UNL     1       1.327   9.419  17.918  0.00  0.00    +0.000 C 
ENDROOT
BRANCH   4   7
ATOM      7  N   UNL     1       1.299  11.555  20.117  0.00  0.00    +0.000 N 
ATOM      8  C   UNL     1       1.091  12.823  19.708  0.00  0.00    +0.000 A 
ATOM      9  N   UNL     1      -0.030  13.501  19.603  0.00  0.00    +0.000 NA
ATOM     10  C   UNL     1       0.362  14.723  19.136  0.00  0.00    +0.000 A 
ATOM     11  C   UNL     1      -0.384  15.867  18.827  0.00  0.00    +0.000 A 
ATOM     12  C   UNL     1       0.300  16.987  18.334  0.00  0.00    +0.000 A 
ATOM     13  C   UNL     1       1.690  16.965  18.162  0.00  0.00    +0.000 A 
ATOM     14  C   UNL     1       2.451  15.830  18.480  0.00  0.00    +0.000 A 
ATOM     15  C   UNL     1       1.735  14.740  18.962  0.00  0.00    +0.000 A 
ATOM     16  O   UNL     1       2.214  13.515  19.340  0.00  0.00    +0.000 OA
ATOM     17  H   UNL     1       2.232  11.216  19.902  0.00  0.00    +0.000 HD
ENDBRANCH   4   7
BRANCH   1  18
ATOM     18  C   UNL     1       2.956   7.698  18.238  0.00  0.00    +0.000 C 
BRANCH  18  21
ATOM     19  C   UNL     1       4.252   4.242  17.157  0.00  0.00    +0.000 A 
ATOM     20  C   UNL     1       4.121   5.636  17.299  0.00  0.00    +0.000 A 
ATOM     21  C   UNL     1       3.032   6.207  17.976  0.00  0.00    +0.000 A 
ATOM     22  C   UNL     1       2.048   5.359  18.496  0.00  0.00    +0.000 A 
ATOM     23  C   UNL     1       2.184   3.975  18.396  0.00  0.00    +0.000 A 
ATOM     24  C   UNL     1       3.296   3.411  17.759  0.00  0.00    +0.000 A 
ATOM     25 CL   UNL     1       3.420   1.689  17.878  0.00  0.00    +0.000 Cl
BRANCH  19  26
ATOM     26  O   UNL     1       5.379   3.868  16.466  0.00  0.00    +0.000 OA
BRANCH  26  28
ATOM     27  C   UNL     1       6.983   4.744  14.907  0.00  0.00    +0.000 C 
ATOM     28  C   UNL     1       5.527   4.392  15.146  0.00  0.00    +0.000 C 
ENDBRANCH  26  28
ENDBRANCH  19  26
ENDBRANCH  18  21
ENDBRANCH   1  18
TORSDOF 5
ENDMDL
MODEL 9
REMARK VINA RESULT:      -7.8      3.679      5.769
REMARK  Name = 
REMARK  6 active torsions:
REMARK  status: ('A' for Active; 'I' for Inactive)
REMARK    1  A    between atoms: C_1  and  C_2
REMARK    2  A    between atoms: C_2  and  O_3
REMARK    3  A    between atoms: O_3  and  C_4
REMARK    4  A    between atoms: C_6  and  C_7
REMARK    5  A    between atoms: C_7  and  N_8
REMARK    6  A    between atoms: C_11  and  N_12
REMARK                            x       y       z     vdW  Elec       q    Type
REMARK                         _______ _______ _______ _____ _____    ______ ____
ROOT
ATOM      1  N   UNL     1       1.531   8.400  18.627  0.00  0.00    +0.000 NA
ATOM      2  C   UNL     1       1.649   8.608  20.082  0.00  0.00    +0.000 C 
ATOM      3  C   UNL     1       0.429   9.304  20.674  0.00  0.00    +0.000 C 
ATOM      4  C   UNL     1       0.175  10.664  20.021  0.00  0.00    +0.000 C 
ATOM      5  C   UNL     1      -0.010  10.414  18.522  0.00  0.00    +0.000 C 
ATOM      6  C   UNL     1       1.170   9.646  17.919  0.00  0.00    +0.000 C 
ENDROOT
BRANCH   4   7
ATOM      7  N   UNL     1       1.234  11.666  20.224  0.00  0.00    +0.000 N 
ATOM      8  C   UNL     1       1.044  12.927  19.787  0.00  0.00    +0.000 A 
ATOM      9  N   UNL     1      -0.069  13.612  19.647  0.00  0.00    +0.000 NA
ATOM     10  C   UNL     1       0.342  14.821  19.165  0.00  0.00    +0.000 A 
ATOM     11  C   UNL     1      -0.389  15.965  18.820  0.00  0.00    +0.000 A 
ATOM     12  C   UNL     1       0.313  17.071  18.320  0.00  0.00    +0.000 A 
ATOM     13  C   UNL     1       1.706  17.035  18.176  0.00  0.00    +0.000 A 
ATOM     14  C   UNL     1       2.451  15.901  18.530  0.00  0.00    +0.000 A 
ATOM     15  C   UNL     1       1.717  14.825  19.018  0.00  0.00    +0.000 A 
ATOM     16  O   UNL     1       2.180  13.604  19.429  0.00  0.00    +0.000 OA
ATOM     17  H   UNL     1       2.169  11.317  20.033  0.00  0.00    +0.000 HD
ENDBRANCH   4   7
BRANCH   1  18
ATOM     18  C   UNL     1       2.820   7.921  18.076  0.00  0.00    +0.000 C 
BRANCH  18  21
ATOM     19  C   UNL     1       2.192   4.127  17.990  0.00  0.00    +0.000 A 
ATOM     20  C   UNL     1       1.977   5.516  18.066  0.00  0.00    +0.000 A 
ATOM     21  C   UNL     1       3.048   6.423  18.121  0.00  0.00    +0.000 A 
ATOM     22  C   UNL     1       4.353   5.919  18.124  0.00  0.00    +0.000 A 
ATOM     23  C   UNL     1       4.580   4.549  18.011  0.00  0.00    +0.000 A 
ATOM     24  C   UNL     1       3.509   3.653  17.911  0.00  0.00    +0.000 A 
ATOM     25 CL   UNL     1       3.948   2.010  17.588  0.00  0.00    +0.000 Cl
BRANCH  19  26
ATOM     26  O   UNL     1       1.029   3.398  17.944  0.00  0.00    +0.000 OA
BRANCH  26  28
ATOM     27  C   UNL     1       0.899   3.059  20.319  0.00  0.00    +0.000 C 
ATOM     28  C   UNL     1       0.856   2.402  18.952  0.00  0.00    +0.000 C 
ENDBRANCH  26  28
ENDBRANCH  19  26
ENDBRANCH  18  21
ENDBRANCH   1  18
TORSDOF 5
ENDMDL
