MODEL 1
REMARK VINA RESULT:      -8.0      0.000      0.000
REMARK  Name = 
REMARK  2 active torsions:
REMARK  status: ('A' for Active; 'I' for Inactive)
REMARK    1  A    between atoms: C_5  and  C_6
REMARK    2  A    between atoms: C_9  and  C_10
REMARK                            x       y       z     vdW  Elec       q    Type
REMARK                         _______ _______ _______ _____ _____    ______ ____
ROOT
ATOM      1  C   UNL     1       5.432   3.876  17.852  0.00  0.00    +0.000 A 
ATOM      2  N   UNL     1       5.927   4.132  19.074  0.00  0.00    +0.000 NA
ATOM      3  O   UNL     1       5.024   3.502  19.937  0.00  0.00    +0.000 OA
ATOM      4  C   UNL     1       4.068   2.939  19.145  0.00  0.00    +0.000 A 
ATOM      5  N   UNL     1       4.278   3.132  17.867  0.00  0.00    +0.000 NA
ENDROOT
BRANCH   1  10
ATOM      6  C   UNL     1       7.017   4.290  12.072  0.00  0.00    +0.000 A 
ATOM      7  C   UNL     1       6.197   3.511  12.855  0.00  0.00    +0.000 A 
ATOM      8  C   UNL     1       6.293   3.992  14.191  0.00  0.00    +0.000 A 
ATOM      9  C   UNL     1       5.711   3.606  15.412  0.00  0.00    +0.000 A 
ATOM     10  C   UNL     1       6.027   4.305  16.593  0.00  0.00    +0.000 A 
ATOM     11  C   UNL     1       6.914   5.387  16.539  0.00  0.00    +0.000 A 
ATOM     12  C   UNL     1       7.505   5.786  15.335  0.00  0.00    +0.000 A 
ATOM     13  C   UNL     1       7.178   5.067  14.181  0.00  0.00    +0.000 A 
ATOM     14  N   UNL     1       7.605   5.226  12.882  0.00  0.00    +0.000 N 
ATOM     15  H   UNL     1       8.260   5.932  12.577  0.00  0.00    +0.000 HD
ENDBRANCH   1  10
BRANCH   4  16
ATOM     16  C   UNL     1       2.958   2.189  19.805  0.00  0.00    +0.000 C 
ATOM     17  C   UNL     1       2.668   2.705  21.219  0.00  0.00    +0.000 C 
ATOM     18  C   UNL     1       2.041   4.099  21.223  0.00  0.00    +0.000 C 
ATOM     19  C   UNL     1       0.803   4.182  20.334  0.00  0.00    +0.000 C 
ATOM     20  C   UNL     1       1.033   3.633  18.933  0.00  0.00    +0.000 C 
ATOM     21  C   UNL     1       1.676   2.242  18.954  0.00  0.00    +0.000 C 
ENDBRANCH   4  16
TORSDOF 2
ENDMDL
MODEL 2
REMARK VINA RESULT:      -7.7      4.829      7.935
REMARK  Name = 
REMARK  2 active torsions:
REMARK  status: ('A' for Active; 'I' for Inactive)
REMARK    1  A    between atoms: C_5  and  C_6
REMARK    2  A    between atoms: C_9  and  C_10
REMARK                            x       y       z     vdW  Elec       q    Type
REMARK                         _______ _______ _______ _____ _____    ______ ____
ROOT
ATOM      1  C   UNL     1       2.172   7.352  19.562  0.00  0.00    +0.000 A 
ATOM      2  N   UNL     1       2.896   7.350  18.430  0.00  0.00    +0.000 NA
ATOM      3  O   UNL     1       3.432   6.059  18.382  0.00  0.00    +0.000 OA
ATOM      4  C   UNL     1       2.984   5.416  19.497  0.00  0.00    +0.000 A 
ATOM      5  N   UNL     1       2.206   6.160  20.242  0.00  0.00    +0.000 NA
ENDROOT
BRANCH   1  10
ATOM      6  C   UNL     1      -1.109  11.002  23.028  0.00  0.00    +0.000 A 
ATOM      7  C   UNL     1      -0.459   9.794  23.140  0.00  0.00    +0.000 A 
ATOM      8  C   UNL     1       0.152   9.516  21.885  0.00  0.00    +0.000 A 
ATOM      9  C   UNL     1       0.928   8.450  21.393  0.00  0.00    +0.000 A 
ATOM     10  C   UNL     1       1.390   8.474  20.062  0.00  0.00    +0.000 A 
ATOM     11  C   UNL     1       1.080   9.567  19.243  0.00  0.00    +0.000 A 
ATOM     12  C   UNL     1       0.309  10.636  19.713  0.00  0.00    +0.000 A 
ATOM     13  C   UNL     1      -0.142  10.579  21.037  0.00  0.00    +0.000 A 
ATOM     14  N   UNL     1      -0.912  11.467  21.754  0.00  0.00    +0.000 N 
ATOM     15  H   UNL     1      -1.276  12.335  21.387  0.00  0.00    +0.000 HD
ENDBRANCH   1  10
BRANCH   4  16
ATOM     16  C   UNL     1       3.405   3.999  19.711  0.00  0.00    +0.000 C 
ATOM     17  C   UNL     1       2.507   3.274  20.721  0.00  0.00    +0.000 C 
ATOM     18  C   UNL     1       1.099   3.019  20.184  0.00  0.00    +0.000 C 
ATOM     19  C   UNL     1       1.112   2.306  18.835  0.00  0.00    +0.000 C 
ATOM     20  C   UNL     1       2.030   2.967  17.815  0.00  0.00    +0.000 C 
ATOM     21  C   UNL     1       3.431   3.225  18.381  0.00  0.00    +0.000 C 
ENDBRANCH   4  16
TORSDOF 2
ENDMDL
MODEL 3
REMARK VINA RESULT:      -7.5      1.130      1.819
REMARK  Name = 
REMARK  2 active torsions:
REMARK  status: ('A' for Active; 'I' for Inactive)
REMARK    1  A    between atoms: C_5  and  C_6
REMARK    2  A    between atoms: C_9  and  C_10
REMARK                            x       y       z     vdW  Elec       q    Type
REMARK                         _______ _______ _______ _____ _____    ______ ____
ROOT
ATOM      1  C   UNL     1       4.576   4.931  17.457  0.00  0.00    +0.000 A 
ATOM      2  N   UNL     1       4.985   5.299  18.683  0.00  0.00    +0.000 NA
ATOM      3  O   UNL     1       3.837   5.160  19.471  0.00  0.00    +0.000 OA
ATOM      4  C   UNL     1       2.849   4.732  18.636  0.00  0.00    +0.000 A 
ATOM      5  N   UNL     1       3.253   4.570  17.401  0.00  0.00    +0.000 NA
ENDROOT
BRANCH   1  10
ATOM      6  C   UNL     1       6.762   3.728  11.992  0.00  0.00    +0.000 A 
ATOM      7  C   UNL     1       5.626   3.463  12.722  0.00  0.00    +0.000 A 
ATOM      8  C   UNL     1       5.772   4.090  13.990  0.00  0.00    +0.000 A 
ATOM      9  C   UNL     1       4.966   4.166  15.141  0.00  0.00    +0.000 A 
ATOM     10  C   UNL     1       5.414   4.883  16.267  0.00  0.00    +0.000 A 
ATOM     11  C   UNL     1       6.660   5.522  16.228  0.00  0.00    +0.000 A 
ATOM     12  C   UNL     1       7.478   5.458  15.094  0.00  0.00    +0.000 A 
ATOM     13  C   UNL     1       7.008   4.731  13.995  0.00  0.00    +0.000 A 
ATOM     14  N   UNL     1       7.590   4.494  12.770  0.00  0.00    +0.000 N 
ATOM     15  H   UNL     1       8.499   4.837  12.492  0.00  0.00    +0.000 HD
ENDBRANCH   1  10
BRANCH   4  16
ATOM     16  C   UNL     1       1.492   4.496  19.212  0.00  0.00    +0.000 C 
ATOM     17  C   UNL     1       1.023   3.049  19.019  0.00  0.00    +0.000 C 
ATOM     18  C   UNL     1       1.812   2.053  19.868  0.00  0.00    +0.000 C 
ATOM     19  C   UNL     1       1.836   2.440  21.344  0.00  0.00    +0.000 C 
ATOM     20  C   UNL     1       2.249   3.886  21.579  0.00  0.00    +0.000 C 
ATOM     21  C   UNL     1       1.456   4.864  20.706  0.00  0.00    +0.000 C 
ENDBRANCH   4  16
TORSDOF 2
ENDMDL
MODEL 4
REMARK VINA RESULT:      -7.4      4.564      8.229
REMARK  Name = 
REMARK  2 active torsions:
REMARK  status: ('A' for Active; 'I' for Inactive)
REMARK    1  A    between atoms: C_5  and  C_6
REMARK    2  A    between atoms: C_9  and  C_10
REMARK                            x       y       z     vdW  Elec       q    Type
REMARK                         _______ _______ _______ _____ _____    ______ ____
ROOT
ATOM      1  C   UNL     1       2.459   6.924  19.440  0.00  0.00    +0.000 A 
ATOM      2  N   UNL     1       2.490   5.709  20.013  0.00  0.00    +0.000 NA
ATOM      3  O   UNL     1       3.373   4.985  19.205  0.00  0.00    +0.000 OA
ATOM      4  C   UNL     1       3.776   5.835  18.220  0.00  0.00    +0.000 A 
ATOM      5  N   UNL     1       3.253   7.031  18.326  0.00  0.00    +0.000 NA
ENDROOT
BRANCH   1  10
ATOM      6  C   UNL     1      -0.776  10.672  22.844  0.00  0.00    +0.000 A 
ATOM      7  C   UNL     1      -0.137   9.461  22.978  0.00  0.00    +0.000 A 
ATOM      8  C   UNL     1       0.468   9.152  21.727  0.00  0.00    +0.000 A 
ATOM      9  C   UNL     1       1.231   8.070  21.253  0.00  0.00    +0.000 A 
ATOM     10  C   UNL     1       1.689   8.063  19.921  0.00  0.00    +0.000 A 
ATOM     11  C   UNL     1       1.386   9.143  19.081  0.00  0.00    +0.000 A 
ATOM     12  C   UNL     1       0.627  10.228  19.533  0.00  0.00    +0.000 A 
ATOM     13  C   UNL     1       0.180  10.201  20.858  0.00  0.00    +0.000 A 
ATOM     14  N   UNL     1      -0.578  11.111  21.561  0.00  0.00    +0.000 N 
ATOM     15  H   UNL     1      -0.936  11.975  21.177  0.00  0.00    +0.000 HD
ENDBRANCH   1  10
BRANCH   4  16
ATOM     16  C   UNL     1       4.737   5.326  17.197  0.00  0.00    +0.000 C 
ATOM     17  C   UNL     1       5.377   6.458  16.385  0.00  0.00    +0.000 C 
ATOM     18  C   UNL     1       6.346   7.303  17.213  0.00  0.00    +0.000 C 
ATOM     19  C   UNL     1       7.402   6.454  17.916  0.00  0.00    +0.000 C 
ATOM     20  C   UNL     1       6.812   5.286  18.695  0.00  0.00    +0.000 C 
ATOM     21  C   UNL     1       5.832   4.464  17.850  0.00  0.00    +0.000 C 
ENDBRANCH   4  16
TORSDOF 2
ENDMDL
MODEL 5
REMARK VINA RESULT:      -7.4      4.279      6.766
REMARK  Name = 
REMARK  2 active torsions:
REMARK  status: ('A' for Active; 'I' for Inactive)
REMARK    1  A    between atoms: C_5  and  C_6
REMARK    2  A    between atoms: C_9  and  C_10
REMARK                            x       y       z     vdW  Elec       q    Type
REMARK                         _______ _______ _______ _____ _____    ______ ____
ROOT
ATOM      1  C   UNL     1       3.019   6.644  18.269  0.00  0.00    +0.000 A 
ATOM      2  N   UNL     1       4.027   6.661  17.380  0.00  0.00    +0.000 NA
ATOM      3  O   UNL     1       4.383   5.314  17.258  0.00  0.00    +0.000 OA
ATOM      4  C   UNL     1       3.559   4.622  18.094  0.00  0.00    +0.000 A 
ATOM      5  N   UNL     1       2.705   5.388  18.725  0.00  0.00    +0.000 NA
ENDROOT
BRANCH   1  10
ATOM      6  C   UNL     1      -0.122  10.532  21.602  0.00  0.00    +0.000 A 
ATOM      7  C   UNL     1       0.482   9.306  21.757  0.00  0.00    +0.000 A 
ATOM      8  C   UNL     1       1.083   8.961  20.513  0.00  0.00    +0.000 A 
ATOM      9  C   UNL     1       1.817   7.851  20.059  0.00  0.00    +0.000 A 
ATOM     10  C   UNL     1       2.280   7.812  18.729  0.00  0.00    +0.000 A 
ATOM     11  C   UNL     1       2.010   8.886  17.872  0.00  0.00    +0.000 A 
ATOM     12  C   UNL     1       1.279   9.999  18.303  0.00  0.00    +0.000 A 
ATOM     13  C   UNL     1       0.827  10.004  19.627  0.00  0.00    +0.000 A 
ATOM     14  N   UNL     1       0.092  10.945  20.313  0.00  0.00    +0.000 N 
ATOM     15  H   UNL     1      -0.241  11.812  19.915  0.00  0.00    +0.000 HD
ENDBRANCH   1  10
BRANCH   4  16
ATOM     16  C   UNL     1       3.715   3.139  18.170  0.00  0.00    +0.000 C 
ATOM     17  C   UNL     1       4.069   2.664  19.584  0.00  0.00    +0.000 C 
ATOM     18  C   UNL     1       2.912   2.827  20.569  0.00  0.00    +0.000 C 
ATOM     19  C   UNL     1       1.626   2.176  20.067  0.00  0.00    +0.000 C 
ATOM     20  C   UNL     1       1.263   2.583  18.646  0.00  0.00    +0.000 C 
ATOM     21  C   UNL     1       2.441   2.426  17.680  0.00  0.00    +0.000 C 
ENDBRANCH   4  16
TORSDOF 2
ENDMDL
MODEL 6
REMARK VINA RESULT:      -7.4      5.626      7.426
REMARK  Name = 
REMARK  2 active torsions:
REMARK  status: ('A' for Active; 'I' for Inactive)
REMARK    1  A    between atoms: C_5  and  C_6
REMARK    2  A    between atoms: C_9  and  C_10
REMARK                            x       y       z     vdW  Elec       q    Type
REMARK                         _______ _______ _______ _____ _____    ______ ____
ROOT
ATOM      1  C   UNL     1       8.201   8.446  18.214  0.00  0.00    +0.000 A 
ATOM      2  N   UNL     1       8.545   7.394  18.976  0.00  0.00    +0.000 NA
ATOM      3  O   UNL     1       7.876   6.320  18.382  0.00  0.00    +0.000 OA
ATOM      4  C   UNL     1       7.187   6.835  17.325  0.00  0.00    +0.000 A 
ATOM      5  N   UNL     1       7.360   8.125  17.177  0.00  0.00    +0.000 NA
ENDROOT
BRANCH   1  10
ATOM      6  C   UNL     1      10.833  13.391  20.385  0.00  0.00    +0.000 A 
ATOM      7  C   UNL     1      10.777  12.047  20.678  0.00  0.00    +0.000 A 
ATOM      8  C   UNL     1       9.944  11.428  19.705  0.00  0.00    +0.000 A 
ATOM      9  C   UNL     1       9.510  10.107  19.491  0.00  0.00    +0.000 A 
ATOM     10  C   UNL     1       8.658   9.815  18.408  0.00  0.00    +0.000 A 
ATOM     11  C   UNL     1       8.257  10.844  17.547  0.00  0.00    +0.000 A 
ATOM     12  C   UNL     1       8.676  12.165  17.744  0.00  0.00    +0.000 A 
ATOM     13  C   UNL     1       9.515  12.424  18.833  0.00  0.00    +0.000 A 
ATOM     14  N   UNL     1      10.067  13.608  19.269  0.00  0.00    +0.000 N 
ATOM     15  H   UNL     1       9.923  14.504  18.826  0.00  0.00    +0.000 HD
ENDBRANCH   1  10
BRANCH   4  16
ATOM     16  C   UNL     1       6.369   5.903  16.494  0.00  0.00    +0.000 C 
ATOM     17  C   UNL     1       6.095   4.575  17.209  0.00  0.00    +0.000 C 
ATOM     18  C   UNL     1       5.142   4.726  18.394  0.00  0.00    +0.000 C 
ATOM     19  C   UNL     1       3.844   5.430  18.008  0.00  0.00    +0.000 C 
ATOM     20  C   UNL     1       4.069   6.732  17.251  0.00  0.00    +0.000 C 
ATOM     21  C   UNL     1       5.039   6.558  16.077  0.00  0.00    +0.000 C 
ENDBRANCH   4  16
TORSDOF 2
ENDMDL
MODEL 7
REMARK VINA RESULT:      -7.4      5.805      8.990
REMARK  Name = 
REMARK  2 active torsions:
REMARK  status: ('A' for Active; 'I' for Inactive)
REMARK    1  A    between atoms: C_5  and  C_6
REMARK    2  A    between atoms: C_9  and  C_10
REMARK                            x       y       z     vdW  Elec       q    Type
REMARK                         _______ _______ _______ _____ _____    ______ ____
ROOT
ATOM      1  C   UNL     1       1.350   8.361  20.240  0.00  0.00    +0.000 A 
ATOM      2  N   UNL     1       1.796   8.615  18.999  0.00  0.00    +0.000 NA
ATOM      3  O   UNL     1       2.505   7.460  18.657  0.00  0.00    +0.000 OA
ATOM      4  C   UNL     1       2.423   6.628  19.733  0.00  0.00    +0.000 A 
ATOM      5  N   UNL     1       1.722   7.129  20.719  0.00  0.00    +0.000 NA
ENDROOT
BRANCH   1  10
ATOM      6  C   UNL     1      -2.147  12.893  22.063  0.00  0.00    +0.000 A 
ATOM      7  C   UNL     1      -1.585  12.441  20.891  0.00  0.00    +0.000 A 
ATOM      8  C   UNL     1      -0.857  11.256  21.192  0.00  0.00    +0.000 A 
ATOM      9  C   UNL     1      -0.080  10.367  20.427  0.00  0.00    +0.000 A 
ATOM     10  C   UNL     1       0.531   9.257  21.044  0.00  0.00    +0.000 A 
ATOM     11  C   UNL     1       0.351   9.045  22.416  0.00  0.00    +0.000 A 
ATOM     12  C   UNL     1      -0.417   9.918  23.196  0.00  0.00    +0.000 A 
ATOM     13  C   UNL     1      -1.004  11.015  22.555  0.00  0.00    +0.000 A 
ATOM     14  N   UNL     1      -1.790  12.025  23.061  0.00  0.00    +0.000 N 
ATOM     15  H   UNL     1      -2.059  12.109  24.032  0.00  0.00    +0.000 HD
ENDBRANCH   1  10
BRANCH   4  16
ATOM     16  C   UNL     1       3.099   5.299  19.651  0.00  0.00    +0.000 C 
ATOM     17  C   UNL     1       2.514   4.287  20.644  0.00  0.00    +0.000 C 
ATOM     18  C   UNL     1       1.096   3.850  20.276  0.00  0.00    +0.000 C 
ATOM     19  C   UNL     1       1.000   3.343  18.839  0.00  0.00    +0.000 C 
ATOM     20  C   UNL     1       1.614   4.296  17.824  0.00  0.00    +0.000 C 
ATOM     21  C   UNL     1       3.028   4.732  18.222  0.00  0.00    +0.000 C 
ENDBRANCH   4  16
TORSDOF 2
ENDMDL
MODEL 8
REMARK VINA RESULT:      -7.4      5.491      8.458
REMARK  Name = 
REMARK  2 active torsions:
REMARK  status: ('A' for Active; 'I' for Inactive)
REMARK    1  A    between atoms: C_5  and  C_6
REMARK    2  A    between atoms: C_9  and  C_10
REMARK                            x       y       z     vdW  Elec       q    Type
REMARK                         _______ _______ _______ _____ _____    ______ ____
ROOT
ATOM      1  C   UNL     1       1.829   8.335  19.225  0.00  0.00    +0.000 A 
ATOM      2  N   UNL     1       2.393   8.408  18.008  0.00  0.00    +0.000 NA
ATOM      3  O   UNL     1       3.055   7.184  17.874  0.00  0.00    +0.000 OA
ATOM      4  C   UNL     1       2.831   6.499  19.031  0.00  0.00    +0.000 A 
ATOM      5  N   UNL     1       2.082   7.156  19.881  0.00  0.00    +0.000 NA
ENDROOT
BRANCH   1  10
ATOM      6  C   UNL     1      -1.515  11.511  23.075  0.00  0.00    +0.000 A 
ATOM      7  C   UNL     1      -0.789  10.342  23.072  0.00  0.00    +0.000 A 
ATOM      8  C   UNL     1      -0.216  10.194  21.778  0.00  0.00    +0.000 A 
ATOM      9  C   UNL     1       0.600   9.218  21.178  0.00  0.00    +0.000 A 
ATOM     10  C   UNL     1       1.003   9.366  19.837  0.00  0.00    +0.000 A 
ATOM     11  C   UNL     1       0.591  10.493  19.113  0.00  0.00    +0.000 A 
ATOM     12  C   UNL     1      -0.222  11.474  19.690  0.00  0.00    +0.000 A 
ATOM     13  C   UNL     1      -0.612  11.293  21.022  0.00  0.00    +0.000 A 
ATOM     14  N   UNL     1      -1.402  12.078  21.833  0.00  0.00    +0.000 N 
ATOM     15  H   UNL     1      -1.834  12.944  21.544  0.00  0.00    +0.000 HD
ENDBRANCH   1  10
BRANCH   4  16
ATOM     16  C   UNL     1       3.428   5.138  19.172  0.00  0.00    +0.000 C 
ATOM     17  C   UNL     1       2.826   4.358  20.348  0.00  0.00    +0.000 C 
ATOM     18  C   UNL     1       1.373   3.951  20.105  0.00  0.00    +0.000 C 
ATOM     19  C   UNL     1       1.192   3.202  18.788  0.00  0.00    +0.000 C 
ATOM     20  C   UNL     1       1.819   3.918  17.599  0.00  0.00    +0.000 C 
ATOM     21  C   UNL     1       3.269   4.329  17.871  0.00  0.00    +0.000 C 
ENDBRANCH   4  16
TORSDOF 2
ENDMDL
MODEL 9
REMARK VINA RESULT:      -7.4      1.432      1.937
REMARK  Name = 
REMARK  2 active torsions:
REMARK  status: ('A' for Active; 'I' for Inactive)
REMARK    1  A    between atoms: C_5  and  C_6
REMARK    2  A    between atoms: C_9  and  C_10
REMARK                            x       y       z     vdW  Elec       q    Type
REMARK                         _______ _______ _______ _____ _____    ______ ____
ROOT
ATOM      1  C   UNL     1       4.037   3.613  17.054  0.00  0.00    +0.000 A 
ATOM      2  N   UNL     1       3.808   2.303  17.245  0.00  0.00    +0.000 NA
ATOM      3  O   UNL     1       2.682   2.280  18.074  0.00  0.00    +0.000 OA
ATOM      4  C   UNL     1       2.352   3.581  18.307  0.00  0.00    +0.000 A 
ATOM      5  N   UNL     1       3.142   4.430  17.699  0.00  0.00    +0.000 NA
ENDROOT
BRANCH   1  10
ATOM      6  C   UNL     1       7.749   4.884  12.505  0.00  0.00    +0.000 A 
ATOM      7  C   UNL     1       6.627   4.119  12.727  0.00  0.00    +0.000 A 
ATOM      8  C   UNL     1       6.244   4.301  14.086  0.00  0.00    +0.000 A 
ATOM      9  C   UNL     1       5.207   3.787  14.885  0.00  0.00    +0.000 A 
ATOM     10  C   UNL     1       5.104   4.173  16.236  0.00  0.00    +0.000 A 
ATOM     11  C   UNL     1       6.033   5.074  16.769  0.00  0.00    +0.000 A 
ATOM     12  C   UNL     1       7.073   5.596  15.992  0.00  0.00    +0.000 A 
ATOM     13  C   UNL     1       7.154   5.187  14.657  0.00  0.00    +0.000 A 
ATOM     14  N   UNL     1       8.059   5.525  13.676  0.00  0.00    +0.000 N 
ATOM     15  H   UNL     1       8.839   6.154  13.808  0.00  0.00    +0.000 HD
ENDBRANCH   1  10
BRANCH   4  16
ATOM     16  C   UNL     1       1.169   3.865  19.174  0.00  0.00    +0.000 C 
ATOM     17  C   UNL     1       0.740   2.640  19.990  0.00  0.00    +0.000 C 
ATOM     18  C   UNL     1       1.746   2.274  21.081  0.00  0.00    +0.000 C 
ATOM     19  C   UNL     1       2.078   3.458  21.985  0.00  0.00    +0.000 C 
ATOM     20  C   UNL     1       2.463   4.713  21.213  0.00  0.00    +0.000 C 
ATOM     21  C   UNL     1       1.449   5.051  20.115  0.00  0.00    +0.000 C 
ENDBRANCH   4  16
TORSDOF 2
ENDMDL
