MODEL 1
REMARK VINA RESULT:      -8.7      0.000      0.000
REMARK  Name = 
REMARK  2 active torsions:
REMARK  status: ('A' for Active; 'I' for Inactive)
REMARK    1  A    between atoms: C_4  and  O_5
REMARK    2  A    between atoms: O_5  and  C_6
REMARK                            x       y       z     vdW  Elec       q    Type
REMARK                         _______ _______ _______ _____ _____    ______ ____
ROOT
ATOM      1  C   UNL     1       0.720  10.010  18.989  0.00  0.00    +0.000 A 
ATOM      2  C   UNL     1       0.674   9.253  20.167  0.00  0.00    +0.000 A 
ATOM      3  N   UNL     1       1.378   8.119  20.420  0.00  0.00    +0.000 NA
ATOM      4  C   UNL     1       2.180   7.746  19.396  0.00  0.00    +0.000 A 
ATOM      5  N   UNL     1       2.991   6.654  19.356  0.00  0.00    +0.000 NA
ATOM      6  C   UNL     1       3.554   6.723  18.166  0.00  0.00    +0.000 A 
ATOM      7  N   UNL     1       4.406   5.844  17.590  0.00  0.00    +0.000 N 
ATOM      8  C   UNL     1       4.624   4.562  18.262  0.00  0.00    +0.000 C 
ATOM      9  C   UNL     1       6.059   4.388  18.796  0.00  0.00    +0.000 C 
ATOM     10  N   UNL     1       7.185   4.827  17.943  0.00  0.00    +0.000 NA
ATOM     11  C   UNL     1       7.368   6.283  18.017  0.00  0.00    +0.000 C 
ATOM     12  C   UNL     1       6.477   7.095  17.074  0.00  0.00    +0.000 C 
ATOM     13  C   UNL     1       5.322   6.260  16.518  0.00  0.00    +0.000 C 
ATOM     14  C   UNL     1       5.909   5.055  15.769  0.00  0.00    +0.000 C 
ATOM     15  C   UNL     1       7.045   4.379  16.553  0.00  0.00    +0.000 C 
ATOM     16  O   UNL     1       3.167   7.805  17.413  0.00  0.00    +0.000 OA
ATOM     17  C   UNL     1       2.260   8.441  18.203  0.00  0.00    +0.000 A 
ATOM     18  C   UNL     1       1.518   9.573  17.925  0.00  0.00    +0.000 A 
ENDROOT
BRANCH   1  19
ATOM     19  O   UNL     1      -0.085  11.124  18.950  0.00  0.00    +0.000 OA
BRANCH  19  23
ATOM     20  C   UNL     1      -4.080  10.859  17.802  0.00  0.00    +0.000 A 
ATOM     21  C   UNL     1      -3.660  11.804  18.739  0.00  0.00    +0.000 A 
ATOM     22  C   UNL     1      -2.315  11.874  19.104  0.00  0.00    +0.000 A 
ATOM     23  C   UNL     1      -1.391  10.994  18.535  0.00  0.00    +0.000 A 
ATOM     24  C   UNL     1      -1.803  10.090  17.553  0.00  0.00    +0.000 A 
ATOM     25  C   UNL     1      -3.152  10.005  17.206  0.00  0.00    +0.000 A 
ENDBRANCH  19  23
ENDBRANCH   1  19
TORSDOF 2
ENDMDL
MODEL 2
REMARK VINA RESULT:      -8.1      2.197      8.245
REMARK  Name = 
REMARK  2 active torsions:
REMARK  status: ('A' for Active; 'I' for Inactive)
REMARK    1  A    between atoms: C_4  and  O_5
REMARK    2  A    between atoms: O_5  and  C_6
REMARK                            x       y       z     vdW  Elec       q    Type
REMARK                         _______ _______ _______ _____ _____    ______ ____
ROOT
ATOM      1  C   UNL     1       3.308   4.895  18.809  0.00  0.00    +0.000 A 
ATOM      2  C   UNL     1       2.779   4.630  20.080  0.00  0.00    +0.000 A 
ATOM      3  N   UNL     1       2.103   5.507  20.866  0.00  0.00    +0.000 NA
ATOM      4  C   UNL     1       1.961   6.731  20.304  0.00  0.00    +0.000 A 
ATOM      5  N   UNL     1       1.341   7.809  20.855  0.00  0.00    +0.000 NA
ATOM      6  C   UNL     1       1.466   8.747  19.937  0.00  0.00    +0.000 A 
ATOM      7  N   UNL     1       1.077  10.041  20.004  0.00  0.00    +0.000 N 
ATOM      8  C   UNL     1       0.609  10.550  21.294  0.00  0.00    +0.000 C 
ATOM      9  C   UNL     1      -0.886  10.924  21.298  0.00  0.00    +0.000 C 
ATOM     10  N   UNL     1      -1.434  11.642  20.125  0.00  0.00    +0.000 NA
ATOM     11  C   UNL     1      -1.701  10.715  19.016  0.00  0.00    +0.000 C 
ATOM     12  C   UNL     1      -0.495  10.406  18.128  0.00  0.00    +0.000 C 
ATOM     13  C   UNL     1       0.822  10.824  18.785  0.00  0.00    +0.000 C 
ATOM     14  C   UNL     1       0.764  12.331  19.077  0.00  0.00    +0.000 C 
ATOM     15  C   UNL     1      -0.579  12.753  19.695  0.00  0.00    +0.000 C 
ATOM     16  O   UNL     1       2.131   8.351  18.802  0.00  0.00    +0.000 OA
ATOM     17  C   UNL     1       2.471   7.059  19.061  0.00  0.00    +0.000 A 
ATOM     18  C   UNL     1       3.193   6.183  18.274  0.00  0.00    +0.000 A 
ENDROOT
BRANCH   1  19
ATOM     19  O   UNL     1       3.962   3.853  18.193  0.00  0.00    +0.000 OA
BRANCH  19  23
ATOM     20  C   UNL     1       7.215   4.705  15.736  0.00  0.00    +0.000 A 
ATOM     21  C   UNL     1       7.343   4.698  17.125  0.00  0.00    +0.000 A 
ATOM     22  C   UNL     1       6.238   4.406  17.926  0.00  0.00    +0.000 A 
ATOM     23  C   UNL     1       5.003   4.127  17.336  0.00  0.00    +0.000 A 
ATOM     24  C   UNL     1       4.892   4.076  15.944  0.00  0.00    +0.000 A 
ATOM     25  C   UNL     1       5.992   4.390  15.145  0.00  0.00    +0.000 A 
ENDBRANCH  19  23
ENDBRANCH   1  19
TORSDOF 2
ENDMDL
MODEL 3
REMARK VINA RESULT:      -8.1      1.985      3.132
REMARK  Name = 
REMARK  2 active torsions:
REMARK  status: ('A' for Active; 'I' for Inactive)
REMARK    1  A    between atoms: C_4  and  O_5
REMARK    2  A    between atoms: O_5  and  C_6
REMARK                            x       y       z     vdW  Elec       q    Type
REMARK                         _______ _______ _______ _____ _____    ______ ____
ROOT
ATOM      1  C   UNL     1       0.985  10.031  19.256  0.00  0.00    +0.000 A 
ATOM      2  C   UNL     1       1.685  10.132  18.046  0.00  0.00    +0.000 A 
ATOM      3  N   UNL     1       2.468   9.171  17.490  0.00  0.00    +0.000 NA
ATOM      4  C   UNL     1       2.528   8.037  18.225  0.00  0.00    +0.000 A 
ATOM      5  N   UNL     1       3.235   6.913  17.927  0.00  0.00    +0.000 NA
ATOM      6  C   UNL     1       2.978   6.103  18.934  0.00  0.00    +0.000 A 
ATOM      7  N   UNL     1       3.483   4.869  19.166  0.00  0.00    +0.000 N 
ATOM      8  C   UNL     1       4.578   4.406  18.313  0.00  0.00    +0.000 C 
ATOM      9  C   UNL     1       4.192   3.215  17.415  0.00  0.00    +0.000 C 
ATOM     10  N   UNL     1       3.375   2.128  18.001  0.00  0.00    +0.000 NA
ATOM     11  C   UNL     1       1.956   2.505  18.056  0.00  0.00    +0.000 C 
ATOM     12  C   UNL     1       1.553   3.324  19.284  0.00  0.00    +0.000 C 
ATOM     13  C   UNL     1       2.769   3.901  20.012  0.00  0.00    +0.000 C 
ATOM     14  C   UNL     1       3.677   2.737  20.439  0.00  0.00    +0.000 C 
ATOM     15  C   UNL     1       3.864   1.704  19.317  0.00  0.00    +0.000 C 
ATOM     16  O   UNL     1       2.133   6.622  19.885  0.00  0.00    +0.000 OA
ATOM     17  C   UNL     1       1.873   7.879  19.433  0.00  0.00    +0.000 A 
ATOM     18  C   UNL     1       1.106   8.866  20.023  0.00  0.00    +0.000 A 
ENDROOT
BRANCH   1  19
ATOM     19  O   UNL     1       0.255  11.135  19.631  0.00  0.00    +0.000 OA
BRANCH  19  23
ATOM     20  C   UNL     1      -3.749  11.560  18.565  0.00  0.00    +0.000 A 
ATOM     21  C   UNL     1      -3.177  12.362  19.553  0.00  0.00    +0.000 A 
ATOM     22  C   UNL     1      -1.831  12.201  19.889  0.00  0.00    +0.000 A 
ATOM     23  C   UNL     1      -1.061  11.234  19.241  0.00  0.00    +0.000 A 
ATOM     24  C   UNL     1      -1.620  10.474  18.210  0.00  0.00    +0.000 A 
ATOM     25  C   UNL     1      -2.971  10.619  17.891  0.00  0.00    +0.000 A 
ENDBRANCH  19  23
ENDBRANCH   1  19
TORSDOF 2
ENDMDL
MODEL 4
REMARK VINA RESULT:      -8.0      1.818      2.569
REMARK  Name = 
REMARK  2 active torsions:
REMARK  status: ('A' for Active; 'I' for Inactive)
REMARK    1  A    between atoms: C_4  and  O_5
REMARK    2  A    between atoms: O_5  and  C_6
REMARK                            x       y       z     vdW  Elec       q    Type
REMARK                         _______ _______ _______ _____ _____    ______ ____
ROOT
ATOM      1  C   UNL     1       0.657   9.766  19.738  0.00  0.00    +0.000 A 
ATOM      2  C   UNL     1       0.693   8.851  20.799  0.00  0.00    +0.000 A 
ATOM      3  N   UNL     1       1.405   7.694  20.837  0.00  0.00    +0.000 NA
ATOM      4  C   UNL     1       2.125   7.471  19.713  0.00  0.00    +0.000 A 
ATOM      5  N   UNL     1       2.924   6.399  19.461  0.00  0.00    +0.000 NA
ATOM      6  C   UNL     1       3.398   6.636  18.254  0.00  0.00    +0.000 A 
ATOM      7  N   UNL     1       4.197   5.848  17.499  0.00  0.00    +0.000 N 
ATOM      8  C   UNL     1       4.455   4.485  17.966  0.00  0.00    +0.000 C 
ATOM      9  C   UNL     1       5.924   4.242  18.362  0.00  0.00    +0.000 C 
ATOM     10  N   UNL     1       6.987   4.801  17.497  0.00  0.00    +0.000 NA
ATOM     11  C   UNL     1       7.186   6.232  17.761  0.00  0.00    +0.000 C 
ATOM     12  C   UNL     1       6.234   7.166  17.011  0.00  0.00    +0.000 C 
ATOM     13  C   UNL     1       5.035   6.414  16.430  0.00  0.00    +0.000 C 
ATOM     14  C   UNL     1       5.556   5.327  15.478  0.00  0.00    +0.000 C 
ATOM     15  C   UNL     1       6.742   4.552  16.073  0.00  0.00    +0.000 C 
ATOM     16  O   UNL     1       2.964   7.812  17.690  0.00  0.00    +0.000 OA
ATOM     17  C   UNL     1       2.123   8.327  18.627  0.00  0.00    +0.000 A 
ATOM     18  C   UNL     1       1.370   9.485  18.567  0.00  0.00    +0.000 A 
ENDROOT
BRANCH   1  19
ATOM     19  O   UNL     1      -0.141  10.873  19.915  0.00  0.00    +0.000 OA
BRANCH  19  23
ATOM     20  C   UNL     1       1.430  14.704  19.467  0.00  0.00    +0.000 A 
ATOM     21  C   UNL     1       0.334  14.281  18.716  0.00  0.00    +0.000 A 
ATOM     22  C   UNL     1      -0.175  12.993  18.887  0.00  0.00    +0.000 A 
ATOM     23  C   UNL     1       0.417  12.126  19.807  0.00  0.00    +0.000 A 
ATOM     24  C   UNL     1       1.477  12.571  20.602  0.00  0.00    +0.000 A 
ATOM     25  C   UNL     1       1.999  13.851  20.413  0.00  0.00    +0.000 A 
ENDBRANCH  19  23
ENDBRANCH   1  19
TORSDOF 2
ENDMDL
MODEL 5
REMARK VINA RESULT:      -7.9      2.437      3.743
REMARK  Name = 
REMARK  2 active torsions:
REMARK  status: ('A' for Active; 'I' for Inactive)
REMARK    1  A    between atoms: C_4  and  O_5
REMARK    2  A    between atoms: O_5  and  C_6
REMARK                            x       y       z     vdW  Elec       q    Type
REMARK                         _______ _______ _______ _____ _____    ______ ____
ROOT
ATOM      1  C   UNL     1       0.925  10.498  19.203  0.00  0.00    +0.000 A 
ATOM      2  C   UNL     1       1.696  10.352  18.041  0.00  0.00    +0.000 A 
ATOM      3  N   UNL     1       2.395   9.246  17.677  0.00  0.00    +0.000 NA
ATOM      4  C   UNL     1       2.289   8.229  18.563  0.00  0.00    +0.000 A 
ATOM      5  N   UNL     1       2.881   7.007  18.471  0.00  0.00    +0.000 NA
ATOM      6  C   UNL     1       2.483   6.381  19.560  0.00  0.00    +0.000 A 
ATOM      7  N   UNL     1       2.833   5.148  19.993  0.00  0.00    +0.000 N 
ATOM      8  C   UNL     1       3.914   4.457  19.289  0.00  0.00    +0.000 C 
ATOM      9  C   UNL     1       3.446   3.195  18.538  0.00  0.00    +0.000 C 
ATOM     10  N   UNL     1       2.483   2.294  19.211  0.00  0.00    +0.000 NA
ATOM     11  C   UNL     1       1.114   2.819  19.117  0.00  0.00    +0.000 C 
ATOM     12  C   UNL     1       0.740   3.843  20.190  0.00  0.00    +0.000 C 
ATOM     13  C   UNL     1       1.972   4.390  20.913  0.00  0.00    +0.000 C 
ATOM     14  C   UNL     1       2.722   3.213  21.557  0.00  0.00    +0.000 C 
ATOM     15  C   UNL     1       2.851   2.015  20.603  0.00  0.00    +0.000 C 
ATOM     16  O   UNL     1       1.652   7.116  20.371  0.00  0.00    +0.000 OA
ATOM     17  C   UNL     1       1.557   8.314  19.733  0.00  0.00    +0.000 A 
ATOM     18  C   UNL     1       0.875   9.450  20.129  0.00  0.00    +0.000 A 
ENDROOT
BRANCH   1  19
ATOM     19  O   UNL     1       0.304  11.715  19.372  0.00  0.00    +0.000 OA
BRANCH  19  23
ATOM     20  C   UNL     1      -3.825  11.853  18.851  0.00  0.00    +0.000 A 
ATOM     21  C   UNL     1      -3.011  11.140  17.971  0.00  0.00    +0.000 A 
ATOM     22  C   UNL     1      -1.630  11.107  18.170  0.00  0.00    +0.000 A 
ATOM     23  C   UNL     1      -1.063  11.793  19.246  0.00  0.00    +0.000 A 
ATOM     24  C   UNL     1      -1.887  12.457  20.160  0.00  0.00    +0.000 A 
ATOM     25  C   UNL     1      -3.265  12.508  19.947  0.00  0.00    +0.000 A 
ENDBRANCH  19  23
ENDBRANCH   1  19
TORSDOF 2
ENDMDL
MODEL 6
REMARK VINA RESULT:      -7.8      2.940      4.103
REMARK  Name = 
REMARK  2 active torsions:
REMARK  status: ('A' for Active; 'I' for Inactive)
REMARK    1  A    between atoms: C_4  and  O_5
REMARK    2  A    between atoms: O_5  and  C_6
REMARK                            x       y       z     vdW  Elec       q    Type
REMARK                         _______ _______ _______ _____ _____    ______ ____
ROOT
ATOM      1  C   UNL     1       0.819  10.393  21.194  0.00  0.00    +0.000 A 
ATOM      2  C   UNL     1       0.978  10.637  19.824  0.00  0.00    +0.000 A 
ATOM      3  N   UNL     1       1.400   9.743  18.893  0.00  0.00    +0.000 NA
ATOM      4  C   UNL     1       1.671   8.521  19.408  0.00  0.00    +0.000 A 
ATOM      5  N   UNL     1       2.117   7.433  18.724  0.00  0.00    +0.000 NA
ATOM      6  C   UNL     1       2.231   6.503  19.651  0.00  0.00    +0.000 A 
ATOM      7  N   UNL     1       2.697   5.240  19.518  0.00  0.00    +0.000 N 
ATOM      8  C   UNL     1       3.320   4.871  18.246  0.00  0.00    +0.000 C 
ATOM      9  C   UNL     1       2.522   3.815  17.457  0.00  0.00    +0.000 C 
ATOM     10  N   UNL     1       1.936   2.677  18.201  0.00  0.00    +0.000 NA
ATOM     11  C   UNL     1       0.690   3.071  18.873  0.00  0.00    +0.000 C 
ATOM     12  C   UNL     1       0.874   3.730  20.240  0.00  0.00    +0.000 C 
ATOM     13  C   UNL     1       2.318   4.183  20.468  0.00  0.00    +0.000 C 
ATOM     14  C   UNL     1       3.236   2.957  20.354  0.00  0.00    +0.000 C 
ATOM     15  C   UNL     1       2.882   2.075  19.146  0.00  0.00    +0.000 C 
ATOM     16  O   UNL     1       1.879   6.910  20.915  0.00  0.00    +0.000 OA
ATOM     17  C   UNL     1       1.548   8.219  20.752  0.00  0.00    +0.000 A 
ATOM     18  C   UNL     1       1.156   9.136  21.710  0.00  0.00    +0.000 A 
ENDROOT
BRANCH   1  19
ATOM     19  O   UNL     1       0.382  11.453  21.955  0.00  0.00    +0.000 OA
BRANCH  19  23
ATOM     20  C   UNL     1      -3.624  12.588  21.879  0.00  0.00    +0.000 A 
ATOM     21  C   UNL     1      -3.014  12.176  23.064  0.00  0.00    +0.000 A 
ATOM     22  C   UNL     1      -1.669  11.803  23.063  0.00  0.00    +0.000 A 
ATOM     23  C   UNL     1      -0.936  11.838  21.874  0.00  0.00    +0.000 A 
ATOM     24  C   UNL     1      -1.534  12.308  20.701  0.00  0.00    +0.000 A 
ATOM     25  C   UNL     1      -2.884  12.658  20.699  0.00  0.00    +0.000 A 
ENDBRANCH  19  23
ENDBRANCH   1  19
TORSDOF 2
ENDMDL
MODEL 7
REMARK VINA RESULT:      -7.8      3.519      8.932
REMARK  Name = 
REMARK  2 active torsions:
REMARK  status: ('A' for Active; 'I' for Inactive)
REMARK    1  A    between atoms: C_4  and  O_5
REMARK    2  A    between atoms: O_5  and  C_6
REMARK                            x       y       z     vdW  Elec       q    Type
REMARK                         _______ _______ _______ _____ _____    ______ ____
ROOT
ATOM      1  C   UNL     1       1.980   7.787  19.698  0.00  0.00    +0.000 A 
ATOM      2  C   UNL     1       2.034   8.529  18.510  0.00  0.00    +0.000 A 
ATOM      3  N   UNL     1       1.337   9.664  18.240  0.00  0.00    +0.000 NA
ATOM      4  C   UNL     1       0.539  10.058  19.260  0.00  0.00    +0.000 A 
ATOM      5  N   UNL     1      -0.278  11.146  19.277  0.00  0.00    +0.000 NA
ATOM      6  C   UNL     1      -0.838  11.100  20.469  0.00  0.00    +0.000 A 
ATOM      7  N   UNL     1      -1.785  11.919  20.981  0.00  0.00    +0.000 N 
ATOM      8  C   UNL     1      -2.417  12.883  20.079  0.00  0.00    +0.000 C 
ATOM      9  C   UNL     1      -2.090  14.349  20.424  0.00  0.00    +0.000 C 
ATOM     10  N   UNL     1      -2.093  14.754  21.847  0.00  0.00    +0.000 NA
ATOM     11  C   UNL     1      -0.847  14.352  22.514  0.00  0.00    +0.000 C 
ATOM     12  C   UNL     1      -0.828  12.914  23.035  0.00  0.00    +0.000 C 
ATOM     13  C   UNL     1      -1.956  12.072  22.434  0.00  0.00    +0.000 C 
ATOM     14  C   UNL     1      -3.297  12.735  22.784  0.00  0.00    +0.000 C 
ATOM     15  C   UNL     1      -3.268  14.256  22.571  0.00  0.00    +0.000 C 
ATOM     16  O   UNL     1      -0.434  10.044  21.250  0.00  0.00    +0.000 OA
ATOM     17  C   UNL     1       0.431   9.363  20.451  0.00  0.00    +0.000 A 
ATOM     18  C   UNL     1       1.107   8.188  20.716  0.00  0.00    +0.000 A 
ENDROOT
BRANCH   1  19
ATOM     19  O   UNL     1       2.771   6.663  19.750  0.00  0.00    +0.000 OA
BRANCH  19  23
ATOM     20  C   UNL     1       1.030   2.930  19.135  0.00  0.00    +0.000 A 
ATOM     21  C   UNL     1       1.058   3.513  20.402  0.00  0.00    +0.000 A 
ATOM     22  C   UNL     1       1.645   4.767  20.581  0.00  0.00    +0.000 A 
ATOM     23  C   UNL     1       2.209   5.434  19.492  0.00  0.00    +0.000 A 
ATOM     24  C   UNL     1       2.127   4.876  18.213  0.00  0.00    +0.000 A 
ATOM     25  C   UNL     1       1.561   3.612  18.040  0.00  0.00    +0.000 A 
ENDBRANCH  19  23
ENDBRANCH   1  19
TORSDOF 2
ENDMDL
MODEL 8
REMARK VINA RESULT:      -7.8      2.654      4.034
REMARK  Name = 
REMARK  2 active torsions:
REMARK  status: ('A' for Active; 'I' for Inactive)
REMARK    1  A    between atoms: C_4  and  O_5
REMARK    2  A    between atoms: O_5  and  C_6
REMARK                            x       y       z     vdW  Elec       q    Type
REMARK                         _______ _______ _______ _____ _____    ______ ____
ROOT
ATOM      1  C   UNL     1       0.872  10.036  19.592  0.00  0.00    +0.000 A 
ATOM      2  C   UNL     1       1.394  10.162  18.298  0.00  0.00    +0.000 A 
ATOM      3  N   UNL     1       2.111   9.224  17.626  0.00  0.00    +0.000 NA
ATOM      4  C   UNL     1       2.296   8.085  18.333  0.00  0.00    +0.000 A 
ATOM      5  N   UNL     1       2.977   6.979  17.927  0.00  0.00    +0.000 NA
ATOM      6  C   UNL     1       2.880   6.155  18.950  0.00  0.00    +0.000 A 
ATOM      7  N   UNL     1       3.437   4.930  19.095  0.00  0.00    +0.000 N 
ATOM      8  C   UNL     1       4.412   4.498  18.093  0.00  0.00    +0.000 C 
ATOM      9  C   UNL     1       3.928   3.306  17.244  0.00  0.00    +0.000 C 
ATOM     10  N   UNL     1       3.223   2.198  17.925  0.00  0.00    +0.000 NA
ATOM     11  C   UNL     1       1.819   2.543  18.183  0.00  0.00    +0.000 C 
ATOM     12  C   UNL     1       1.575   3.343  19.464  0.00  0.00    +0.000 C 
ATOM     13  C   UNL     1       2.869   3.940  20.022  0.00  0.00    +0.000 C 
ATOM     14  C   UNL     1       3.851   2.793  20.304  0.00  0.00    +0.000 C 
ATOM     15  C   UNL     1       3.900   1.773  19.155  0.00  0.00    +0.000 C 
ATOM     16  O   UNL     1       2.166   6.648  20.015  0.00  0.00    +0.000 OA
ATOM     17  C   UNL     1       1.819   7.902  19.618  0.00  0.00    +0.000 A 
ATOM     18  C   UNL     1       1.123   8.867  20.321  0.00  0.00    +0.000 A 
ENDROOT
BRANCH   1  19
ATOM     19  O   UNL     1       0.180  11.121  20.078  0.00  0.00    +0.000 OA
BRANCH  19  23
ATOM     20  C   UNL     1       1.409  14.985  19.130  0.00  0.00    +0.000 A 
ATOM     21  C   UNL     1       0.179  14.493  18.694  0.00  0.00    +0.000 A 
ATOM     22  C   UNL     1      -0.210  13.195  19.028  0.00  0.00    +0.000 A 
ATOM     23  C   UNL     1       0.634  12.388  19.794  0.00  0.00    +0.000 A 
ATOM     24  C   UNL     1       1.838  12.904  20.280  0.00  0.00    +0.000 A 
ATOM     25  C   UNL     1       2.237  14.194  19.926  0.00  0.00    +0.000 A 
ENDBRANCH  19  23
ENDBRANCH   1  19
TORSDOF 2
ENDMDL
MODEL 9
REMARK VINA RESULT:      -7.7      3.200      8.399
REMARK  Name = 
REMARK  2 active torsions:
REMARK  status: ('A' for Active; 'I' for Inactive)
REMARK    1  A    between atoms: C_4  and  O_5
REMARK    2  A    between atoms: O_5  and  C_6
REMARK                            x       y       z     vdW  Elec       q    Type
REMARK                         _______ _______ _______ _____ _____    ______ ____
ROOT
ATOM      1  C   UNL     1       2.603   7.118  19.288  0.00  0.00    +0.000 A 
ATOM      2  C   UNL     1       2.883   7.662  18.027  0.00  0.00    +0.000 A 
ATOM      3  N   UNL     1       2.401   8.832  17.533  0.00  0.00    +0.000 NA
ATOM      4  C   UNL     1       1.584   9.481  18.395  0.00  0.00    +0.000 A 
ATOM      5  N   UNL     1       0.949  10.665  18.177  0.00  0.00    +0.000 NA
ATOM      6  C   UNL     1       0.281  10.875  19.293  0.00  0.00    +0.000 A 
ATOM      7  N   UNL     1      -0.569  11.887  19.582  0.00  0.00    +0.000 N 
ATOM      8  C   UNL     1      -0.956  12.788  18.495  0.00  0.00    +0.000 C 
ATOM      9  C   UNL     1      -0.436  14.227  18.679  0.00  0.00    +0.000 C 
ATOM     10  N   UNL     1      -0.507  14.833  20.027  0.00  0.00    +0.000 NA
ATOM     11  C   UNL     1       0.594  14.360  20.878  0.00  0.00    +0.000 C 
ATOM     12  C   UNL     1       0.339  13.026  21.582  0.00  0.00    +0.000 C 
ATOM     13  C   UNL     1      -0.847  12.275  20.973  0.00  0.00    +0.000 C 
ATOM     14  C   UNL     1      -2.094  13.165  21.079  0.00  0.00    +0.000 C 
ATOM     15  C   UNL     1      -1.807  14.619  20.673  0.00  0.00    +0.000 C 
ATOM     16  O   UNL     1       0.440   9.899  20.247  0.00  0.00    +0.000 OA
ATOM     17  C   UNL     1       1.258   8.992  19.647  0.00  0.00    +0.000 A 
ATOM     18  C   UNL     1       1.714   7.784  20.139  0.00  0.00    +0.000 A 
ENDROOT
BRANCH   1  19
ATOM     19  O   UNL     1       3.201   5.913  19.577  0.00  0.00    +0.000 OA
BRANCH  19  23
ATOM     20  C   UNL     1       0.822   2.500  19.774  0.00  0.00    +0.000 A 
ATOM     21  C   UNL     1       1.192   3.051  18.547  0.00  0.00    +0.000 A 
ATOM     22  C   UNL     1       1.992   4.194  18.509  0.00  0.00    +0.000 A 
ATOM     23  C   UNL     1       2.418   4.788  19.698  0.00  0.00    +0.000 A 
ATOM     24  C   UNL     1       2.096   4.200  20.925  0.00  0.00    +0.000 A 
ATOM     25  C   UNL     1       1.276   3.071  20.962  0.00  0.00    +0.000 A 
ENDBRANCH  19  23
ENDBRANCH   1  19
TORSDOF 2
ENDMDL
