MODEL 1
REMARK VINA RESULT:      -7.9      0.000      0.000
REMARK  Name = 
REMARK  14 active torsions:
REMARK  status: ('A' for Active; 'I' for Inactive)
REMARK    1  A    between atoms: C_1  and  C_2
REMARK    2  A    between atoms: C_2  and  C_3
REMARK    3  A    between atoms: C_3  and  N_4
REMARK    4  A    between atoms: C_9  and  C_10
REMARK    5  A    between atoms: N_13  and  C_14
REMARK    6  A    between atoms: C_14  and  C_15
REMARK    7  A    between atoms: C_16  and  C_17
REMARK    8  A    between atoms: C_22  and  C_23
REMARK    9  A    between atoms: C_23  and  O_25
REMARK   10  A    between atoms: O_25  and  C_26
REMARK   11  A    between atoms: C_26  and  C_27
REMARK   12  A    between atoms: N_31  and  C_32
REMARK   13  A    between atoms: C_32  and  C_33
REMARK   14  A    between atoms: C_33  and  C_34
REMARK                            x       y       z     vdW  Elec       q    Type
REMARK                         _______ _______ _______ _____ _____    ______ ____
ROOT
ATOM      1  C   UNL     1       0.757   9.674  19.231  0.00  0.00    +0.000 A 
ATOM      2  C   UNL     1       0.377  10.428  20.354  0.00  0.00    +0.000 A 
ATOM      3  N   UNL     1      -0.564  11.339  20.062  0.00  0.00    +0.000 NA
ATOM      4  N   UNL     1      -0.785  11.162  18.738  0.00  0.00    +0.000 N 
ATOM      5  C   UNL     1       0.046  10.224  18.184  0.00  0.00    +0.000 A 
ENDROOT
BRANCH   1  11
ATOM      6  N   UNL     1       4.633   5.388  17.866  0.00  0.00    +0.000 N 
ATOM      7  C   UNL     1       4.180   6.616  17.386  0.00  0.00    +0.000 A 
ATOM      8  O   UNL     1       4.589   7.175  16.376  0.00  0.00    +0.000 OA
ATOM      9  C   UNL     1       3.188   7.194  18.205  0.00  0.00    +0.000 A 
ATOM     10  N   UNL     1       2.539   8.377  18.060  0.00  0.00    +0.000 N 
ATOM     11  C   UNL     1       1.674   8.509  19.116  0.00  0.00    +0.000 A 
ATOM     12  N   UNL     1       1.758   7.460  19.924  0.00  0.00    +0.000 NA
ATOM     13  C   UNL     1       2.694   6.636  19.340  0.00  0.00    +0.000 A 
ATOM     14  N   UNL     1       3.155   5.407  19.771  0.00  0.00    +0.000 N 
ATOM     15  C   UNL     1       4.188   4.775  19.055  0.00  0.00    +0.000 A 
ATOM     16  O   UNL     1       4.695   3.722  19.453  0.00  0.00    +0.000 OA
ATOM     17  H   UNL     1       2.680   9.045  17.311  0.00  0.00    +0.000 HD
BRANCH   6  18
ATOM     18  C   UNL     1       5.729   4.753  17.134  0.00  0.00    +0.000 C 
BRANCH  18  20
ATOM     19  C   UNL     1       6.261   4.042  14.737  0.00  0.00    +0.000 C 
ATOM     20  C   UNL     1       5.297   3.942  15.908  0.00  0.00    +0.000 C 
ENDBRANCH  18  20
ENDBRANCH   6  18
BRANCH  14  21
ATOM     21  C   UNL     1       2.631   4.759  20.971  0.00  0.00    +0.000 C 
BRANCH  21  22
ATOM     22  C   UNL     1       1.362   3.929  20.735  0.00  0.00    +0.000 C 
ATOM     23  C   UNL     1       1.330   2.591  21.465  0.00  0.00    +0.000 C 
ENDBRANCH  21  22
ENDBRANCH  14  21
ENDBRANCH   1  11
BRANCH   4  24
ATOM     24  C   UNL     1      -1.932  11.785  18.075  0.00  0.00    +0.000 C 
BRANCH  24  25
ATOM     25  C   UNL     1      -3.121  11.967  19.003  0.00  0.00    +0.000 C 
ATOM     26  C   UNL     1      -4.142  12.123  19.799  0.00  0.00    +0.000 C 
BRANCH  26  27
ATOM     27  C   UNL     1      -5.258  12.355  20.668  0.00  0.00    +0.000 A 
ATOM     28  C   UNL     1      -5.002  12.929  21.921  0.00  0.00    +0.000 A 
ATOM     29  C   UNL     1      -6.046  13.200  22.807  0.00  0.00    +0.000 A 
ATOM     30  C   UNL     1      -7.357  12.895  22.454  0.00  0.00    +0.000 A 
ATOM     31  C   UNL     1      -7.627  12.322  21.210  0.00  0.00    +0.000 A 
ATOM     32  C   UNL     1      -6.583  12.050  20.306  0.00  0.00    +0.000 A 
BRANCH  32  33
ATOM     33  C   UNL     1      -6.901  11.478  18.969  0.00  0.00    +0.000 C 
ATOM     34  O   UNL     1      -6.684  10.331  18.620  0.00  0.00    +0.000 OA
BRANCH  33  35
ATOM     35  O   UNL     1      -7.370  12.476  18.171  0.00  0.00    +0.000 OA
BRANCH  35  36
ATOM     36  C   UNL     1      -6.486  12.881  17.115  0.00  0.00    +0.000 C 
ATOM     37  C   UNL     1      -6.931  14.251  16.637  0.00  0.00    +0.000 C 
ENDBRANCH  35  36
ENDBRANCH  33  35
ENDBRANCH  32  33
ENDBRANCH  26  27
ENDBRANCH  24  25
ENDBRANCH   4  24
TORSDOF 11
ENDMDL
MODEL 2
REMARK VINA RESULT:      -7.9      1.938      3.649
REMARK  Name = 
REMARK  14 active torsions:
REMARK  status: ('A' for Active; 'I' for Inactive)
REMARK    1  A    between atoms: C_1  and  C_2
REMARK    2  A    between atoms: C_2  and  C_3
REMARK    3  A    between atoms: C_3  and  N_4
REMARK    4  A    between atoms: C_9  and  C_10
REMARK    5  A    between atoms: N_13  and  C_14
REMARK    6  A    between atoms: C_14  and  C_15
REMARK    7  A    between atoms: C_16  and  C_17
REMARK    8  A    between atoms: C_22  and  C_23
REMARK    9  A    between atoms: C_23  and  O_25
REMARK   10  A    between atoms: O_25  and  C_26
REMARK   11  A    between atoms: C_26  and  C_27
REMARK   12  A    between atoms: N_31  and  C_32
REMARK   13  A    between atoms: C_32  and  C_33
REMARK   14  A    between atoms: C_33  and  C_34
REMARK                            x       y       z     vdW  Elec       q    Type
REMARK                         _______ _______ _______ _____ _____    ______ ____
ROOT
ATOM      1  C   UNL     1       1.628  10.085  18.635  0.00  0.00    +0.000 A 
ATOM      2  C   UNL     1       2.169  11.241  18.048  0.00  0.00    +0.000 A 
ATOM      3  N   UNL     1       1.479  12.346  18.369  0.00  0.00    +0.000 NA
ATOM      4  N   UNL     1       0.489  11.888  19.170  0.00  0.00    +0.000 N 
ATOM      5  C   UNL     1       0.497  10.523  19.292  0.00  0.00    +0.000 A 
ENDROOT
BRANCH   1  11
ATOM      6  N   UNL     1       3.162   4.419  19.536  0.00  0.00    +0.000 N 
ATOM      7  C   UNL     1       2.361   5.415  20.094  0.00  0.00    +0.000 A 
ATOM      8  O   UNL     1       1.657   5.282  21.088  0.00  0.00    +0.000 OA
ATOM      9  C   UNL     1       2.411   6.628  19.377  0.00  0.00    +0.000 A 
ATOM     10  N   UNL     1       1.758   7.793  19.615  0.00  0.00    +0.000 N 
ATOM     11  C   UNL     1       2.121   8.681  18.635  0.00  0.00    +0.000 A 
ATOM     12  N   UNL     1       2.972   8.120  17.786  0.00  0.00    +0.000 NA
ATOM     13  C   UNL     1       3.161   6.844  18.265  0.00  0.00    +0.000 A 
ATOM     14  N   UNL     1       3.958   5.837  17.755  0.00  0.00    +0.000 N 
ATOM     15  C   UNL     1       3.931   4.569  18.364  0.00  0.00    +0.000 A 
ATOM     16  O   UNL     1       4.554   3.614  17.890  0.00  0.00    +0.000 OA
ATOM     17  H   UNL     1       1.109   7.967  20.374  0.00  0.00    +0.000 HD
BRANCH   6  18
ATOM     18  C   UNL     1       3.104   3.096  20.156  0.00  0.00    +0.000 C 
BRANCH  18  20
ATOM     19  C   UNL     1       1.212   2.200  18.688  0.00  0.00    +0.000 C 
ATOM     20  C   UNL     1       1.729   2.420  20.101  0.00  0.00    +0.000 C 
ENDBRANCH  18  20
ENDBRANCH   6  18
BRANCH  14  21
ATOM     21  C   UNL     1       4.799   6.034  16.577  0.00  0.00    +0.000 C 
BRANCH  21  22
ATOM     22  C   UNL     1       6.074   6.847  16.843  0.00  0.00    +0.000 C 
ATOM     23  C   UNL     1       7.174   6.087  17.574  0.00  0.00    +0.000 C 
ENDBRANCH  21  22
ENDBRANCH  14  21
ENDBRANCH   1  11
BRANCH   4  24
ATOM     24  C   UNL     1      -0.338  12.809  19.951  0.00  0.00    +0.000 C 
BRANCH  24  25
ATOM     25  C   UNL     1      -1.827  12.583  19.744  0.00  0.00    +0.000 C 
ATOM     26  C   UNL     1      -3.104  12.390  19.568  0.00  0.00    +0.000 C 
BRANCH  26  27
ATOM     27  C   UNL     1      -4.497  12.118  19.362  0.00  0.00    +0.000 A 
ATOM     28  C   UNL     1      -5.421  12.794  20.169  0.00  0.00    +0.000 A 
ATOM     29  C   UNL     1      -6.792  12.590  20.008  0.00  0.00    +0.000 A 
ATOM     30  C   UNL     1      -7.256  11.703  19.041  0.00  0.00    +0.000 A 
ATOM     31  C   UNL     1      -6.347  11.022  18.230  0.00  0.00    +0.000 A 
ATOM     32  C   UNL     1      -4.963  11.224  18.380  0.00  0.00    +0.000 A 
BRANCH  32  33
ATOM     33  C   UNL     1      -4.015  10.517  17.475  0.00  0.00    +0.000 C 
ATOM     34  O   UNL     1      -3.394   9.505  17.750  0.00  0.00    +0.000 OA
BRANCH  33  35
ATOM     35  O   UNL     1      -3.876  11.249  16.335  0.00  0.00    +0.000 OA
BRANCH  35  36
ATOM     36  C   UNL     1      -2.821  10.825  15.461  0.00  0.00    +0.000 C 
ATOM     37  C   UNL     1      -3.454  10.092  14.291  0.00  0.00    +0.000 C 
ENDBRANCH  35  36
ENDBRANCH  33  35
ENDBRANCH  32  33
ENDBRANCH  26  27
ENDBRANCH  24  25
ENDBRANCH   4  24
TORSDOF 11
ENDMDL
MODEL 3
REMARK VINA RESULT:      -7.8      1.939      3.574
REMARK  Name = 
REMARK  14 active torsions:
REMARK  status: ('A' for Active; 'I' for Inactive)
REMARK    1  A    between atoms: C_1  and  C_2
REMARK    2  A    between atoms: C_2  and  C_3
REMARK    3  A    between atoms: C_3  and  N_4
REMARK    4  A    between atoms: C_9  and  C_10
REMARK    5  A    between atoms: N_13  and  C_14
REMARK    6  A    between atoms: C_14  and  C_15
REMARK    7  A    between atoms: C_16  and  C_17
REMARK    8  A    between atoms: C_22  and  C_23
REMARK    9  A    between atoms: C_23  and  O_25
REMARK   10  A    between atoms: O_25  and  C_26
REMARK   11  A    between atoms: C_26  and  C_27
REMARK   12  A    between atoms: N_31  and  C_32
REMARK   13  A    between atoms: C_32  and  C_33
REMARK   14  A    between atoms: C_33  and  C_34
REMARK                            x       y       z     vdW  Elec       q    Type
REMARK                         _______ _______ _______ _____ _____    ______ ____
ROOT
ATOM      1  C   UNL     1       1.104   9.285  20.455  0.00  0.00    +0.000 A 
ATOM      2  C   UNL     1       0.382   9.542  21.632  0.00  0.00    +0.000 A 
ATOM      3  N   UNL     1      -0.164  10.768  21.637  0.00  0.00    +0.000 NA
ATOM      4  N   UNL     1       0.215  11.295  20.449  0.00  0.00    +0.000 N 
ATOM      5  C   UNL     1       1.043  10.464  19.742  0.00  0.00    +0.000 A 
ENDROOT
BRANCH   1  11
ATOM      6  N   UNL     1       3.522   3.950  19.474  0.00  0.00    +0.000 N 
ATOM      7  C   UNL     1       2.708   4.605  20.398  0.00  0.00    +0.000 A 
ATOM      8  O   UNL     1       2.220   4.094  21.399  0.00  0.00    +0.000 OA
ATOM      9  C   UNL     1       2.465   5.952  20.059  0.00  0.00    +0.000 A 
ATOM     10  N   UNL     1       1.715   6.878  20.709  0.00  0.00    +0.000 N 
ATOM     11  C   UNL     1       1.773   8.042  19.985  0.00  0.00    +0.000 A 
ATOM     12  N   UNL     1       2.524   7.884  18.903  0.00  0.00    +0.000 NA
ATOM     13  C   UNL     1       2.966   6.582  18.965  0.00  0.00    +0.000 A 
ATOM     14  N   UNL     1       3.786   5.903  18.084  0.00  0.00    +0.000 N 
ATOM     15  C   UNL     1       4.040   4.536  18.301  0.00  0.00    +0.000 A 
ATOM     16  O   UNL     1       4.690   3.866  17.493  0.00  0.00    +0.000 OA
ATOM     17  H   UNL     1       1.196   6.728  21.566  0.00  0.00    +0.000 HD
BRANCH   6  18
ATOM     18  C   UNL     1       3.755   2.523  19.690  0.00  0.00    +0.000 C 
BRANCH  18  20
ATOM     19  C   UNL     1       1.483   1.949  18.667  0.00  0.00    +0.000 C 
ATOM     20  C   UNL     1       2.958   1.595  18.766  0.00  0.00    +0.000 C 
ENDBRANCH  18  20
ENDBRANCH   6  18
BRANCH  14  21
ATOM     21  C   UNL     1       4.366   6.548  16.909  0.00  0.00    +0.000 C 
BRANCH  21  22
ATOM     22  C   UNL     1       5.696   7.266  17.179  0.00  0.00    +0.000 C 
ATOM     23  C   UNL     1       6.931   6.379  17.086  0.00  0.00    +0.000 C 
ENDBRANCH  21  22
ENDBRANCH  14  21
ENDBRANCH   1  11
BRANCH   4  24
ATOM     24  C   UNL     1      -0.390  12.529  19.944  0.00  0.00    +0.000 C 
BRANCH  24  25
ATOM     25  C   UNL     1      -1.880  12.390  19.679  0.00  0.00    +0.000 C 
ATOM     26  C   UNL     1      -3.158  12.270  19.452  0.00  0.00    +0.000 C 
BRANCH  26  27
ATOM     27  C   UNL     1      -4.573  12.185  19.241  0.00  0.00    +0.000 A 
ATOM     28  C   UNL     1      -5.400  13.005  20.021  0.00  0.00    +0.000 A 
ATOM     29  C   UNL     1      -6.785  12.986  19.853  0.00  0.00    +0.000 A 
ATOM     30  C   UNL     1      -7.362  12.143  18.907  0.00  0.00    +0.000 A 
ATOM     31  C   UNL     1      -6.551  11.319  18.125  0.00  0.00    +0.000 A 
ATOM     32  C   UNL     1      -5.152  11.334  18.282  0.00  0.00    +0.000 A 
BRANCH  32  33
ATOM     33  C   UNL     1      -4.306  10.478  17.406  0.00  0.00    +0.000 C 
ATOM     34  O   UNL     1      -3.762   9.440  17.742  0.00  0.00    +0.000 OA
BRANCH  33  35
ATOM     35  O   UNL     1      -4.153  11.102  16.206  0.00  0.00    +0.000 OA
BRANCH  35  36
ATOM     36  C   UNL     1      -2.885  10.897  15.567  0.00  0.00    +0.000 C 
ATOM     37  C   UNL     1      -3.123  10.071  14.316  0.00  0.00    +0.000 C 
ENDBRANCH  35  36
ENDBRANCH  33  35
ENDBRANCH  32  33
ENDBRANCH  26  27
ENDBRANCH  24  25
ENDBRANCH   4  24
TORSDOF 11
ENDMDL
MODEL 4
REMARK VINA RESULT:      -7.7      1.496      2.199
REMARK  Name = 
REMARK  14 active torsions:
REMARK  status: ('A' for Active; 'I' for Inactive)
REMARK    1  A    between atoms: C_1  and  C_2
REMARK    2  A    between atoms: C_2  and  C_3
REMARK    3  A    between atoms: C_3  and  N_4
REMARK    4  A    between atoms: C_9  and  C_10
REMARK    5  A    between atoms: N_13  and  C_14
REMARK    6  A    between atoms: C_14  and  C_15
REMARK    7  A    between atoms: C_16  and  C_17
REMARK    8  A    between atoms: C_22  and  C_23
REMARK    9  A    between atoms: C_23  and  O_25
REMARK   10  A    between atoms: O_25  and  C_26
REMARK   11  A    between atoms: C_26  and  C_27
REMARK   12  A    between atoms: N_31  and  C_32
REMARK   13  A    between atoms: C_32  and  C_33
REMARK   14  A    between atoms: C_33  and  C_34
REMARK                            x       y       z     vdW  Elec       q    Type
REMARK                         _______ _______ _______ _____ _____    ______ ____
ROOT
ATOM      1  C   UNL     1       1.018   9.327  18.915  0.00  0.00    +0.000 A 
ATOM      2  C   UNL     1       0.063   9.770  17.984  0.00  0.00    +0.000 A 
ATOM      3  N   UNL     1      -0.532  10.909  18.369  0.00  0.00    +0.000 NA
ATOM      4  N   UNL     1       0.052  11.194  19.557  0.00  0.00    +0.000 N 
ATOM      5  C   UNL     1       0.934  10.225  19.958  0.00  0.00    +0.000 A 
ENDROOT
BRANCH   1  11
ATOM      6  N   UNL     1       5.061   5.136  17.750  0.00  0.00    +0.000 N 
ATOM      7  C   UNL     1       4.586   6.341  17.232  0.00  0.00    +0.000 A 
ATOM      8  O   UNL     1       5.009   6.893  16.224  0.00  0.00    +0.000 OA
ATOM      9  C   UNL     1       3.553   6.903  18.010  0.00  0.00    +0.000 A 
ATOM     10  N   UNL     1       2.873   8.063  17.823  0.00  0.00    +0.000 N 
ATOM     11  C   UNL     1       1.973   8.187  18.850  0.00  0.00    +0.000 A 
ATOM     12  N   UNL     1       2.064   7.157  19.680  0.00  0.00    +0.000 NA
ATOM     13  C   UNL     1       3.041   6.352  19.141  0.00  0.00    +0.000 A 
ATOM     14  N   UNL     1       3.525   5.145  19.609  0.00  0.00    +0.000 N 
ATOM     15  C   UNL     1       4.598   4.532  18.937  0.00  0.00    +0.000 A 
ATOM     16  O   UNL     1       5.125   3.502  19.370  0.00  0.00    +0.000 OA
ATOM     17  H   UNL     1       3.017   8.721  17.066  0.00  0.00    +0.000 HD
BRANCH   6  18
ATOM     18  C   UNL     1       6.197   4.521  17.064  0.00  0.00    +0.000 C 
BRANCH  18  20
ATOM     19  C   UNL     1       7.735   6.082  18.380  0.00  0.00    +0.000 C 
ATOM     20  C   UNL     1       7.547   4.705  17.765  0.00  0.00    +0.000 C 
ENDBRANCH  18  20
ENDBRANCH   6  18
BRANCH  14  21
ATOM     21  C   UNL     1       2.986   4.504  20.805  0.00  0.00    +0.000 C 
BRANCH  21  22
ATOM     22  C   UNL     1       2.103   3.281  20.520  0.00  0.00    +0.000 C 
ATOM     23  C   UNL     1       0.654   3.605  20.178  0.00  0.00    +0.000 C 
ENDBRANCH  21  22
ENDBRANCH  14  21
ENDBRANCH   1  11
BRANCH   4  24
ATOM     24  C   UNL     1      -0.128  12.501  20.192  0.00  0.00    +0.000 C 
BRANCH  24  25
ATOM     25  C   UNL     1      -1.377  12.569  21.056  0.00  0.00    +0.000 C 
ATOM     26  C   UNL     1      -2.448  12.628  21.797  0.00  0.00    +0.000 C 
BRANCH  26  27
ATOM     27  C   UNL     1      -3.636  12.634  22.599  0.00  0.00    +0.000 A 
ATOM     28  C   UNL     1      -3.505  12.341  23.963  0.00  0.00    +0.000 A 
ATOM     29  C   UNL     1      -4.618  12.347  24.804  0.00  0.00    +0.000 A 
ATOM     30  C   UNL     1      -5.878  12.642  24.290  0.00  0.00    +0.000 A 
ATOM     31  C   UNL     1      -6.024  12.934  22.933  0.00  0.00    +0.000 A 
ATOM     32  C   UNL     1      -4.907  12.936  22.077  0.00  0.00    +0.000 A 
BRANCH  32  33
ATOM     33  C   UNL     1      -5.082  13.293  20.642  0.00  0.00    +0.000 C 
ATOM     34  O   UNL     1      -4.952  14.408  20.169  0.00  0.00    +0.000 OA
BRANCH  33  35
ATOM     35  O   UNL     1      -5.517  12.191  19.971  0.00  0.00    +0.000 OA
BRANCH  35  36
ATOM     36  C   UNL     1      -5.235  12.181  18.564  0.00  0.00    +0.000 C 
ATOM     37  C   UNL     1      -3.851  11.588  18.372  0.00  0.00    +0.000 C 
ENDBRANCH  35  36
ENDBRANCH  33  35
ENDBRANCH  32  33
ENDBRANCH  26  27
ENDBRANCH  24  25
ENDBRANCH   4  24
TORSDOF 11
ENDMDL
MODEL 5
REMARK VINA RESULT:      -7.6      1.455      2.054
REMARK  Name = 
REMARK  14 active torsions:
REMARK  status: ('A' for Active; 'I' for Inactive)
REMARK    1  A    between atoms: C_1  and  C_2
REMARK    2  A    between atoms: C_2  and  C_3
REMARK    3  A    between atoms: C_3  and  N_4
REMARK    4  A    between atoms: C_9  and  C_10
REMARK    5  A    between atoms: N_13  and  C_14
REMARK    6  A    between atoms: C_14  and  C_15
REMARK    7  A    between atoms: C_16  and  C_17
REMARK    8  A    between atoms: C_22  and  C_23
REMARK    9  A    between atoms: C_23  and  O_25
REMARK   10  A    between atoms: O_25  and  C_26
REMARK   11  A    between atoms: C_26  and  C_27
REMARK   12  A    between atoms: N_31  and  C_32
REMARK   13  A    between atoms: C_32  and  C_33
REMARK   14  A    between atoms: C_33  and  C_34
REMARK                            x       y       z     vdW  Elec       q    Type
REMARK                         _______ _______ _______ _____ _____    ______ ____
ROOT
ATOM      1  C   UNL     1       1.213   9.441  19.009  0.00  0.00    +0.000 A 
ATOM      2  C   UNL     1       1.063  10.586  18.209  0.00  0.00    +0.000 A 
ATOM      3  N   UNL     1       0.210  11.473  18.745  0.00  0.00    +0.000 NA
ATOM      4  N   UNL     1      -0.185  10.885  19.899  0.00  0.00    +0.000 N 
ATOM      5  C   UNL     1       0.336   9.628  20.056  0.00  0.00    +0.000 A 
ENDROOT
BRANCH   1  11
ATOM      6  N   UNL     1       5.072   5.178  17.523  0.00  0.00    +0.000 N 
ATOM      7  C   UNL     1       4.646   6.435  17.096  0.00  0.00    +0.000 A 
ATOM      8  O   UNL     1       5.088   7.040  16.126  0.00  0.00    +0.000 OA
ATOM      9  C   UNL     1       3.640   6.984  17.918  0.00  0.00    +0.000 A 
ATOM     10  N   UNL     1       3.008   8.181  17.818  0.00  0.00    +0.000 N 
ATOM     11  C   UNL     1       2.119   8.270  18.857  0.00  0.00    +0.000 A 
ATOM     12  N   UNL     1       2.169   7.181  19.612  0.00  0.00    +0.000 NA
ATOM     13  C   UNL     1       3.110   6.376  19.010  0.00  0.00    +0.000 A 
ATOM     14  N   UNL     1       3.545   5.120  19.389  0.00  0.00    +0.000 N 
ATOM     15  C   UNL     1       4.588   4.512  18.668  0.00  0.00    +0.000 A 
ATOM     16  O   UNL     1       5.073   3.433  19.024  0.00  0.00    +0.000 OA
ATOM     17  H   UNL     1       3.177   8.885  17.108  0.00  0.00    +0.000 HD
BRANCH   6  18
ATOM     18  C   UNL     1       6.178   4.567  16.788  0.00  0.00    +0.000 C 
BRANCH  18  20
ATOM     19  C   UNL     1       6.093   4.157  14.266  0.00  0.00    +0.000 C 
ATOM     20  C   UNL     1       5.754   3.631  15.651  0.00  0.00    +0.000 C 
ENDBRANCH  18  20
ENDBRANCH   6  18
BRANCH  14  21
ATOM     21  C   UNL     1       2.983   4.419  20.541  0.00  0.00    +0.000 C 
BRANCH  21  22
ATOM     22  C   UNL     1       1.561   3.883  20.320  0.00  0.00    +0.000 C 
ATOM     23  C   UNL     1       1.492   2.484  19.722  0.00  0.00    +0.000 C 
ENDBRANCH  21  22
ENDBRANCH  14  21
ENDBRANCH   1  11
BRANCH   4  24
ATOM     24  C   UNL     1      -0.920  11.638  20.917  0.00  0.00    +0.000 C 
BRANCH  24  25
ATOM     25  C   UNL     1      -2.284  12.102  20.435  0.00  0.00    +0.000 C 
ATOM     26  C   UNL     1      -3.455  12.501  20.022  0.00  0.00    +0.000 C 
BRANCH  26  27
ATOM     27  C   UNL     1      -4.768  12.898  19.605  0.00  0.00    +0.000 A 
ATOM     28  C   UNL     1      -5.367  13.975  20.272  0.00  0.00    +0.000 A 
ATOM     29  C   UNL     1      -6.635  14.425  19.904  0.00  0.00    +0.000 A 
ATOM     30  C   UNL     1      -7.323  13.800  18.867  0.00  0.00    +0.000 A 
ATOM     31  C   UNL     1      -6.739  12.726  18.194  0.00  0.00    +0.000 A 
ATOM     32  C   UNL     1      -5.458  12.268  18.553  0.00  0.00    +0.000 A 
BRANCH  32  33
ATOM     33  C   UNL     1      -4.839  11.147  17.793  0.00  0.00    +0.000 C 
ATOM     34  O   UNL     1      -4.864   9.973  18.116  0.00  0.00    +0.000 OA
BRANCH  33  35
ATOM     35  O   UNL     1      -4.150  11.667  16.739  0.00  0.00    +0.000 OA
BRANCH  35  36
ATOM     36  C   UNL     1      -2.830  11.137  16.551  0.00  0.00    +0.000 C 
ATOM     37  C   UNL     1      -2.838  10.313  15.276  0.00  0.00    +0.000 C 
ENDBRANCH  35  36
ENDBRANCH  33  35
ENDBRANCH  32  33
ENDBRANCH  26  27
ENDBRANCH  24  25
ENDBRANCH   4  24
TORSDOF 11
ENDMDL
MODEL 6
REMARK VINA RESULT:      -7.6      1.778      2.836
REMARK  Name = 
REMARK  14 active torsions:
REMARK  status: ('A' for Active; 'I' for Inactive)
REMARK    1  A    between atoms: C_1  and  C_2
REMARK    2  A    between atoms: C_2  and  C_3
REMARK    3  A    between atoms: C_3  and  N_4
REMARK    4  A    between atoms: C_9  and  C_10
REMARK    5  A    between atoms: N_13  and  C_14
REMARK    6  A    between atoms: C_14  and  C_15
REMARK    7  A    between atoms: C_16  and  C_17
REMARK    8  A    between atoms: C_22  and  C_23
REMARK    9  A    between atoms: C_23  and  O_25
REMARK   10  A    between atoms: O_25  and  C_26
REMARK   11  A    between atoms: C_26  and  C_27
REMARK   12  A    between atoms: N_31  and  C_32
REMARK   13  A    between atoms: C_32  and  C_33
REMARK   14  A    between atoms: C_33  and  C_34
REMARK                            x       y       z     vdW  Elec       q    Type
REMARK                         _______ _______ _______ _____ _____    ______ ____
ROOT
ATOM      1  C   UNL     1       0.995   9.356  19.726  0.00  0.00    +0.000 A 
ATOM      2  C   UNL     1       0.275   9.714  20.878  0.00  0.00    +0.000 A 
ATOM      3  N   UNL     1      -0.467  10.816  20.694  0.00  0.00    +0.000 NA
ATOM      4  N   UNL     1      -0.218  11.163  19.409  0.00  0.00    +0.000 N 
ATOM      5  C   UNL     1       0.717  10.355  18.816  0.00  0.00    +0.000 A 
ENDROOT
BRANCH   1  11
ATOM      6  N   UNL     1       4.618   5.079  17.765  0.00  0.00    +0.000 N 
ATOM      7  C   UNL     1       4.221   6.378  17.447  0.00  0.00    +0.000 A 
ATOM      8  O   UNL     1       4.642   7.034  16.502  0.00  0.00    +0.000 OA
ATOM      9  C   UNL     1       3.275   6.901  18.352  0.00  0.00    +0.000 A 
ATOM     10  N   UNL     1       2.686   8.123  18.366  0.00  0.00    +0.000 N 
ATOM     11  C   UNL     1       1.848   8.169  19.450  0.00  0.00    +0.000 A 
ATOM     12  N   UNL     1       1.891   7.027  20.124  0.00  0.00    +0.000 NA
ATOM     13  C   UNL     1       2.772   6.235  19.423  0.00  0.00    +0.000 A 
ATOM     14  N   UNL     1       3.175   4.941  19.693  0.00  0.00    +0.000 N 
ATOM     15  C   UNL     1       4.162   4.350  18.882  0.00  0.00    +0.000 A 
ATOM     16  O   UNL     1       4.620   3.232  19.138  0.00  0.00    +0.000 OA
ATOM     17  H   UNL     1       2.849   8.870  17.699  0.00  0.00    +0.000 HD
BRANCH   6  18
ATOM     18  C   UNL     1       5.666   4.484  16.937  0.00  0.00    +0.000 C 
BRANCH  18  20
ATOM     19  C   UNL     1       7.493   5.902  18.027  0.00  0.00    +0.000 C 
ATOM     20  C   UNL     1       7.069   4.521  17.552  0.00  0.00    +0.000 C 
ENDBRANCH  18  20
ENDBRANCH   6  18
BRANCH  14  21
ATOM     21  C   UNL     1       2.640   4.180  20.818  0.00  0.00    +0.000 C 
BRANCH  21  22
ATOM     22  C   UNL     1       1.171   3.763  20.654  0.00  0.00    +0.000 C 
ATOM     23  C   UNL     1       0.901   2.825  19.484  0.00  0.00    +0.000 C 
ENDBRANCH  21  22
ENDBRANCH  14  21
ENDBRANCH   1  11
BRANCH   4  24
ATOM     24  C   UNL     1      -1.034  12.168  18.726  0.00  0.00    +0.000 C 
BRANCH  24  25
ATOM     25  C   UNL     1      -2.444  12.261  19.287  0.00  0.00    +0.000 C 
ATOM     26  C   UNL     1      -3.653  12.340  19.768  0.00  0.00    +0.000 C 
BRANCH  26  27
ATOM     27  C   UNL     1      -5.002  12.441  20.241  0.00  0.00    +0.000 A 
ATOM     28  C   UNL     1      -6.035  12.221  19.319  0.00  0.00    +0.000 A 
ATOM     29  C   UNL     1      -7.371  12.286  19.717  0.00  0.00    +0.000 A 
ATOM     30  C   UNL     1      -7.691  12.575  21.041  0.00  0.00    +0.000 A 
ATOM     31  C   UNL     1      -6.673  12.798  21.969  0.00  0.00    +0.000 A 
ATOM     32  C   UNL     1      -5.323  12.730  21.580  0.00  0.00    +0.000 A 
BRANCH  32  33
ATOM     33  C   UNL     1      -4.254  12.929  22.598  0.00  0.00    +0.000 C 
ATOM     34  O   UNL     1      -3.748  12.051  23.274  0.00  0.00    +0.000 OA
BRANCH  33  35
ATOM     35  O   UNL     1      -4.017  14.264  22.723  0.00  0.00    +0.000 OA
BRANCH  35  36
ATOM     36  C   UNL     1      -4.421  14.842  23.972  0.00  0.00    +0.000 C 
ATOM     37  C   UNL     1      -3.166  15.165  24.762  0.00  0.00    +0.000 C 
ENDBRANCH  35  36
ENDBRANCH  33  35
ENDBRANCH  32  33
ENDBRANCH  26  27
ENDBRANCH  24  25
ENDBRANCH   4  24
TORSDOF 11
ENDMDL
MODEL 7
REMARK VINA RESULT:      -7.6      2.045      2.873
REMARK  Name = 
REMARK  14 active torsions:
REMARK  status: ('A' for Active; 'I' for Inactive)
REMARK    1  A    between atoms: C_1  and  C_2
REMARK    2  A    between atoms: C_2  and  C_3
REMARK    3  A    between atoms: C_3  and  N_4
REMARK    4  A    between atoms: C_9  and  C_10
REMARK    5  A    between atoms: N_13  and  C_14
REMARK    6  A    between atoms: C_14  and  C_15
REMARK    7  A    between atoms: C_16  and  C_17
REMARK    8  A    between atoms: C_22  and  C_23
REMARK    9  A    between atoms: C_23  and  O_25
REMARK   10  A    between atoms: O_25  and  C_26
REMARK   11  A    between atoms: C_26  and  C_27
REMARK   12  A    between atoms: N_31  and  C_32
REMARK   13  A    between atoms: C_32  and  C_33
REMARK   14  A    between atoms: C_33  and  C_34
REMARK                            x       y       z     vdW  Elec       q    Type
REMARK                         _______ _______ _______ _____ _____    ______ ____
ROOT
ATOM      1  C   UNL     1       1.177   9.167  19.275  0.00  0.00    +0.000 A 
ATOM      2  C   UNL     1       0.606   9.656  20.463  0.00  0.00    +0.000 A 
ATOM      3  N   UNL     1      -0.290  10.628  20.235  0.00  0.00    +0.000 NA
ATOM      4  N   UNL     1      -0.290  10.758  18.887  0.00  0.00    +0.000 N 
ATOM      5  C   UNL     1       0.635   9.951  18.278  0.00  0.00    +0.000 A 
ENDROOT
BRANCH   1  11
ATOM      6  N   UNL     1       5.116   5.095  17.496  0.00  0.00    +0.000 N 
ATOM      7  C   UNL     1       4.615   6.340  17.116  0.00  0.00    +0.000 A 
ATOM      8  O   UNL     1       4.975   6.978  16.134  0.00  0.00    +0.000 OA
ATOM      9  C   UNL     1       3.637   6.833  18.004  0.00  0.00    +0.000 A 
ATOM     10  N   UNL     1       2.951   8.003  17.961  0.00  0.00    +0.000 N 
ATOM     11  C   UNL     1       2.120   8.038  19.051  0.00  0.00    +0.000 A 
ATOM     12  N   UNL     1       2.258   6.940  19.782  0.00  0.00    +0.000 NA
ATOM     13  C   UNL     1       3.195   6.185  19.113  0.00  0.00    +0.000 A 
ATOM     14  N   UNL     1       3.703   4.943  19.443  0.00  0.00    +0.000 N 
ATOM     15  C   UNL     1       4.727   4.391  18.653  0.00  0.00    +0.000 A 
ATOM     16  O   UNL     1       5.275   3.328  18.961  0.00  0.00    +0.000 OA
ATOM     17  H   UNL     1       3.050   8.725  17.256  0.00  0.00    +0.000 HD
BRANCH   6  18
ATOM     18  C   UNL     1       6.203   4.543  16.688  0.00  0.00    +0.000 C 
BRANCH  18  20
ATOM     19  C   UNL     1       6.236   4.164  14.160  0.00  0.00    +0.000 C 
ATOM     20  C   UNL     1       5.750   3.670  15.513  0.00  0.00    +0.000 C 
ENDBRANCH  18  20
ENDBRANCH   6  18
BRANCH  14  21
ATOM     21  C   UNL     1       3.237   4.200  20.612  0.00  0.00    +0.000 C 
BRANCH  21  22
ATOM     22  C   UNL     1       2.194   3.119  20.296  0.00  0.00    +0.000 C 
ATOM     23  C   UNL     1       0.755   3.617  20.240  0.00  0.00    +0.000 C 
ENDBRANCH  21  22
ENDBRANCH  14  21
ENDBRANCH   1  11
BRANCH   4  24
ATOM     24  C   UNL     1      -1.324  11.537  18.203  0.00  0.00    +0.000 C 
BRANCH  24  25
ATOM     25  C   UNL     1      -2.439  11.981  19.136  0.00  0.00    +0.000 C 
ATOM     26  C   UNL     1      -3.396  12.363  19.935  0.00  0.00    +0.000 C 
BRANCH  26  27
ATOM     27  C   UNL     1      -4.404  12.801  20.855  0.00  0.00    +0.000 A 
ATOM     28  C   UNL     1      -5.688  13.048  20.348  0.00  0.00    +0.000 A 
ATOM     29  C   UNL     1      -6.721  13.458  21.191  0.00  0.00    +0.000 A 
ATOM     30  C   UNL     1      -6.483  13.631  22.552  0.00  0.00    +0.000 A 
ATOM     31  C   UNL     1      -5.210  13.389  23.071  0.00  0.00    +0.000 A 
ATOM     32  C   UNL     1      -4.162  12.970  22.230  0.00  0.00    +0.000 A 
BRANCH  32  33
ATOM     33  C   UNL     1      -2.824  12.678  22.815  0.00  0.00    +0.000 C 
ATOM     34  O   UNL     1      -2.468  11.604  23.266  0.00  0.00    +0.000 OA
BRANCH  33  35
ATOM     35  O   UNL     1      -2.108  13.835  22.859  0.00  0.00    +0.000 OA
BRANCH  35  36
ATOM     36  C   UNL     1      -0.708  13.699  22.576  0.00  0.00    +0.000 C 
ATOM     37  C   UNL     1      -0.449  14.310  21.211  0.00  0.00    +0.000 C 
ENDBRANCH  35  36
ENDBRANCH  33  35
ENDBRANCH  32  33
ENDBRANCH  26  27
ENDBRANCH  24  25
ENDBRANCH   4  24
TORSDOF 11
ENDMDL
MODEL 8
REMARK VINA RESULT:      -7.6      1.202      1.573
REMARK  Name = 
REMARK  14 active torsions:
REMARK  status: ('A' for Active; 'I' for Inactive)
REMARK    1  A    between atoms: C_1  and  C_2
REMARK    2  A    between atoms: C_2  and  C_3
REMARK    3  A    between atoms: C_3  and  N_4
REMARK    4  A    between atoms: C_9  and  C_10
REMARK    5  A    between atoms: N_13  and  C_14
REMARK    6  A    between atoms: C_14  and  C_15
REMARK    7  A    between atoms: C_16  and  C_17
REMARK    8  A    between atoms: C_22  and  C_23
REMARK    9  A    between atoms: C_23  and  O_25
REMARK   10  A    between atoms: O_25  and  C_26
REMARK   11  A    between atoms: C_26  and  C_27
REMARK   12  A    between atoms: N_31  and  C_32
REMARK   13  A    between atoms: C_32  and  C_33
REMARK   14  A    between atoms: C_33  and  C_34
REMARK                            x       y       z     vdW  Elec       q    Type
REMARK                         _______ _______ _______ _____ _____    ______ ____
ROOT
ATOM      1  C   UNL     1       1.189   9.518  18.749  0.00  0.00    +0.000 A 
ATOM      2  C   UNL     1       1.169  10.582  19.667  0.00  0.00    +0.000 A 
ATOM      3  N   UNL     1       0.115  11.392  19.483  0.00  0.00    +0.000 NA
ATOM      4  N   UNL     1      -0.542  10.836  18.438  0.00  0.00    +0.000 N 
ATOM      5  C   UNL     1       0.113   9.752  17.918  0.00  0.00    +0.000 A 
ENDROOT
BRANCH   1  11
ATOM      6  N   UNL     1       5.062   5.203  17.468  0.00  0.00    +0.000 N 
ATOM      7  C   UNL     1       4.634   6.438  16.983  0.00  0.00    +0.000 A 
ATOM      8  O   UNL     1       5.078   7.000  15.989  0.00  0.00    +0.000 OA
ATOM      9  C   UNL     1       3.625   7.021  17.777  0.00  0.00    +0.000 A 
ATOM     10  N   UNL     1       2.991   8.210  17.621  0.00  0.00    +0.000 N 
ATOM     11  C   UNL     1       2.098   8.344  18.653  0.00  0.00    +0.000 A 
ATOM     12  N   UNL     1       2.149   7.289  19.456  0.00  0.00    +0.000 NA
ATOM     13  C   UNL     1       3.093   6.460  18.893  0.00  0.00    +0.000 A 
ATOM     14  N   UNL     1       3.530   5.224  19.330  0.00  0.00    +0.000 N 
ATOM     15  C   UNL     1       4.577   4.587  18.639  0.00  0.00    +0.000 A 
ATOM     16  O   UNL     1       5.063   3.526  19.044  0.00  0.00    +0.000 OA
ATOM     17  H   UNL     1       3.160   8.882  16.881  0.00  0.00    +0.000 HD
BRANCH   6  18
ATOM     18  C   UNL     1       6.172   4.562  16.763  0.00  0.00    +0.000 C 
BRANCH  18  20
ATOM     19  C   UNL     1       6.265   4.128  14.246  0.00  0.00    +0.000 C 
ATOM     20  C   UNL     1       5.757   3.657  15.599  0.00  0.00    +0.000 C 
ENDBRANCH  18  20
ENDBRANCH   6  18
BRANCH  14  21
ATOM     21  C   UNL     1       2.966   4.574  20.509  0.00  0.00    +0.000 C 
BRANCH  21  22
ATOM     22  C   UNL     1       1.748   3.685  20.218  0.00  0.00    +0.000 C 
ATOM     23  C   UNL     1       1.308   2.805  21.380  0.00  0.00    +0.000 C 
ENDBRANCH  21  22
ENDBRANCH  14  21
ENDBRANCH   1  11
BRANCH   4  24
ATOM     24  C   UNL     1      -1.896  11.267  18.082  0.00  0.00    +0.000 C 
BRANCH  24  25
ATOM     25  C   UNL     1      -2.629  11.921  19.242  0.00  0.00    +0.000 C 
ATOM     26  C   UNL     1      -3.259  12.481  20.237  0.00  0.00    +0.000 C 
BRANCH  26  27
ATOM     27  C   UNL     1      -3.946  13.151  21.301  0.00  0.00    +0.000 A 
ATOM     28  C   UNL     1      -3.236  13.392  22.486  0.00  0.00    +0.000 A 
ATOM     29  C   UNL     1      -3.839  14.056  23.555  0.00  0.00    +0.000 A 
ATOM     30  C   UNL     1      -5.160  14.484  23.455  0.00  0.00    +0.000 A 
ATOM     31  C   UNL     1      -5.879  14.250  22.282  0.00  0.00    +0.000 A 
ATOM     32  C   UNL     1      -5.279  13.586  21.195  0.00  0.00    +0.000 A 
BRANCH  32  33
ATOM     33  C   UNL     1      -6.053  13.386  19.939  0.00  0.00    +0.000 C 
ATOM     34  O   UNL     1      -6.158  14.197  19.035  0.00  0.00    +0.000 OA
BRANCH  33  35
ATOM     35  O   UNL     1      -6.709  12.196  20.018  0.00  0.00    +0.000 OA
BRANCH  35  36
ATOM     36  C   UNL     1      -7.140  11.651  18.763  0.00  0.00    +0.000 C 
ATOM     37  C   UNL     1      -6.015  10.787  18.222  0.00  0.00    +0.000 C 
ENDBRANCH  35  36
ENDBRANCH  33  35
ENDBRANCH  32  33
ENDBRANCH  26  27
ENDBRANCH  24  25
ENDBRANCH   4  24
TORSDOF 11
ENDMDL
MODEL 9
REMARK VINA RESULT:      -7.5      2.047      3.110
REMARK  Name = 
REMARK  14 active torsions:
REMARK  status: ('A' for Active; 'I' for Inactive)
REMARK    1  A    between atoms: C_1  and  C_2
REMARK    2  A    between atoms: C_2  and  C_3
REMARK    3  A    between atoms: C_3  and  N_4
REMARK    4  A    between atoms: C_9  and  C_10
REMARK    5  A    between atoms: N_13  and  C_14
REMARK    6  A    between atoms: C_14  and  C_15
REMARK    7  A    between atoms: C_16  and  C_17
REMARK    8  A    between atoms: C_22  and  C_23
REMARK    9  A    between atoms: C_23  and  O_25
REMARK   10  A    between atoms: O_25  and  C_26
REMARK   11  A    between atoms: C_26  and  C_27
REMARK   12  A    between atoms: N_31  and  C_32
REMARK   13  A    between atoms: C_32  and  C_33
REMARK   14  A    between atoms: C_33  and  C_34
REMARK                            x       y       z     vdW  Elec       q    Type
REMARK                         _______ _______ _______ _____ _____    ______ ____
ROOT
ATOM      1  C   UNL     1       1.034   9.358  19.049  0.00  0.00    +0.000 A 
ATOM      2  C   UNL     1       0.396  10.117  18.054  0.00  0.00    +0.000 A 
ATOM      3  N   UNL     1      -0.286  11.155  18.562  0.00  0.00    +0.000 NA
ATOM      4  N   UNL     1      -0.079  11.054  19.897  0.00  0.00    +0.000 N 
ATOM      5  C   UNL     1       0.645   9.942  20.237  0.00  0.00    +0.000 A 
ENDROOT
BRANCH   1  11
ATOM      6  N   UNL     1       4.991   5.140  17.704  0.00  0.00    +0.000 N 
ATOM      7  C   UNL     1       4.543   6.376  17.240  0.00  0.00    +0.000 A 
ATOM      8  O   UNL     1       4.980   6.965  16.259  0.00  0.00    +0.000 OA
ATOM      9  C   UNL     1       3.520   6.925  18.041  0.00  0.00    +0.000 A 
ATOM     10  N   UNL     1       2.864   8.106  17.905  0.00  0.00    +0.000 N 
ATOM     11  C   UNL     1       1.965   8.203  18.935  0.00  0.00    +0.000 A 
ATOM     12  N   UNL     1       2.031   7.134  19.718  0.00  0.00    +0.000 NA
ATOM     13  C   UNL     1       2.993   6.334  19.144  0.00  0.00    +0.000 A 
ATOM     14  N   UNL     1       3.451   5.098  19.559  0.00  0.00    +0.000 N 
ATOM     15  C   UNL     1       4.512   4.493  18.861  0.00  0.00    +0.000 A 
ATOM     16  O   UNL     1       5.016   3.434  19.248  0.00  0.00    +0.000 OA
ATOM     17  H   UNL     1       3.024   8.795  17.179  0.00  0.00    +0.000 HD
BRANCH   6  18
ATOM     18  C   UNL     1       6.115   4.533  16.993  0.00  0.00    +0.000 C 
BRANCH  18  20
ATOM     19  C   UNL     1       6.103   4.234  14.454  0.00  0.00    +0.000 C 
ATOM     20  C   UNL     1       5.722   3.649  15.804  0.00  0.00    +0.000 C 
ENDBRANCH  18  20
ENDBRANCH   6  18
BRANCH  14  21
ATOM     21  C   UNL     1       2.894   4.415  20.724  0.00  0.00    +0.000 C 
BRANCH  21  22
ATOM     22  C   UNL     1       1.460   3.904  20.528  0.00  0.00    +0.000 C 
ATOM     23  C   UNL     1       1.344   2.624  19.710  0.00  0.00    +0.000 C 
ENDBRANCH  21  22
ENDBRANCH  14  21
ENDBRANCH   1  11
BRANCH   4  24
ATOM     24  C   UNL     1      -0.437  12.149  20.800  0.00  0.00    +0.000 C 
BRANCH  24  25
ATOM     25  C   UNL     1      -1.940  12.334  20.934  0.00  0.00    +0.000 C 
ATOM     26  C   UNL     1      -3.229  12.492  21.048  0.00  0.00    +0.000 C 
BRANCH  26  27
ATOM     27  C   UNL     1      -4.640  12.723  21.150  0.00  0.00    +0.000 A 
ATOM     28  C   UNL     1      -5.393  12.701  19.968  0.00  0.00    +0.000 A 
ATOM     29  C   UNL     1      -6.773  12.900  19.998  0.00  0.00    +0.000 A 
ATOM     30  C   UNL     1      -7.419  13.127  21.211  0.00  0.00    +0.000 A 
ATOM     31  C   UNL     1      -6.682  13.153  22.396  0.00  0.00    +0.000 A 
ATOM     32  C   UNL     1      -5.290  12.949  22.377  0.00  0.00    +0.000 A 
BRANCH  32  33
ATOM     33  C   UNL     1      -4.532  12.938  23.659  0.00  0.00    +0.000 C 
ATOM     34  O   UNL     1      -4.418  11.982  24.406  0.00  0.00    +0.000 OA
BRANCH  33  35
ATOM     35  O   UNL     1      -4.083  14.199  23.908  0.00  0.00    +0.000 OA
BRANCH  35  36
ATOM     36  C   UNL     1      -3.154  14.313  24.995  0.00  0.00    +0.000 C 
ATOM     37  C   UNL     1      -2.817  15.784  25.165  0.00  0.00    +0.000 C 
ENDBRANCH  35  36
ENDBRANCH  33  35
ENDBRANCH  32  33
ENDBRANCH  26  27
ENDBRANCH  24  25
ENDBRANCH   4  24
TORSDOF 11
ENDMDL
