MODEL 1
REMARK VINA RESULT:      -7.4      0.000      0.000
REMARK  Name = 
REMARK  9 active torsions:
REMARK  status: ('A' for Active; 'I' for Inactive)
REMARK    1  A    between atoms: C_1  and  C_2
REMARK    2  A    between atoms: C_2  and  N_3
REMARK    3  A    between atoms: N_3  and  C_4
REMARK    4  A    between atoms: C_4  and  C_5
REMARK    5  A    between atoms: N_7  and  C_8
REMARK    6  A    between atoms: C_8  and  C_9
REMARK    7  A    between atoms: C_17  and  S_18
REMARK    8  A    between atoms: S_18  and  N_21
REMARK    9  A    between atoms: N_24  and  C_25
REMARK                            x       y       z     vdW  Elec       q    Type
REMARK                         _______ _______ _______ _____ _____    ______ ____
ROOT
ATOM      1  N   UNL     1       3.746   4.500  18.605  0.00  0.00    +0.000 N 
ATOM      2  C   UNL     1       2.932   5.531  19.194  0.00  0.00    +0.000 A 
ATOM      3  C   UNL     1       2.914   6.776  18.567  0.00  0.00    +0.000 A 
ATOM      4  C   UNL     1       2.230   7.848  19.153  0.00  0.00    +0.000 A 
ATOM      5  C   UNL     1       1.612   7.661  20.381  0.00  0.00    +0.000 A 
ATOM      6  C   UNL     1       1.610   6.389  20.916  0.00  0.00    +0.000 A 
ATOM      7  N   UNL     1       2.265   5.330  20.355  0.00  0.00    +0.000 NA
ENDROOT
BRANCH   5   8
ATOM      8  S   UNL     1       0.754   8.973  21.191  0.00  0.00    +0.000 S 
ATOM      9  O   UNL     1      -0.549   8.455  21.550  0.00  0.00    +0.000 OA
ATOM     10  O   UNL     1       1.650   9.493  22.204  0.00  0.00    +0.000 OA
BRANCH   8  11
ATOM     11  N   UNL     1       0.542  10.194  20.051  0.00  0.00    +0.000 NA
ATOM     12  C   UNL     1       1.367  11.420  20.046  0.00  0.00    +0.000 C 
ATOM     13  C   UNL     1       0.623  12.625  20.648  0.00  0.00    +0.000 C 
ATOM     14  N   UNL     1      -0.778  12.810  20.222  0.00  0.00    +0.000 NA
ATOM     15  C   UNL     1      -1.469  13.707  21.154  0.00  0.00    +0.000 C 
ATOM     16  C   UNL     1      -1.532  11.545  20.091  0.00  0.00    +0.000 C 
ATOM     17  C   UNL     1      -0.765  10.407  19.398  0.00  0.00    +0.000 C 
ENDBRANCH   8  11
ENDBRANCH   5   8
BRANCH   1  19
ATOM     18  C   UNL     1       3.213   2.163  17.837  0.00  0.00    +0.000 C 
ATOM     19  C   UNL     1       3.276   3.149  19.005  0.00  0.00    +0.000 C 
ENDBRANCH   1  19
BRANCH   1  20
ATOM     20  C   UNL     1       5.119   4.794  19.107  0.00  0.00    +0.000 C 
BRANCH  20  21
ATOM     21  C   UNL     1       6.255   4.728  18.088  0.00  0.00    +0.000 C 
ATOM     22  O   UNL     1       7.430   4.729  18.476  0.00  0.00    +0.000 OA
ATOM     23  N   UNL     1       5.951   4.800  16.741  0.00  0.00    +0.000 N 
ATOM     24  H   UNL     1       4.993   4.995  16.469  0.00  0.00    +0.000 HD
BRANCH  23  25
ATOM     25  C   UNL     1       7.048   5.059  15.832  0.00  0.00    +0.000 C 
BRANCH  25  26
ATOM     26  C   UNL     1       6.778   4.648  14.424  0.00  0.00    +0.000 A 
ATOM     27  C   UNL     1       5.797   3.777  13.978  0.00  0.00    +0.000 A 
ATOM     28  C   UNL     1       5.936   3.457  12.598  0.00  0.00    +0.000 A 
ATOM     29  C   UNL     1       7.006   4.105  12.025  0.00  0.00    +0.000 A 
ATOM     30  S   UNL     1       7.828   5.105  13.148  0.00  0.00    +0.000 S 
ENDBRANCH  25  26
ENDBRANCH  23  25
ENDBRANCH  20  21
ENDBRANCH   1  20
TORSDOF 7
ENDMDL
MODEL 2
REMARK VINA RESULT:      -7.3      3.021      8.629
REMARK  Name = 
REMARK  9 active torsions:
REMARK  status: ('A' for Active; 'I' for Inactive)
REMARK    1  A    between atoms: C_1  and  C_2
REMARK    2  A    between atoms: C_2  and  N_3
REMARK    3  A    between atoms: N_3  and  C_4
REMARK    4  A    between atoms: C_4  and  C_5
REMARK    5  A    between atoms: N_7  and  C_8
REMARK    6  A    between atoms: C_8  and  C_9
REMARK    7  A    between atoms: C_17  and  S_18
REMARK    8  A    between atoms: S_18  and  N_21
REMARK    9  A    between atoms: N_24  and  C_25
REMARK                            x       y       z     vdW  Elec       q    Type
REMARK                         _______ _______ _______ _____ _____    ______ ____
ROOT
ATOM      1  N   UNL     1       1.305   9.128  20.781  0.00  0.00    +0.000 N 
ATOM      2  C   UNL     1       1.683   7.837  20.267  0.00  0.00    +0.000 A 
ATOM      3  C   UNL     1       2.112   7.771  18.942  0.00  0.00    +0.000 A 
ATOM      4  C   UNL     1       2.387   6.531  18.354  0.00  0.00    +0.000 A 
ATOM      5  C   UNL     1       2.185   5.375  19.096  0.00  0.00    +0.000 A 
ATOM      6  C   UNL     1       1.825   5.513  20.421  0.00  0.00    +0.000 A 
ATOM      7  N   UNL     1       1.559   6.714  21.013  0.00  0.00    +0.000 NA
ENDROOT
BRANCH   5   8
ATOM      8  S   UNL     1       2.486   3.776  18.412  0.00  0.00    +0.000 S 
ATOM      9  O   UNL     1       2.126   2.816  19.434  0.00  0.00    +0.000 OA
ATOM     10  O   UNL     1       1.845   3.753  17.113  0.00  0.00    +0.000 OA
BRANCH   8  11
ATOM     11  N   UNL     1       4.144   3.665  18.143  0.00  0.00    +0.000 NA
ATOM     12  C   UNL     1       5.136   4.061  19.164  0.00  0.00    +0.000 C 
ATOM     13  C   UNL     1       5.751   5.441  18.874  0.00  0.00    +0.000 C 
ATOM     14  N   UNL     1       6.151   5.701  17.477  0.00  0.00    +0.000 NA
ATOM     15  C   UNL     1       6.321   7.142  17.266  0.00  0.00    +0.000 C 
ATOM     16  C   UNL     1       5.207   5.156  16.478  0.00  0.00    +0.000 C 
ATOM     17  C   UNL     1       4.701   3.736  16.777  0.00  0.00    +0.000 C 
ENDBRANCH   8  11
ENDBRANCH   5   8
BRANCH   1  19
ATOM     18  C   UNL     1       0.058   9.423  22.948  0.00  0.00    +0.000 C 
ATOM     19  C   UNL     1       1.402   9.167  22.263  0.00  0.00    +0.000 C 
ENDBRANCH   1  19
BRANCH   1  20
ATOM     20  C   UNL     1      -0.094   9.312  20.300  0.00  0.00    +0.000 C 
BRANCH  20  21
ATOM     21  C   UNL     1      -0.329  10.410  19.263  0.00  0.00    +0.000 C 
ATOM     22  O   UNL     1      -0.512  10.107  18.078  0.00  0.00    +0.000 OA
ATOM     23  N   UNL     1      -0.203  11.731  19.648  0.00  0.00    +0.000 N 
ATOM     24  H   UNL     1       0.140  11.935  20.581  0.00  0.00    +0.000 HD
BRANCH  23  25
ATOM     25  C   UNL     1      -0.112  12.718  18.591  0.00  0.00    +0.000 C 
BRANCH  25  26
ATOM     26  C   UNL     1       1.089  13.599  18.689  0.00  0.00    +0.000 A 
ATOM     27  C   UNL     1       1.119  14.939  19.035  0.00  0.00    +0.000 A 
ATOM     28  C   UNL     1       2.404  15.524  18.846  0.00  0.00    +0.000 A 
ATOM     29  C   UNL     1       3.320  14.611  18.378  0.00  0.00    +0.000 A 
ATOM     30  S   UNL     1       2.633  13.053  18.183  0.00  0.00    +0.000 S 
ENDBRANCH  25  26
ENDBRANCH  23  25
ENDBRANCH  20  21
ENDBRANCH   1  20
TORSDOF 7
ENDMDL
MODEL 3
REMARK VINA RESULT:      -7.1      3.014      9.299
REMARK  Name = 
REMARK  9 active torsions:
REMARK  status: ('A' for Active; 'I' for Inactive)
REMARK    1  A    between atoms: C_1  and  C_2
REMARK    2  A    between atoms: C_2  and  N_3
REMARK    3  A    between atoms: N_3  and  C_4
REMARK    4  A    between atoms: C_4  and  C_5
REMARK    5  A    between atoms: N_7  and  C_8
REMARK    6  A    between atoms: C_8  and  C_9
REMARK    7  A    between atoms: C_17  and  S_18
REMARK    8  A    between atoms: S_18  and  N_21
REMARK    9  A    between atoms: N_24  and  C_25
REMARK                            x       y       z     vdW  Elec       q    Type
REMARK                         _______ _______ _______ _____ _____    ______ ____
ROOT
ATOM      1  N   UNL     1       1.348   9.115  20.772  0.00  0.00    +0.000 N 
ATOM      2  C   UNL     1       1.713   7.818  20.264  0.00  0.00    +0.000 A 
ATOM      3  C   UNL     1       2.183   7.748  18.953  0.00  0.00    +0.000 A 
ATOM      4  C   UNL     1       2.448   6.504  18.367  0.00  0.00    +0.000 A 
ATOM      5  C   UNL     1       2.195   5.350  19.096  0.00  0.00    +0.000 A 
ATOM      6  C   UNL     1       1.795   5.491  20.409  0.00  0.00    +0.000 A 
ATOM      7  N   UNL     1       1.538   6.695  20.999  0.00  0.00    +0.000 NA
ENDROOT
BRANCH   5   8
ATOM      8  S   UNL     1       2.481   3.748  18.413  0.00  0.00    +0.000 S 
ATOM      9  O   UNL     1       2.127   2.792  19.442  0.00  0.00    +0.000 OA
ATOM     10  O   UNL     1       1.826   3.724  17.122  0.00  0.00    +0.000 OA
BRANCH   8  11
ATOM     11  N   UNL     1       4.135   3.628  18.127  0.00  0.00    +0.000 NA
ATOM     12  C   UNL     1       5.140   3.991  19.149  0.00  0.00    +0.000 C 
ATOM     13  C   UNL     1       5.765   5.372  18.884  0.00  0.00    +0.000 C 
ATOM     14  N   UNL     1       6.155   5.661  17.491  0.00  0.00    +0.000 NA
ATOM     15  C   UNL     1       6.337   7.105  17.312  0.00  0.00    +0.000 C 
ATOM     16  C   UNL     1       5.198   5.148  16.487  0.00  0.00    +0.000 C 
ATOM     17  C   UNL     1       4.681   3.726  16.758  0.00  0.00    +0.000 C 
ENDBRANCH   8  11
ENDBRANCH   5   8
BRANCH   1  19
ATOM     18  C   UNL     1       0.051   9.491  22.896  0.00  0.00    +0.000 C 
ATOM     19  C   UNL     1       1.396   9.144  22.256  0.00  0.00    +0.000 C 
ENDBRANCH   1  19
BRANCH   1  20
ATOM     20  C   UNL     1      -0.030   9.334  20.246  0.00  0.00    +0.000 C 
BRANCH  20  21
ATOM     21  C   UNL     1      -0.234  10.534  19.322  0.00  0.00    +0.000 C 
ATOM     22  O   UNL     1      -0.607  10.356  18.157  0.00  0.00    +0.000 OA
ATOM     23  N   UNL     1       0.129  11.791  19.769  0.00  0.00    +0.000 N 
ATOM     24  H   UNL     1       0.613  11.870  20.657  0.00  0.00    +0.000 HD
BRANCH  23  25
ATOM     25  C   UNL     1       0.227  12.839  18.774  0.00  0.00    +0.000 C 
BRANCH  25  26
ATOM     26  C   UNL     1      -0.414  14.123  19.182  0.00  0.00    +0.000 A 
ATOM     27  C   UNL     1      -0.109  15.395  18.726  0.00  0.00    +0.000 A 
ATOM     28  C   UNL     1      -0.779  16.414  19.460  0.00  0.00    +0.000 A 
ATOM     29  C   UNL     1      -1.588  15.893  20.443  0.00  0.00    +0.000 A 
ATOM     30  S   UNL     1      -1.548  14.180  20.466  0.00  0.00    +0.000 S 
ENDBRANCH  25  26
ENDBRANCH  23  25
ENDBRANCH  20  21
ENDBRANCH   1  20
TORSDOF 7
ENDMDL
MODEL 4
REMARK VINA RESULT:      -7.0      3.623     10.198
REMARK  Name = 
REMARK  9 active torsions:
REMARK  status: ('A' for Active; 'I' for Inactive)
REMARK    1  A    between atoms: C_1  and  C_2
REMARK    2  A    between atoms: C_2  and  N_3
REMARK    3  A    between atoms: N_3  and  C_4
REMARK    4  A    between atoms: C_4  and  C_5
REMARK    5  A    between atoms: N_7  and  C_8
REMARK    6  A    between atoms: C_8  and  C_9
REMARK    7  A    between atoms: C_17  and  S_18
REMARK    8  A    between atoms: S_18  and  N_21
REMARK    9  A    between atoms: N_24  and  C_25
REMARK                            x       y       z     vdW  Elec       q    Type
REMARK                         _______ _______ _______ _____ _____    ______ ____
ROOT
ATOM      1  N   UNL     1      -0.100  10.862  19.486  0.00  0.00    +0.000 N 
ATOM      2  C   UNL     1       0.818   9.767  19.307  0.00  0.00    +0.000 A 
ATOM      3  C   UNL     1       1.254   9.496  18.010  0.00  0.00    +0.000 A 
ATOM      4  C   UNL     1       2.058   8.377  17.760  0.00  0.00    +0.000 A 
ATOM      5  C   UNL     1       2.375   7.528  18.811  0.00  0.00    +0.000 A 
ATOM      6  C   UNL     1       1.969   7.890  20.078  0.00  0.00    +0.000 A 
ATOM      7  N   UNL     1       1.190   8.980  20.343  0.00  0.00    +0.000 NA
ENDROOT
BRANCH   5   8
ATOM      8  S   UNL     1       3.362   6.086  18.564  0.00  0.00    +0.000 S 
ATOM      9  O   UNL     1       3.782   6.106  17.178  0.00  0.00    +0.000 OA
ATOM     10  O   UNL     1       4.338   6.061  19.634  0.00  0.00    +0.000 OA
BRANCH   8  11
ATOM     11  N   UNL     1       2.352   4.758  18.790  0.00  0.00    +0.000 NA
ATOM     12  C   UNL     1       2.289   4.025  20.073  0.00  0.00    +0.000 C 
ATOM     13  C   UNL     1       3.080   2.706  20.027  0.00  0.00    +0.000 C 
ATOM     14  N   UNL     1       2.902   1.875  18.821  0.00  0.00    +0.000 NA
ATOM     15  C   UNL     1       3.989   0.896  18.723  0.00  0.00    +0.000 C 
ATOM     16  C   UNL     1       2.817   2.656  17.568  0.00  0.00    +0.000 C 
ATOM     17  C   UNL     1       1.937   3.914  17.652  0.00  0.00    +0.000 C 
ENDBRANCH   8  11
ENDBRANCH   5   8
BRANCH   1  19
ATOM     18  C   UNL     1       0.707  12.701  21.003  0.00  0.00    +0.000 C 
ATOM     19  C   UNL     1      -0.055  11.380  20.876  0.00  0.00    +0.000 C 
ENDBRANCH   1  19
BRANCH   1  20
ATOM     20  C   UNL     1      -1.428  10.279  19.140  0.00  0.00    +0.000 C 
BRANCH  20  21
ATOM     21  C   UNL     1      -2.193  10.934  17.992  0.00  0.00    +0.000 C 
ATOM     22  O   UNL     1      -1.815  12.024  17.544  0.00  0.00    +0.000 OA
ATOM     23  N   UNL     1      -3.372  10.358  17.559  0.00  0.00    +0.000 N 
ATOM     24  H   UNL     1      -3.750   9.574  18.081  0.00  0.00    +0.000 HD
BRANCH  23  25
ATOM     25  C   UNL     1      -4.224  11.164  16.708  0.00  0.00    +0.000 C 
BRANCH  25  26
ATOM     26  C   UNL     1      -5.470  11.639  17.376  0.00  0.00    +0.000 A 
ATOM     27  C   UNL     1      -6.070  12.881  17.248  0.00  0.00    +0.000 A 
ATOM     28  C   UNL     1      -7.139  13.070  18.169  0.00  0.00    +0.000 A 
ATOM     29  C   UNL     1      -7.338  11.962  18.960  0.00  0.00    +0.000 A 
ATOM     30  S   UNL     1      -6.246  10.698  18.581  0.00  0.00    +0.000 S 
ENDBRANCH  25  26
ENDBRANCH  23  25
ENDBRANCH  20  21
ENDBRANCH   1  20
TORSDOF 7
ENDMDL
MODEL 5
REMARK VINA RESULT:      -7.0      3.279     10.134
REMARK  Name = 
REMARK  9 active torsions:
REMARK  status: ('A' for Active; 'I' for Inactive)
REMARK    1  A    between atoms: C_1  and  C_2
REMARK    2  A    between atoms: C_2  and  N_3
REMARK    3  A    between atoms: N_3  and  C_4
REMARK    4  A    between atoms: C_4  and  C_5
REMARK    5  A    between atoms: N_7  and  C_8
REMARK    6  A    between atoms: C_8  and  C_9
REMARK    7  A    between atoms: C_17  and  S_18
REMARK    8  A    between atoms: S_18  and  N_21
REMARK    9  A    between atoms: N_24  and  C_25
REMARK                            x       y       z     vdW  Elec       q    Type
REMARK                         _______ _______ _______ _____ _____    ______ ____
ROOT
ATOM      1  N   UNL     1       0.103  10.481  19.215  0.00  0.00    +0.000 N 
ATOM      2  C   UNL     1       1.113   9.464  19.066  0.00  0.00    +0.000 A 
ATOM      3  C   UNL     1       1.813   9.423  17.861  0.00  0.00    +0.000 A 
ATOM      4  C   UNL     1       2.728   8.391  17.616  0.00  0.00    +0.000 A 
ATOM      5  C   UNL     1       2.890   7.395  18.569  0.00  0.00    +0.000 A 
ATOM      6  C   UNL     1       2.216   7.531  19.766  0.00  0.00    +0.000 A 
ATOM      7  N   UNL     1       1.327   8.534  20.026  0.00  0.00    +0.000 NA
ENDROOT
BRANCH   5   8
ATOM      8  S   UNL     1       4.004   6.050  18.316  0.00  0.00    +0.000 S 
ATOM      9  O   UNL     1       5.033   6.531  17.418  0.00  0.00    +0.000 OA
ATOM     10  O   UNL     1       4.344   5.540  19.628  0.00  0.00    +0.000 OA
BRANCH   8  11
ATOM     11  N   UNL     1       3.139   4.841  17.528  0.00  0.00    +0.000 NA
ATOM     12  C   UNL     1       1.673   4.705  17.663  0.00  0.00    +0.000 C 
ATOM     13  C   UNL     1       1.280   3.575  18.631  0.00  0.00    +0.000 C 
ATOM     14  N   UNL     1       2.017   2.304  18.490  0.00  0.00    +0.000 NA
ATOM     15  C   UNL     1       1.847   1.491  19.698  0.00  0.00    +0.000 C 
ATOM     16  C   UNL     1       3.458   2.481  18.204  0.00  0.00    +0.000 C 
ATOM     17  C   UNL     1       3.778   3.562  17.160  0.00  0.00    +0.000 C 
ENDBRANCH   8  11
ENDBRANCH   5   8
BRANCH   1  19
ATOM     18  C   UNL     1      -0.048  12.254  20.995  0.00  0.00    +0.000 C 
ATOM     19  C   UNL     1      -0.164  10.768  20.647  0.00  0.00    +0.000 C 
ENDBRANCH   1  19
BRANCH   1  20
ATOM     20  C   UNL     1      -1.087   9.912  18.519  0.00  0.00    +0.000 C 
BRANCH  20  21
ATOM     21  C   UNL     1      -2.087  10.907  17.936  0.00  0.00    +0.000 C 
ATOM     22  O   UNL     1      -1.783  12.102  17.843  0.00  0.00    +0.000 OA
ATOM     23  N   UNL     1      -3.367  10.475  17.642  0.00  0.00    +0.000 N 
ATOM     24  H   UNL     1      -3.637   9.535  17.914  0.00  0.00    +0.000 HD
BRANCH  23  25
ATOM     25  C   UNL     1      -4.367  11.495  17.403  0.00  0.00    +0.000 C 
BRANCH  25  26
ATOM     26  C   UNL     1      -5.297  11.711  18.549  0.00  0.00    +0.000 A 
ATOM     27  C   UNL     1      -5.064  12.465  19.688  0.00  0.00    +0.000 A 
ATOM     28  C   UNL     1      -6.085  12.305  20.668  0.00  0.00    +0.000 A 
ATOM     29  C   UNL     1      -7.075  11.450  20.243  0.00  0.00    +0.000 A 
ATOM     30  S   UNL     1      -6.778  10.855  18.664  0.00  0.00    +0.000 S 
ENDBRANCH  25  26
ENDBRANCH  23  25
ENDBRANCH  20  21
ENDBRANCH   1  20
TORSDOF 7
ENDMDL
MODEL 6
REMARK VINA RESULT:      -7.0      3.391     10.295
REMARK  Name = 
REMARK  9 active torsions:
REMARK  status: ('A' for Active; 'I' for Inactive)
REMARK    1  A    between atoms: C_1  and  C_2
REMARK    2  A    between atoms: C_2  and  N_3
REMARK    3  A    between atoms: N_3  and  C_4
REMARK    4  A    between atoms: C_4  and  C_5
REMARK    5  A    between atoms: N_7  and  C_8
REMARK    6  A    between atoms: C_8  and  C_9
REMARK    7  A    between atoms: C_17  and  S_18
REMARK    8  A    between atoms: S_18  and  N_21
REMARK    9  A    between atoms: N_24  and  C_25
REMARK                            x       y       z     vdW  Elec       q    Type
REMARK                         _______ _______ _______ _____ _____    ______ ____
ROOT
ATOM      1  N   UNL     1       0.166  10.702  19.539  0.00  0.00    +0.000 N 
ATOM      2  C   UNL     1       1.011   9.549  19.369  0.00  0.00    +0.000 A 
ATOM      3  C   UNL     1       1.431   9.242  18.075  0.00  0.00    +0.000 A 
ATOM      4  C   UNL     1       2.162   8.072  17.833  0.00  0.00    +0.000 A 
ATOM      5  C   UNL     1       2.420   7.210  18.889  0.00  0.00    +0.000 A 
ATOM      6  C   UNL     1       2.035   7.604  20.154  0.00  0.00    +0.000 A 
ATOM      7  N   UNL     1       1.328   8.744  20.410  0.00  0.00    +0.000 NA
ENDROOT
BRANCH   5   8
ATOM      8  S   UNL     1       3.312   5.705  18.653  0.00  0.00    +0.000 S 
ATOM      9  O   UNL     1       3.506   5.130  19.968  0.00  0.00    +0.000 OA
ATOM     10  O   UNL     1       2.619   4.969  17.616  0.00  0.00    +0.000 OA
BRANCH   8  11
ATOM     11  N   UNL     1       4.820   6.124  18.033  0.00  0.00    +0.000 NA
ATOM     12  C   UNL     1       4.972   6.868  16.765  0.00  0.00    +0.000 C 
ATOM     13  C   UNL     1       5.371   5.951  15.596  0.00  0.00    +0.000 C 
ATOM     14  N   UNL     1       6.430   4.960  15.872  0.00  0.00    +0.000 NA
ATOM     15  C   UNL     1       6.415   3.915  14.844  0.00  0.00    +0.000 C 
ATOM     16  C   UNL     1       6.333   4.345  17.213  0.00  0.00    +0.000 C 
ATOM     17  C   UNL     1       6.023   5.329  18.352  0.00  0.00    +0.000 C 
ENDBRANCH   8  11
ENDBRANCH   5   8
BRANCH   1  19
ATOM     18  C   UNL     1       0.204  12.752  20.999  0.00  0.00    +0.000 C 
ATOM     19  C   UNL     1       0.241  11.224  20.927  0.00  0.00    +0.000 C 
ENDBRANCH   1  19
BRANCH   1  20
ATOM     20  C   UNL     1      -1.197  10.205  19.193  0.00  0.00    +0.000 C 
BRANCH  20  21
ATOM     21  C   UNL     1      -2.042  11.086  18.276  0.00  0.00    +0.000 C 
ATOM     22  O   UNL     1      -1.642  12.216  17.969  0.00  0.00    +0.000 OA
ATOM     23  N   UNL     1      -3.302  10.654  17.908  0.00  0.00    +0.000 N 
ATOM     24  H   UNL     1      -3.672   9.812  18.338  0.00  0.00    +0.000 HD
BRANCH  23  25
ATOM     25  C   UNL     1      -4.188  11.637  17.318  0.00  0.00    +0.000 C 
BRANCH  25  26
ATOM     26  C   UNL     1      -5.358  11.988  18.174  0.00  0.00    +0.000 A 
ATOM     27  C   UNL     1      -6.699  11.908  17.836  0.00  0.00    +0.000 A 
ATOM     28  C   UNL     1      -7.547  12.499  18.815  0.00  0.00    +0.000 A 
ATOM     29  C   UNL     1      -6.832  12.996  19.881  0.00  0.00    +0.000 A 
ATOM     30  S   UNL     1      -5.148  12.737  19.702  0.00  0.00    +0.000 S 
ENDBRANCH  25  26
ENDBRANCH  23  25
ENDBRANCH  20  21
ENDBRANCH   1  20
TORSDOF 7
ENDMDL
MODEL 7
REMARK VINA RESULT:      -7.0      3.603      9.746
REMARK  Name = 
REMARK  9 active torsions:
REMARK  status: ('A' for Active; 'I' for Inactive)
REMARK    1  A    between atoms: C_1  and  C_2
REMARK    2  A    between atoms: C_2  and  N_3
REMARK    3  A    between atoms: N_3  and  C_4
REMARK    4  A    between atoms: C_4  and  C_5
REMARK    5  A    between atoms: N_7  and  C_8
REMARK    6  A    between atoms: C_8  and  C_9
REMARK    7  A    between atoms: C_17  and  S_18
REMARK    8  A    between atoms: S_18  and  N_21
REMARK    9  A    between atoms: N_24  and  C_25
REMARK                            x       y       z     vdW  Elec       q    Type
REMARK                         _______ _______ _______ _____ _____    ______ ____
ROOT
ATOM      1  N   UNL     1       0.709   9.965  19.846  0.00  0.00    +0.000 N 
ATOM      2  C   UNL     1       1.600   8.914  19.428  0.00  0.00    +0.000 A 
ATOM      3  C   UNL     1       2.080   8.958  18.119  0.00  0.00    +0.000 A 
ATOM      4  C   UNL     1       2.859   7.907  17.621  0.00  0.00    +0.000 A 
ATOM      5  C   UNL     1       3.107   6.810  18.434  0.00  0.00    +0.000 A 
ATOM      6  C   UNL     1       2.661   6.859  19.739  0.00  0.00    +0.000 A 
ATOM      7  N   UNL     1       1.906   7.878  20.244  0.00  0.00    +0.000 NA
ENDROOT
BRANCH   5   8
ATOM      8  S   UNL     1       4.060   5.437  17.865  0.00  0.00    +0.000 S 
ATOM      9  O   UNL     1       4.441   5.738  16.500  0.00  0.00    +0.000 OA
ATOM     10  O   UNL     1       5.064   5.180  18.876  0.00  0.00    +0.000 OA
BRANCH   8  11
ATOM     11  N   UNL     1       3.031   4.105  17.844  0.00  0.00    +0.000 NA
ATOM     12  C   UNL     1       1.578   4.228  18.087  0.00  0.00    +0.000 C 
ATOM     13  C   UNL     1       1.189   3.798  19.513  0.00  0.00    +0.000 C 
ATOM     14  N   UNL     1       1.806   2.556  20.016  0.00  0.00    +0.000 NA
ATOM     15  C   UNL     1       1.685   2.493  21.475  0.00  0.00    +0.000 C 
ATOM     16  C   UNL     1       3.223   2.395  19.623  0.00  0.00    +0.000 C 
ATOM     17  C   UNL     1       3.530   2.752  18.160  0.00  0.00    +0.000 C 
ENDBRANCH   8  11
ENDBRANCH   5   8
BRANCH   1  19
ATOM     18  C   UNL     1      -0.484   9.448  22.001  0.00  0.00    +0.000 C 
ATOM     19  C   UNL     1       0.713  10.117  21.323  0.00  0.00    +0.000 C 
ENDBRANCH   1  19
BRANCH   1  20
ATOM     20  C   UNL     1      -0.621   9.540  19.324  0.00  0.00    +0.000 C 
BRANCH  20  21
ATOM     21  C   UNL     1      -1.421  10.580  18.542  0.00  0.00    +0.000 C 
ATOM     22  O   UNL     1      -0.993  11.736  18.441  0.00  0.00    +0.000 OA
ATOM     23  N   UNL     1      -2.675  10.243  18.069  0.00  0.00    +0.000 N 
ATOM     24  H   UNL     1      -3.073   9.349  18.341  0.00  0.00    +0.000 HD
BRANCH  23  25
ATOM     25  C   UNL     1      -3.525  11.329  17.626  0.00  0.00    +0.000 C 
BRANCH  25  26
ATOM     26  C   UNL     1      -4.752  11.514  18.454  0.00  0.00    +0.000 A 
ATOM     27  C   UNL     1      -5.983  10.903  18.277  0.00  0.00    +0.000 A 
ATOM     28  C   UNL     1      -6.990  11.445  19.126  0.00  0.00    +0.000 A 
ATOM     29  C   UNL     1      -6.496  12.440  19.939  0.00  0.00    +0.000 A 
ATOM     30  S   UNL     1      -4.822  12.705  19.684  0.00  0.00    +0.000 S 
ENDBRANCH  25  26
ENDBRANCH  23  25
ENDBRANCH  20  21
ENDBRANCH   1  20
TORSDOF 7
ENDMDL
MODEL 8
REMARK VINA RESULT:      -6.9      3.573     10.060
REMARK  Name = 
REMARK  9 active torsions:
REMARK  status: ('A' for Active; 'I' for Inactive)
REMARK    1  A    between atoms: C_1  and  C_2
REMARK    2  A    between atoms: C_2  and  N_3
REMARK    3  A    between atoms: N_3  and  C_4
REMARK    4  A    between atoms: C_4  and  C_5
REMARK    5  A    between atoms: N_7  and  C_8
REMARK    6  A    between atoms: C_8  and  C_9
REMARK    7  A    between atoms: C_17  and  S_18
REMARK    8  A    between atoms: S_18  and  N_21
REMARK    9  A    between atoms: N_24  and  C_25
REMARK                            x       y       z     vdW  Elec       q    Type
REMARK                         _______ _______ _______ _____ _____    ______ ____
ROOT
ATOM      1  N   UNL     1       0.305  10.814  19.605  0.00  0.00    +0.000 N 
ATOM      2  C   UNL     1       1.042   9.601  19.365  0.00  0.00    +0.000 A 
ATOM      3  C   UNL     1       1.293   9.250  18.039  0.00  0.00    +0.000 A 
ATOM      4  C   UNL     1       1.907   8.028  17.740  0.00  0.00    +0.000 A 
ATOM      5  C   UNL     1       2.219   7.160  18.777  0.00  0.00    +0.000 A 
ATOM      6  C   UNL     1       2.005   7.595  20.069  0.00  0.00    +0.000 A 
ATOM      7  N   UNL     1       1.414   8.786  20.380  0.00  0.00    +0.000 NA
ENDROOT
BRANCH   5   8
ATOM      8  S   UNL     1       2.969   5.592  18.473  0.00  0.00    +0.000 S 
ATOM      9  O   UNL     1       3.671   5.228  19.687  0.00  0.00    +0.000 OA
ATOM     10  O   UNL     1       1.936   4.735  17.928  0.00  0.00    +0.000 OA
BRANCH   8  11
ATOM     11  N   UNL     1       4.107   5.824  17.255  0.00  0.00    +0.000 NA
ATOM     12  C   UNL     1       4.538   4.729  16.360  0.00  0.00    +0.000 C 
ATOM     13  C   UNL     1       5.910   4.157  16.759  0.00  0.00    +0.000 C 
ATOM     14  N   UNL     1       6.958   5.140  17.096  0.00  0.00    +0.000 NA
ATOM     15  C   UNL     1       8.040   4.482  17.835  0.00  0.00    +0.000 C 
ATOM     16  C   UNL     1       6.459   6.301  17.864  0.00  0.00    +0.000 C 
ATOM     17  C   UNL     1       5.130   6.884  17.359  0.00  0.00    +0.000 C 
ENDBRANCH   8  11
ENDBRANCH   5   8
BRANCH   1  19
ATOM     18  C   UNL     1      -0.608  11.158  21.925  0.00  0.00    +0.000 C 
ATOM     19  C   UNL     1       0.570  11.344  20.966  0.00  0.00    +0.000 C 
ENDBRANCH   1  19
BRANCH   1  20
ATOM     20  C   UNL     1      -1.120  10.414  19.419  0.00  0.00    +0.000 C 
BRANCH  20  21
ATOM     21  C   UNL     1      -1.906  11.145  18.333  0.00  0.00    +0.000 C 
ATOM     22  O   UNL     1      -1.660  12.332  18.088  0.00  0.00    +0.000 OA
ATOM     23  N   UNL     1      -2.971  10.500  17.731  0.00  0.00    +0.000 N 
ATOM     24  H   UNL     1      -3.264   9.600  18.096  0.00  0.00    +0.000 HD
BRANCH  23  25
ATOM     25  C   UNL     1      -3.881  11.319  16.955  0.00  0.00    +0.000 C 
BRANCH  25  26
ATOM     26  C   UNL     1      -5.171  11.610  17.645  0.00  0.00    +0.000 A 
ATOM     27  C   UNL     1      -5.793  10.845  18.618  0.00  0.00    +0.000 A 
ATOM     28  C   UNL     1      -7.102  11.312  18.927  0.00  0.00    +0.000 A 
ATOM     29  C   UNL     1      -7.436  12.429  18.195  0.00  0.00    +0.000 A 
ATOM     30  S   UNL     1      -6.166  12.916  17.153  0.00  0.00    +0.000 S 
ENDBRANCH  25  26
ENDBRANCH  23  25
ENDBRANCH  20  21
ENDBRANCH   1  20
TORSDOF 7
ENDMDL
MODEL 9
REMARK VINA RESULT:      -6.9      2.992      9.732
REMARK  Name = 
REMARK  9 active torsions:
REMARK  status: ('A' for Active; 'I' for Inactive)
REMARK    1  A    between atoms: C_1  and  C_2
REMARK    2  A    between atoms: C_2  and  N_3
REMARK    3  A    between atoms: N_3  and  C_4
REMARK    4  A    between atoms: C_4  and  C_5
REMARK    5  A    between atoms: N_7  and  C_8
REMARK    6  A    between atoms: C_8  and  C_9
REMARK    7  A    between atoms: C_17  and  S_18
REMARK    8  A    between atoms: S_18  and  N_21
REMARK    9  A    between atoms: N_24  and  C_25
REMARK                            x       y       z     vdW  Elec       q    Type
REMARK                         _______ _______ _______ _____ _____    ______ ____
ROOT
ATOM      1  N   UNL     1       0.610   9.461  19.333  0.00  0.00    +0.000 N 
ATOM      2  C   UNL     1       1.587   8.460  18.990  0.00  0.00    +0.000 A 
ATOM      3  C   UNL     1       1.821   7.443  19.915  0.00  0.00    +0.000 A 
ATOM      4  C   UNL     1       2.836   6.506  19.686  0.00  0.00    +0.000 A 
ATOM      5  C   UNL     1       3.626   6.633  18.552  0.00  0.00    +0.000 A 
ATOM      6  C   UNL     1       3.299   7.620  17.645  0.00  0.00    +0.000 A 
ATOM      7  N   UNL     1       2.309   8.538  17.847  0.00  0.00    +0.000 NA
ENDROOT
BRANCH   5   8
ATOM      8  S   UNL     1       4.939   5.504  18.213  0.00  0.00    +0.000 S 
ATOM      9  O   UNL     1       5.479   5.876  16.921  0.00  0.00    +0.000 OA
ATOM     10  O   UNL     1       5.782   5.481  19.390  0.00  0.00    +0.000 OA
BRANCH   8  11
ATOM     11  N   UNL     1       4.246   3.976  18.076  0.00  0.00    +0.000 NA
ATOM     12  C   UNL     1       3.059   3.722  17.232  0.00  0.00    +0.000 C 
ATOM     13  C   UNL     1       1.768   3.616  18.062  0.00  0.00    +0.000 C 
ATOM     14  N   UNL     1       1.845   2.810  19.296  0.00  0.00    +0.000 NA
ATOM     15  C   UNL     1       0.713   3.128  20.172  0.00  0.00    +0.000 C 
ATOM     16  C   UNL     1       3.114   2.976  20.036  0.00  0.00    +0.000 C 
ATOM     17  C   UNL     1       4.376   2.981  19.159  0.00  0.00    +0.000 C 
ENDBRANCH   8  11
ENDBRANCH   5   8
BRANCH   1  19
ATOM     18  C   UNL     1      -1.455  10.067  18.029  0.00  0.00    +0.000 C 
ATOM     19  C   UNL     1       0.071  10.125  18.120  0.00  0.00    +0.000 C 
ENDBRANCH   1  19
BRANCH   1  20
ATOM     20  C   UNL     1       1.356  10.406  20.213  0.00  0.00    +0.000 C 
BRANCH  20  21
ATOM     21  C   UNL     1       0.659  10.851  21.497  0.00  0.00    +0.000 C 
ATOM     22  O   UNL     1       0.646  10.102  22.481  0.00  0.00    +0.000 OA
ATOM     23  N   UNL     1      -0.059  12.033  21.493  0.00  0.00    +0.000 N 
ATOM     24  H   UNL     1      -0.187  12.521  20.612  0.00  0.00    +0.000 HD
BRANCH  23  25
ATOM     25  C   UNL     1      -0.960  12.258  22.605  0.00  0.00    +0.000 C 
BRANCH  25  26
ATOM     26  C   UNL     1      -2.358  12.580  22.195  0.00  0.00    +0.000 A 
ATOM     27  C   UNL     1      -3.474  12.656  23.011  0.00  0.00    +0.000 A 
ATOM     28  C   UNL     1      -4.683  12.797  22.271  0.00  0.00    +0.000 A 
ATOM     29  C   UNL     1      -4.454  12.843  20.915  0.00  0.00    +0.000 A 
ATOM     30  S   UNL     1      -2.786  12.730  20.542  0.00  0.00    +0.000 S 
ENDBRANCH  25  26
ENDBRANCH  23  25
ENDBRANCH  20  21
ENDBRANCH   1  20
TORSDOF 7
ENDMDL
