MODEL 1
REMARK VINA RESULT:      -8.8      0.000      0.000
REMARK  Name = 
REMARK  2 active torsions:
REMARK  status: ('A' for Active; 'I' for Inactive)
REMARK    1  A    between atoms: C_1  and  N_2
REMARK    2  A    between atoms: C_5  and  C_7
REMARK                            x       y       z     vdW  Elec       q    Type
REMARK                         _______ _______ _______ _____ _____    ______ ____
ROOT
ATOM      1  C   UNL     1       1.204   8.893  19.887  0.00  0.00    +0.000 A 
ATOM      2  C   UNL     1       1.644   9.387  18.647  0.00  0.00    +0.000 A 
ATOM      3  C   UNL     1       2.501   8.626  17.791  0.00  0.00    +0.000 A 
ATOM      4  C   UNL     1       2.904   7.331  18.185  0.00  0.00    +0.000 A 
ATOM      5  N   UNL     1       3.672   6.329  17.584  0.00  0.00    +0.000 NA
ATOM      6  C   UNL     1       3.691   5.259  18.405  0.00  0.00    +0.000 A 
ATOM      7  N   UNL     1       2.883   5.617  19.518  0.00  0.00    +0.000 N 
ATOM      8  C   UNL     1       2.448   6.904  19.413  0.00  0.00    +0.000 A 
ATOM      9  C   UNL     1       1.652   7.644  20.295  0.00  0.00    +0.000 A 
ATOM     10  C   UNL     1       2.450   4.790  20.695  0.00  0.00    +0.000 C 
ATOM     11  C   UNL     1       3.194   3.591  20.405  0.00  0.00    +0.000 C 
ATOM     12  C   UNL     1       3.910   2.365  20.165  0.00  0.00    +0.000 C 
ATOM     13  N   UNL     1       4.569   2.731  18.858  0.00  0.00    +0.000 N 
ATOM     14  C   UNL     1       4.489   3.949  18.063  0.00  0.00    +0.000 C 
ATOM     15  O   UNL     1       5.155   3.860  17.019  0.00  0.00    +0.000 OA
ATOM     16  H   UNL     1       5.156   2.020  18.438  0.00  0.00    +0.000 HD
ENDROOT
BRANCH   1  21
ATOM     17  C   UNL     1       0.885  14.045  21.486  0.00  0.00    +0.000 C 
ATOM     18  N   UNL     1      -0.149  13.138  21.939  0.00  0.00    +0.000 N 
ATOM     19  C   UNL     1      -0.365  11.781  21.719  0.00  0.00    +0.000 A 
ATOM     20  N   UNL     1       0.441  10.961  20.942  0.00  0.00    +0.000 N 
ATOM     21  C   UNL     1       0.187   9.593  20.783  0.00  0.00    +0.000 C 
ATOM     22  O   UNL     1      -0.760   8.929  21.208  0.00  0.00    +0.000 OA
ATOM     23  N   UNL     1      -1.443  11.394  22.373  0.00  0.00    +0.000 NA
ATOM     24  C   UNL     1      -1.906  12.483  23.063  0.00  0.00    +0.000 A 
ATOM     25  C   UNL     1      -2.990  12.605  23.940  0.00  0.00    +0.000 A 
ATOM     26  C   UNL     1      -3.234  13.846  24.549  0.00  0.00    +0.000 A 
ATOM     27  C   UNL     1      -2.425  14.949  24.275  0.00  0.00    +0.000 A 
ATOM     28  C   UNL     1      -1.351  14.847  23.392  0.00  0.00    +0.000 A 
ATOM     29  C   UNL     1      -1.119  13.593  22.809  0.00  0.00    +0.000 A 
ATOM     30  H   UNL     1       1.216  11.372  20.439  0.00  0.00    +0.000 HD
ENDBRANCH   1  21
TORSDOF 1
ENDMDL
MODEL 2
REMARK VINA RESULT:      -8.6      3.439      9.894
REMARK  Name = 
REMARK  2 active torsions:
REMARK  status: ('A' for Active; 'I' for Inactive)
REMARK    1  A    between atoms: C_1  and  N_2
REMARK    2  A    between atoms: C_5  and  C_7
REMARK                            x       y       z     vdW  Elec       q    Type
REMARK                         _______ _______ _______ _____ _____    ______ ____
ROOT
ATOM      1  C   UNL     1       0.497  10.598  19.230  0.00  0.00    +0.000 A 
ATOM      2  C   UNL     1       0.611  11.055  20.554  0.00  0.00    +0.000 A 
ATOM      3  C   UNL     1      -0.450  11.757  21.206  0.00  0.00    +0.000 A 
ATOM      4  C   UNL     1      -1.661  11.983  20.514  0.00  0.00    +0.000 A 
ATOM      5  N   UNL     1      -2.881  12.572  20.861  0.00  0.00    +0.000 NA
ATOM      6  C   UNL     1      -3.717  12.470  19.807  0.00  0.00    +0.000 A 
ATOM      7  N   UNL     1      -2.989  11.767  18.809  0.00  0.00    +0.000 N 
ATOM      8  C   UNL     1      -1.712  11.520  19.217  0.00  0.00    +0.000 A 
ATOM      9  C   UNL     1      -0.674  10.876  18.536  0.00  0.00    +0.000 A 
ATOM     10  C   UNL     1      -3.439  11.266  17.467  0.00  0.00    +0.000 C 
ATOM     11  C   UNL     1      -4.770  11.816  17.463  0.00  0.00    +0.000 C 
ATOM     12  C   UNL     1      -6.112  12.336  17.406  0.00  0.00    +0.000 C 
ATOM     13  N   UNL     1      -6.169  12.988  18.765  0.00  0.00    +0.000 N 
ATOM     14  C   UNL     1      -5.176  13.055  19.829  0.00  0.00    +0.000 C 
ATOM     15  O   UNL     1      -5.608  13.657  20.824  0.00  0.00    +0.000 OA
ATOM     16  H   UNL     1      -7.039  13.448  19.005  0.00  0.00    +0.000 HD
ENDROOT
BRANCH   1  21
ATOM     17  C   UNL     1       2.155   5.559  20.256  0.00  0.00    +0.000 C 
ATOM     18  N   UNL     1       2.746   6.240  19.124  0.00  0.00    +0.000 N 
ATOM     19  C   UNL     1       2.552   7.511  18.592  0.00  0.00    +0.000 A 
ATOM     20  N   UNL     1       1.663   8.455  19.086  0.00  0.00    +0.000 N 
ATOM     21  C   UNL     1       1.533   9.731  18.523  0.00  0.00    +0.000 C 
ATOM     22  O   UNL     1       2.086  10.193  17.522  0.00  0.00    +0.000 OA
ATOM     23  N   UNL     1       3.351   7.683  17.557  0.00  0.00    +0.000 NA
ATOM     24  C   UNL     1       4.106   6.547  17.440  0.00  0.00    +0.000 A 
ATOM     25  C   UNL     1       5.130   6.229  16.540  0.00  0.00    +0.000 A 
ATOM     26  C   UNL     1       5.775   4.987  16.657  0.00  0.00    +0.000 A 
ATOM     27  C   UNL     1       5.395   4.073  17.640  0.00  0.00    +0.000 A 
ATOM     28  C   UNL     1       4.366   4.369  18.534  0.00  0.00    +0.000 A 
ATOM     29  C   UNL     1       3.749   5.621  18.405  0.00  0.00    +0.000 A 
ATOM     30  H   UNL     1       1.056   8.200  19.854  0.00  0.00    +0.000 HD
ENDBRANCH   1  21
TORSDOF 1
ENDMDL
MODEL 3
REMARK VINA RESULT:      -8.6      2.288     10.004
REMARK  Name = 
REMARK  2 active torsions:
REMARK  status: ('A' for Active; 'I' for Inactive)
REMARK    1  A    between atoms: C_1  and  N_2
REMARK    2  A    between atoms: C_5  and  C_7
REMARK                            x       y       z     vdW  Elec       q    Type
REMARK                         _______ _______ _______ _____ _____    ______ ____
ROOT
ATOM      1  C   UNL     1       0.978   9.495  20.727  0.00  0.00    +0.000 A 
ATOM      2  C   UNL     1       0.885   8.892  21.993  0.00  0.00    +0.000 A 
ATOM      3  C   UNL     1      -0.012   9.375  22.996  0.00  0.00    +0.000 A 
ATOM      4  C   UNL     1      -0.848  10.477  22.708  0.00  0.00    +0.000 A 
ATOM      5  N   UNL     1      -1.846  11.150  23.421  0.00  0.00    +0.000 NA
ATOM      6  C   UNL     1      -2.357  12.114  22.628  0.00  0.00    +0.000 A 
ATOM      7  N   UNL     1      -1.670  11.994  21.389  0.00  0.00    +0.000 N 
ATOM      8  C   UNL     1      -0.707  11.032  21.455  0.00  0.00    +0.000 A 
ATOM      9  C   UNL     1       0.197  10.615  20.472  0.00  0.00    +0.000 A 
ATOM     10  C   UNL     1      -1.890  12.723  20.096  0.00  0.00    +0.000 C 
ATOM     11  C   UNL     1      -2.908  13.643  20.533  0.00  0.00    +0.000 C 
ATOM     12  C   UNL     1      -3.932  14.582  20.912  0.00  0.00    +0.000 C 
ATOM     13  N   UNL     1      -4.125  14.154  22.346  0.00  0.00    +0.000 N 
ATOM     14  C   UNL     1      -3.485  13.094  23.114  0.00  0.00    +0.000 C 
ATOM     15  O   UNL     1      -3.937  13.027  24.268  0.00  0.00    +0.000 OA
ATOM     16  H   UNL     1      -4.820  14.665  22.876  0.00  0.00    +0.000 HD
ENDROOT
BRANCH   1  21
ATOM     17  C   UNL     1       3.150   4.609  19.950  0.00  0.00    +0.000 C 
ATOM     18  N   UNL     1       3.345   5.601  18.913  0.00  0.00    +0.000 N 
ATOM     19  C   UNL     1       2.932   6.924  18.795  0.00  0.00    +0.000 A 
ATOM     20  N   UNL     1       2.172   7.609  19.734  0.00  0.00    +0.000 N 
ATOM     21  C   UNL     1       1.811   8.952  19.571  0.00  0.00    +0.000 C 
ATOM     22  O   UNL     1       2.021   9.697  18.611  0.00  0.00    +0.000 OA
ATOM     23  N   UNL     1       3.383   7.429  17.663  0.00  0.00    +0.000 NA
ATOM     24  C   UNL     1       4.136   6.455  17.063  0.00  0.00    +0.000 A 
ATOM     25  C   UNL     1       4.869   6.484  15.871  0.00  0.00    +0.000 A 
ATOM     26  C   UNL     1       5.590   5.341  15.489  0.00  0.00    +0.000 A 
ATOM     27  C   UNL     1       5.566   4.186  16.271  0.00  0.00    +0.000 A 
ATOM     28  C   UNL     1       4.828   4.136  17.453  0.00  0.00    +0.000 A 
ATOM     29  C   UNL     1       4.129   5.296  17.818  0.00  0.00    +0.000 A 
ATOM     30  H   UNL     1       1.832   7.110  20.545  0.00  0.00    +0.000 HD
ENDBRANCH   1  21
TORSDOF 1
ENDMDL
MODEL 4
REMARK VINA RESULT:      -8.4      1.214      1.362
REMARK  Name = 
REMARK  2 active torsions:
REMARK  status: ('A' for Active; 'I' for Inactive)
REMARK    1  A    between atoms: C_1  and  N_2
REMARK    2  A    between atoms: C_5  and  C_7
REMARK                            x       y       z     vdW  Elec       q    Type
REMARK                         _______ _______ _______ _____ _____    ______ ____
ROOT
ATOM      1  C   UNL     1       1.385   8.804  19.953  0.00  0.00    +0.000 A 
ATOM      2  C   UNL     1       1.730   9.286  18.679  0.00  0.00    +0.000 A 
ATOM      3  C   UNL     1       2.487   8.502  17.753  0.00  0.00    +0.000 A 
ATOM      4  C   UNL     1       2.886   7.195  18.113  0.00  0.00    +0.000 A 
ATOM      5  N   UNL     1       3.570   6.172  17.449  0.00  0.00    +0.000 NA
ATOM      6  C   UNL     1       3.630   5.101  18.267  0.00  0.00    +0.000 A 
ATOM      7  N   UNL     1       2.932   5.480  19.446  0.00  0.00    +0.000 N 
ATOM      8  C   UNL     1       2.526   6.780  19.377  0.00  0.00    +0.000 A 
ATOM      9  C   UNL     1       1.831   7.542  20.323  0.00  0.00    +0.000 A 
ATOM     10  C   UNL     1       2.579   4.666  20.656  0.00  0.00    +0.000 C 
ATOM     11  C   UNL     1       3.260   3.446  20.305  0.00  0.00    +0.000 C 
ATOM     12  C   UNL     1       3.917   2.200  20.006  0.00  0.00    +0.000 C 
ATOM     13  N   UNL     1       4.471   2.548  18.646  0.00  0.00    +0.000 N 
ATOM     14  C   UNL     1       4.358   3.769  17.859  0.00  0.00    +0.000 C 
ATOM     15  O   UNL     1       4.927   3.663  16.761  0.00  0.00    +0.000 OA
ATOM     16  H   UNL     1       4.999   1.821  18.177  0.00  0.00    +0.000 HD
ENDROOT
BRANCH   1  21
ATOM     17  C   UNL     1      -2.228  12.737  19.133  0.00  0.00    +0.000 C 
ATOM     18  N   UNL     1      -2.073  12.241  20.485  0.00  0.00    +0.000 N 
ATOM     19  C   UNL     1      -1.254  11.259  21.032  0.00  0.00    +0.000 A 
ATOM     20  N   UNL     1      -0.349  10.486  20.319  0.00  0.00    +0.000 N 
ATOM     21  C   UNL     1       0.470   9.531  20.933  0.00  0.00    +0.000 C 
ATOM     22  O   UNL     1       0.491   9.175  22.113  0.00  0.00    +0.000 OA
ATOM     23  N   UNL     1      -1.462  11.186  22.333  0.00  0.00    +0.000 NA
ATOM     24  C   UNL     1      -2.378  12.154  22.648  0.00  0.00    +0.000 A 
ATOM     25  C   UNL     1      -2.909  12.528  23.887  0.00  0.00    +0.000 A 
ATOM     26  C   UNL     1      -3.825  13.591  23.940  0.00  0.00    +0.000 A 
ATOM     27  C   UNL     1      -4.218  14.256  22.778  0.00  0.00    +0.000 A 
ATOM     28  C   UNL     1      -3.709  13.885  21.534  0.00  0.00    +0.000 A 
ATOM     29  C   UNL     1      -2.784  12.830  21.511  0.00  0.00    +0.000 A 
ATOM     30  H   UNL     1      -0.308  10.585  19.313  0.00  0.00    +0.000 HD
ENDBRANCH   1  21
TORSDOF 1
ENDMDL
MODEL 5
REMARK VINA RESULT:      -8.4      1.686      2.061
REMARK  Name = 
REMARK  2 active torsions:
REMARK  status: ('A' for Active; 'I' for Inactive)
REMARK    1  A    between atoms: C_1  and  N_2
REMARK    2  A    between atoms: C_5  and  C_7
REMARK                            x       y       z     vdW  Elec       q    Type
REMARK                         _______ _______ _______ _____ _____    ______ ____
ROOT
ATOM      1  C   UNL     1       1.592   8.971  18.801  0.00  0.00    +0.000 A 
ATOM      2  C   UNL     1       2.497   9.014  17.727  0.00  0.00    +0.000 A 
ATOM      3  C   UNL     1       3.396   7.936  17.453  0.00  0.00    +0.000 A 
ATOM      4  C   UNL     1       3.366   6.782  18.267  0.00  0.00    +0.000 A 
ATOM      5  N   UNL     1       4.050   5.563  18.248  0.00  0.00    +0.000 NA
ATOM      6  C   UNL     1       3.579   4.796  19.252  0.00  0.00    +0.000 A 
ATOM      7  N   UNL     1       2.557   5.563  19.873  0.00  0.00    +0.000 N 
ATOM      8  C   UNL     1       2.465   6.801  19.309  0.00  0.00    +0.000 A 
ATOM      9  C   UNL     1       1.609   7.860  19.634  0.00  0.00    +0.000 A 
ATOM     10  C   UNL     1       1.608   5.186  20.973  0.00  0.00    +0.000 C 
ATOM     11  C   UNL     1       2.129   3.878  21.273  0.00  0.00    +0.000 C 
ATOM     12  C   UNL     1       2.603   2.561  21.613  0.00  0.00    +0.000 C 
ATOM     13  N   UNL     1       3.704   2.437  20.589  0.00  0.00    +0.000 N 
ATOM     14  C   UNL     1       4.144   3.359  19.551  0.00  0.00    +0.000 C 
ATOM     15  O   UNL     1       5.070   2.883  18.875  0.00  0.00    +0.000 OA
ATOM     16  H   UNL     1       4.228   1.569  20.596  0.00  0.00    +0.000 HD
ENDROOT
BRANCH   1  21
ATOM     17  C   UNL     1      -0.844  10.418  23.402  0.00  0.00    +0.000 C 
ATOM     18  N   UNL     1      -1.220  11.123  22.195  0.00  0.00    +0.000 N 
ATOM     19  C   UNL     1      -0.799  11.007  20.874  0.00  0.00    +0.000 A 
ATOM     20  N   UNL     1       0.159  10.113  20.418  0.00  0.00    +0.000 N 
ATOM     21  C   UNL     1       0.520  10.022  19.069  0.00  0.00    +0.000 C 
ATOM     22  O   UNL     1       0.138  10.711  18.120  0.00  0.00    +0.000 OA
ATOM     23  N   UNL     1      -1.461  11.865  20.123  0.00  0.00    +0.000 NA
ATOM     24  C   UNL     1      -2.352  12.509  20.939  0.00  0.00    +0.000 A 
ATOM     25  C   UNL     1      -3.316  13.479  20.640  0.00  0.00    +0.000 A 
ATOM     26  C   UNL     1      -4.136  13.962  21.673  0.00  0.00    +0.000 A 
ATOM     27  C   UNL     1      -3.985  13.502  22.981  0.00  0.00    +0.000 A 
ATOM     28  C   UNL     1      -3.019  12.547  23.298  0.00  0.00    +0.000 A 
ATOM     29  C   UNL     1      -2.223  12.070  22.245  0.00  0.00    +0.000 A 
ATOM     30  H   UNL     1       0.646   9.534  21.090  0.00  0.00    +0.000 HD
ENDBRANCH   1  21
TORSDOF 1
ENDMDL
MODEL 6
REMARK VINA RESULT:      -8.3      2.082     10.052
REMARK  Name = 
REMARK  2 active torsions:
REMARK  status: ('A' for Active; 'I' for Inactive)
REMARK    1  A    between atoms: C_1  and  N_2
REMARK    2  A    between atoms: C_5  and  C_7
REMARK                            x       y       z     vdW  Elec       q    Type
REMARK                         _______ _______ _______ _____ _____    ______ ____
ROOT
ATOM      1  C   UNL     1       0.853   9.356  21.145  0.00  0.00    +0.000 A 
ATOM      2  C   UNL     1       0.363   8.929  22.392  0.00  0.00    +0.000 A 
ATOM      3  C   UNL     1      -0.386   9.798  23.247  0.00  0.00    +0.000 A 
ATOM      4  C   UNL     1      -0.664  11.117  22.826  0.00  0.00    +0.000 A 
ATOM      5  N   UNL     1      -1.389  12.179  23.376  0.00  0.00    +0.000 NA
ATOM      6  C   UNL     1      -1.363  13.207  22.504  0.00  0.00    +0.000 A 
ATOM      7  N   UNL     1      -0.630  12.738  21.381  0.00  0.00    +0.000 N 
ATOM      8  C   UNL     1      -0.151  11.481  21.600  0.00  0.00    +0.000 A 
ATOM      9  C   UNL     1       0.627  10.672  20.764  0.00  0.00    +0.000 A 
ATOM     10  C   UNL     1      -0.369  13.402  20.059  0.00  0.00    +0.000 C 
ATOM     11  C   UNL     1      -0.980  14.677  20.331  0.00  0.00    +0.000 C 
ATOM     12  C   UNL     1      -1.579  15.969  20.544  0.00  0.00    +0.000 C 
ATOM     13  N   UNL     1      -2.110  15.755  21.939  0.00  0.00    +0.000 N 
ATOM     14  C   UNL     1      -2.055  14.586  22.807  0.00  0.00    +0.000 C 
ATOM     15  O   UNL     1      -2.641  14.784  23.883  0.00  0.00    +0.000 OA
ATOM     16  H   UNL     1      -2.604  16.535  22.356  0.00  0.00    +0.000 HD
ENDROOT
BRANCH   1  21
ATOM     17  C   UNL     1       2.138   4.115  21.423  0.00  0.00    +0.000 C 
ATOM     18  N   UNL     1       2.459   4.819  20.200  0.00  0.00    +0.000 N 
ATOM     19  C   UNL     1       2.271   6.139  19.804  0.00  0.00    +0.000 A 
ATOM     20  N   UNL     1       1.673   7.126  20.575  0.00  0.00    +0.000 N 
ATOM     21  C   UNL     1       1.539   8.447  20.131  0.00  0.00    +0.000 C 
ATOM     22  O   UNL     1       1.836   8.927  19.035  0.00  0.00    +0.000 OA
ATOM     23  N   UNL     1       2.759   6.309  18.590  0.00  0.00    +0.000 NA
ATOM     24  C   UNL     1       3.313   5.116  18.210  0.00  0.00    +0.000 A 
ATOM     25  C   UNL     1       3.996   4.768  17.039  0.00  0.00    +0.000 A 
ATOM     26  C   UNL     1       4.499   3.464  16.908  0.00  0.00    +0.000 A 
ATOM     27  C   UNL     1       4.309   2.519  17.917  0.00  0.00    +0.000 A 
ATOM     28  C   UNL     1       3.617   2.846  19.083  0.00  0.00    +0.000 A 
ATOM     29  C   UNL     1       3.138   4.160  19.195  0.00  0.00    +0.000 A 
ATOM     30  H   UNL     1       1.284   6.874  21.474  0.00  0.00    +0.000 HD
ENDBRANCH   1  21
TORSDOF 1
ENDMDL
MODEL 7
REMARK VINA RESULT:      -8.2      3.298      3.767
REMARK  Name = 
REMARK  2 active torsions:
REMARK  status: ('A' for Active; 'I' for Inactive)
REMARK    1  A    between atoms: C_1  and  N_2
REMARK    2  A    between atoms: C_5  and  C_7
REMARK                            x       y       z     vdW  Elec       q    Type
REMARK                         _______ _______ _______ _____ _____    ______ ____
ROOT
ATOM      1  C   UNL     1       1.131   9.126  18.938  0.00  0.00    +0.000 A 
ATOM      2  C   UNL     1       2.056   9.415  17.920  0.00  0.00    +0.000 A 
ATOM      3  C   UNL     1       3.121   8.519  17.589  0.00  0.00    +0.000 A 
ATOM      4  C   UNL     1       3.241   7.296  18.285  0.00  0.00    +0.000 A 
ATOM      5  N   UNL     1       4.106   6.202  18.183  0.00  0.00    +0.000 NA
ATOM      6  C   UNL     1       3.725   5.274  19.084  0.00  0.00    +0.000 A 
ATOM      7  N   UNL     1       2.575   5.810  19.723  0.00  0.00    +0.000 N 
ATOM      8  C   UNL     1       2.311   7.071  19.277  0.00  0.00    +0.000 A 
ATOM      9  C   UNL     1       1.291   7.950  19.659  0.00  0.00    +0.000 A 
ATOM     10  C   UNL     1       1.657   5.183  20.732  0.00  0.00    +0.000 C 
ATOM     11  C   UNL     1       2.364   3.944  20.931  0.00  0.00    +0.000 C 
ATOM     12  C   UNL     1       3.025   2.687  21.166  0.00  0.00    +0.000 C 
ATOM     13  N   UNL     1       4.167   2.835  20.192  0.00  0.00    +0.000 N 
ATOM     14  C   UNL     1       4.495   3.916  19.271  0.00  0.00    +0.000 C 
ATOM     15  O   UNL     1       5.506   3.657  18.600  0.00  0.00    +0.000 OA
ATOM     16  H   UNL     1       4.818   2.060  20.142  0.00  0.00    +0.000 HD
ENDROOT
BRANCH   1  21
ATOM     17  C   UNL     1      -3.265  10.166  15.973  0.00  0.00    +0.000 C 
ATOM     18  N   UNL     1      -3.199  10.744  17.299  0.00  0.00    +0.000 N 
ATOM     19  C   UNL     1      -2.236  10.679  18.301  0.00  0.00    +0.000 A 
ATOM     20  N   UNL     1      -1.044   9.973  18.217  0.00  0.00    +0.000 N 
ATOM     21  C   UNL     1      -0.100   9.970  19.250  0.00  0.00    +0.000 C 
ATOM     22  O   UNL     1      -0.173  10.492  20.365  0.00  0.00    +0.000 OA
ATOM     23  N   UNL     1      -2.625  11.402  19.334  0.00  0.00    +0.000 NA
ATOM     24  C   UNL     1      -3.816  11.983  18.991  0.00  0.00    +0.000 A 
ATOM     25  C   UNL     1      -4.628  12.872  19.705  0.00  0.00    +0.000 A 
ATOM     26  C   UNL     1      -5.804  13.350  19.104  0.00  0.00    +0.000 A 
ATOM     27  C   UNL     1      -6.173  12.935  17.824  0.00  0.00    +0.000 A 
ATOM     28  C   UNL     1      -5.383  12.038  17.107  0.00  0.00    +0.000 A 
ATOM     29  C   UNL     1      -4.206  11.587  17.724  0.00  0.00    +0.000 A 
ATOM     30  H   UNL     1      -0.869   9.406  17.398  0.00  0.00    +0.000 HD
ENDBRANCH   1  21
TORSDOF 1
ENDMDL
MODEL 8
REMARK VINA RESULT:      -8.2      2.704      3.058
REMARK  Name = 
REMARK  2 active torsions:
REMARK  status: ('A' for Active; 'I' for Inactive)
REMARK    1  A    between atoms: C_1  and  N_2
REMARK    2  A    between atoms: C_5  and  C_7
REMARK                            x       y       z     vdW  Elec       q    Type
REMARK                         _______ _______ _______ _____ _____    ______ ____
ROOT
ATOM      1  C   UNL     1       1.190   9.452  19.163  0.00  0.00    +0.000 A 
ATOM      2  C   UNL     1       1.921   9.616  17.974  0.00  0.00    +0.000 A 
ATOM      3  C   UNL     1       2.788   8.596  17.471  0.00  0.00    +0.000 A 
ATOM      4  C   UNL     1       2.902   7.375  18.172  0.00  0.00    +0.000 A 
ATOM      5  N   UNL     1       3.598   6.184  17.940  0.00  0.00    +0.000 NA
ATOM      6  C   UNL     1       3.298   5.318  18.930  0.00  0.00    +0.000 A 
ATOM      7  N   UNL     1       2.367   5.996  19.763  0.00  0.00    +0.000 N 
ATOM      8  C   UNL     1       2.169   7.274  19.335  0.00  0.00    +0.000 A 
ATOM      9  C   UNL     1       1.353   8.273  19.878  0.00  0.00    +0.000 A 
ATOM     10  C   UNL     1       1.603   5.494  20.954  0.00  0.00    +0.000 C 
ATOM     11  C   UNL     1       2.187   4.181  21.052  0.00  0.00    +0.000 C 
ATOM     12  C   UNL     1       2.731   2.856  21.196  0.00  0.00    +0.000 C 
ATOM     13  N   UNL     1       3.666   2.856  20.012  0.00  0.00    +0.000 N 
ATOM     14  C   UNL     1       3.927   3.879  19.009  0.00  0.00    +0.000 C 
ATOM     15  O   UNL     1       4.749   3.494  18.162  0.00  0.00    +0.000 OA
ATOM     16  H   UNL     1       4.200   2.008  19.863  0.00  0.00    +0.000 HD
ENDROOT
BRANCH   1  21
ATOM     17  C   UNL     1      -3.821  10.514  17.444  0.00  0.00    +0.000 C 
ATOM     18  N   UNL     1      -3.339  11.248  18.595  0.00  0.00    +0.000 N 
ATOM     19  C   UNL     1      -2.129  11.221  19.281  0.00  0.00    +0.000 A 
ATOM     20  N   UNL     1      -1.053  10.401  18.970  0.00  0.00    +0.000 N 
ATOM     21  C   UNL     1       0.152  10.441  19.681  0.00  0.00    +0.000 C 
ATOM     22  O   UNL     1       0.437  11.105  20.680  0.00  0.00    +0.000 OA
ATOM     23  N   UNL     1      -2.158  12.103  20.262  0.00  0.00    +0.000 NA
ATOM     24  C   UNL     1      -3.365  12.745  20.188  0.00  0.00    +0.000 A 
ATOM     25  C   UNL     1      -3.883  13.790  20.961  0.00  0.00    +0.000 A 
ATOM     26  C   UNL     1      -5.156  14.296  20.654  0.00  0.00    +0.000 A 
ATOM     27  C   UNL     1      -5.907  13.758  19.608  0.00  0.00    +0.000 A 
ATOM     28  C   UNL     1      -5.411  12.706  18.839  0.00  0.00    +0.000 A 
ATOM     29  C   UNL     1      -4.130  12.229  19.157  0.00  0.00    +0.000 A 
ATOM     30  H   UNL     1      -1.157   9.720  18.229  0.00  0.00    +0.000 HD
ENDBRANCH   1  21
TORSDOF 1
ENDMDL
MODEL 9
REMARK VINA RESULT:      -8.1      2.593      9.822
REMARK  Name = 
REMARK  2 active torsions:
REMARK  status: ('A' for Active; 'I' for Inactive)
REMARK    1  A    between atoms: C_1  and  N_2
REMARK    2  A    between atoms: C_5  and  C_7
REMARK                            x       y       z     vdW  Elec       q    Type
REMARK                         _______ _______ _______ _____ _____    ______ ____
ROOT
ATOM      1  C   UNL     1       0.148  10.018  18.381  0.00  0.00    +0.000 A 
ATOM      2  C   UNL     1      -0.993  10.004  17.561  0.00  0.00    +0.000 A 
ATOM      3  C   UNL     1      -2.193  10.694  17.922  0.00  0.00    +0.000 A 
ATOM      4  C   UNL     1      -2.233  11.431  19.126  0.00  0.00    +0.000 A 
ATOM      5  N   UNL     1      -3.198  12.238  19.738  0.00  0.00    +0.000 NA
ATOM      6  C   UNL     1      -2.673  12.741  20.874  0.00  0.00    +0.000 A 
ATOM      7  N   UNL     1      -1.341  12.249  20.930  0.00  0.00    +0.000 N 
ATOM      8  C   UNL     1      -1.089  11.402  19.893  0.00  0.00    +0.000 A 
ATOM      9  C   UNL     1       0.081  10.695  19.592  0.00  0.00    +0.000 A 
ATOM     10  C   UNL     1      -0.243  12.561  21.906  0.00  0.00    +0.000 C 
ATOM     11  C   UNL     1      -0.987  13.399  22.811  0.00  0.00    +0.000 C 
ATOM     12  C   UNL     1      -1.677  14.247  23.747  0.00  0.00    +0.000 C 
ATOM     13  N   UNL     1      -3.027  14.289  23.075  0.00  0.00    +0.000 N 
ATOM     14  C   UNL     1      -3.492  13.674  21.839  0.00  0.00    +0.000 C 
ATOM     15  O   UNL     1      -4.673  13.967  21.595  0.00  0.00    +0.000 OA
ATOM     16  H   UNL     1      -3.740  14.842  23.536  0.00  0.00    +0.000 HD
ENDROOT
BRANCH   1  21
ATOM     17  C   UNL     1       2.061   4.998  18.967  0.00  0.00    +0.000 C 
ATOM     18  N   UNL     1       2.921   5.972  18.328  0.00  0.00    +0.000 N 
ATOM     19  C   UNL     1       2.746   7.319  18.026  0.00  0.00    +0.000 A 
ATOM     20  N   UNL     1       1.601   8.055  18.297  0.00  0.00    +0.000 N 
ATOM     21  C   UNL     1       1.496   9.418  17.995  0.00  0.00    +0.000 C 
ATOM     22  O   UNL     1       2.306  10.145  17.415  0.00  0.00    +0.000 OA
ATOM     23  N   UNL     1       3.839   7.789  17.457  0.00  0.00    +0.000 NA
ATOM     24  C   UNL     1       4.749   6.767  17.432  0.00  0.00    +0.000 A 
ATOM     25  C   UNL     1       6.073   6.745  16.977  0.00  0.00    +0.000 A 
ATOM     26  C   UNL     1       6.811   5.556  17.094  0.00  0.00    +0.000 A 
ATOM     27  C   UNL     1       6.236   4.407  17.638  0.00  0.00    +0.000 A 
ATOM     28  C   UNL     1       4.914   4.409  18.081  0.00  0.00    +0.000 A 
ATOM     29  C   UNL     1       4.203   5.613  17.966  0.00  0.00    +0.000 A 
ATOM     30  H   UNL     1       0.797   7.582  18.688  0.00  0.00    +0.000 HD
ENDBRANCH   1  21
TORSDOF 1
ENDMDL
