MODEL 1
REMARK VINA RESULT:      -8.0      0.000      0.000
REMARK  Name = 
REMARK  8 active torsions:
REMARK  status: ('A' for Active; 'I' for Inactive)
REMARK    1  A    between atoms: C_1  and  C_2
REMARK    2  A    between atoms: C_4  and  C_5
REMARK    3  A    between atoms: C_12  and  C_13
REMARK    4  A    between atoms: C_13  and  C_14
REMARK    5  A    between atoms: C_14  and  N_15
REMARK    6  A    between atoms: C_16  and  C_18
REMARK    7  A    between atoms: C_19  and  C_20
REMARK    8  A    between atoms: N_30  and  C_31
REMARK                            x       y       z     vdW  Elec       q    Type
REMARK                         _______ _______ _______ _____ _____    ______ ____
ROOT
ATOM      1  N   UNL     1       5.464   5.239  19.265  0.00  0.00    +0.000 N 
ATOM      2  C   UNL     1       4.713   4.078  19.336  0.00  0.00    +0.000 C 
ATOM      3  O   UNL     1       5.146   3.086  19.917  0.00  0.00    +0.000 OA
ATOM      4  H   UNL     1       4.968   6.100  19.068  0.00  0.00    +0.000 HD
ENDROOT
BRANCH   2   5
ATOM      5  C   UNL     1       3.424   4.085  18.676  0.00  0.00    +0.000 A 
ATOM      6  C   UNL     1       2.232   4.778  18.931  0.00  0.00    +0.000 A 
ATOM      7  C   UNL     1       1.318   4.210  18.017  0.00  0.00    +0.000 A 
ATOM      8  N   UNL     1       1.883   3.386  17.144  0.00  0.00    +0.000 NA
ATOM      9  N   UNL     1       3.151   3.294  17.579  0.00  0.00    +0.000 N 
ATOM     10  C   UNL     1       4.055   2.437  16.845  0.00  0.00    +0.000 C 
BRANCH   6  11
ATOM     11  C   UNL     1       1.996   5.780  19.963  0.00  0.00    +0.000 C 
ATOM     12  O   UNL     1       1.703   5.426  21.112  0.00  0.00    +0.000 OA
ATOM     13  N   UNL     1       2.153   7.129  19.642  0.00  0.00    +0.000 N 
ATOM     14  C   UNL     1       2.666   7.684  18.378  0.00  0.00    +0.000 C 
ATOM     15  C   UNL     1       1.634   8.584  17.692  0.00  0.00    +0.000 C 
ATOM     16  S   UNL     1       1.249  10.031  18.725  0.00  0.00    +0.000 S 
ATOM     17  C   UNL     1       0.805   9.136  20.254  0.00  0.00    +0.000 C 
ATOM     18  C   UNL     1       1.885   8.134  20.677  0.00  0.00    +0.000 C 
ENDBRANCH   6  11
ENDBRANCH   2   5
BRANCH   1  19
ATOM     19  C   UNL     1       6.675   5.335  20.067  0.00  0.00    +0.000 C 
BRANCH  19  20
ATOM     20  C   UNL     1       7.955   5.392  19.237  0.00  0.00    +0.000 C 
BRANCH  20  26
ATOM     21  C   UNL     1       7.676   8.336  17.593  0.00  0.00    +0.000 C 
ATOM     22  C   UNL     1       7.582   6.927  17.175  0.00  0.00    +0.000 A 
ATOM     23  O   UNL     1       7.321   6.695  15.856  0.00  0.00    +0.000 OA
ATOM     24  C   UNL     1       7.254   5.330  15.752  0.00  0.00    +0.000 A 
ATOM     25  N   UNL     1       7.465   4.698  16.892  0.00  0.00    +0.000 NA
ATOM     26  C   UNL     1       7.681   5.707  17.809  0.00  0.00    +0.000 A 
BRANCH  24  27
ATOM     27  C   UNL     1       6.929   4.793  14.433  0.00  0.00    +0.000 A 
ATOM     28  C   UNL     1       5.831   3.941  14.234  0.00  0.00    +0.000 A 
ATOM     29  C   UNL     1       5.570   3.392  12.975  0.00  0.00    +0.000 A 
ATOM     30  C   UNL     1       6.393   3.704  11.897  0.00  0.00    +0.000 A 
ATOM     31  C   UNL     1       7.475   4.564  12.072  0.00  0.00    +0.000 A 
ATOM     32  C   UNL     1       7.742   5.105  13.333  0.00  0.00    +0.000 A 
ENDBRANCH  24  27
ENDBRANCH  20  26
ENDBRANCH  19  20
ENDBRANCH   1  19
TORSDOF 6
ENDMDL
MODEL 2
REMARK VINA RESULT:      -7.6      5.255      8.217
REMARK  Name = 
REMARK  8 active torsions:
REMARK  status: ('A' for Active; 'I' for Inactive)
REMARK    1  A    between atoms: C_1  and  C_2
REMARK    2  A    between atoms: C_4  and  C_5
REMARK    3  A    between atoms: C_12  and  C_13
REMARK    4  A    between atoms: C_13  and  C_14
REMARK    5  A    between atoms: C_14  and  N_15
REMARK    6  A    between atoms: C_16  and  C_18
REMARK    7  A    between atoms: C_19  and  C_20
REMARK    8  A    between atoms: N_30  and  C_31
REMARK                            x       y       z     vdW  Elec       q    Type
REMARK                         _______ _______ _______ _____ _____    ______ ____
ROOT
ATOM      1  N   UNL     1       8.795  10.008  18.150  0.00  0.00    +0.000 N 
ATOM      2  C   UNL     1       9.362  10.853  19.090  0.00  0.00    +0.000 C 
ATOM      3  O   UNL     1       9.369  10.551  20.281  0.00  0.00    +0.000 OA
ATOM      4  H   UNL     1       9.081  10.131  17.187  0.00  0.00    +0.000 HD
ENDROOT
BRANCH   2   5
ATOM      5  C   UNL     1       9.911  12.103  18.607  0.00  0.00    +0.000 A 
ATOM      6  C   UNL     1       9.322  13.239  18.034  0.00  0.00    +0.000 A 
ATOM      7  C   UNL     1      10.431  14.024  17.643  0.00  0.00    +0.000 A 
ATOM      8  N   UNL     1      11.593  13.553  18.076  0.00  0.00    +0.000 NA
ATOM      9  N   UNL     1      11.264  12.372  18.626  0.00  0.00    +0.000 N 
ATOM     10  C   UNL     1      12.329  11.572  19.190  0.00  0.00    +0.000 C 
BRANCH   6  11
ATOM     11  C   UNL     1       7.902  13.486  17.821  0.00  0.00    +0.000 C 
ATOM     12  O   UNL     1       7.291  12.862  16.944  0.00  0.00    +0.000 OA
ATOM     13  N   UNL     1       7.244  14.396  18.651  0.00  0.00    +0.000 N 
ATOM     14  C   UNL     1       7.797  15.071  19.837  0.00  0.00    +0.000 C 
ATOM     15  C   UNL     1       7.777  16.595  19.684  0.00  0.00    +0.000 C 
ATOM     16  S   UNL     1       6.069  17.208  19.539  0.00  0.00    +0.000 S 
ATOM     17  C   UNL     1       5.539  16.146  18.151  0.00  0.00    +0.000 C 
ATOM     18  C   UNL     1       5.821  14.663  18.413  0.00  0.00    +0.000 C 
ENDBRANCH   6  11
ENDBRANCH   2   5
BRANCH   1  19
ATOM     19  C   UNL     1       8.402   8.670  18.566  0.00  0.00    +0.000 C 
BRANCH  19  20
ATOM     20  C   UNL     1       7.771   7.843  17.449  0.00  0.00    +0.000 C 
BRANCH  20  26
ATOM     21  C   UNL     1       8.451   5.517  19.810  0.00  0.00    +0.000 C 
ATOM     22  C   UNL     1       7.282   5.783  18.954  0.00  0.00    +0.000 A 
ATOM     23  O   UNL     1       6.218   4.941  19.090  0.00  0.00    +0.000 OA
ATOM     24  C   UNL     1       5.305   5.385  18.170  0.00  0.00    +0.000 A 
ATOM     25  N   UNL     1       5.709   6.440  17.487  0.00  0.00    +0.000 NA
ATOM     26  C   UNL     1       6.969   6.708  17.980  0.00  0.00    +0.000 A 
BRANCH  24  27
ATOM     27  C   UNL     1       4.065   4.621  18.061  0.00  0.00    +0.000 A 
ATOM     28  C   UNL     1       4.067   3.218  18.005  0.00  0.00    +0.000 A 
ATOM     29  C   UNL     1       2.874   2.507  17.844  0.00  0.00    +0.000 A 
ATOM     30  C   UNL     1       1.664   3.189  17.755  0.00  0.00    +0.000 A 
ATOM     31  C   UNL     1       1.642   4.581  17.830  0.00  0.00    +0.000 A 
ATOM     32  C   UNL     1       2.836   5.292  17.981  0.00  0.00    +0.000 A 
ENDBRANCH  24  27
ENDBRANCH  20  26
ENDBRANCH  19  20
ENDBRANCH   1  19
TORSDOF 6
ENDMDL
MODEL 3
REMARK VINA RESULT:      -7.5      3.527      8.632
REMARK  Name = 
REMARK  8 active torsions:
REMARK  status: ('A' for Active; 'I' for Inactive)
REMARK    1  A    between atoms: C_1  and  C_2
REMARK    2  A    between atoms: C_4  and  C_5
REMARK    3  A    between atoms: C_12  and  C_13
REMARK    4  A    between atoms: C_13  and  C_14
REMARK    5  A    between atoms: C_14  and  N_15
REMARK    6  A    between atoms: C_16  and  C_18
REMARK    7  A    between atoms: C_19  and  C_20
REMARK    8  A    between atoms: N_30  and  C_31
REMARK                            x       y       z     vdW  Elec       q    Type
REMARK                         _______ _______ _______ _____ _____    ______ ____
ROOT
ATOM      1  N   UNL     1       3.136   7.458  17.782  0.00  0.00    +0.000 N 
ATOM      2  C   UNL     1       3.794   6.412  18.407  0.00  0.00    +0.000 C 
ATOM      3  O   UNL     1       3.785   6.309  19.631  0.00  0.00    +0.000 OA
ATOM      4  H   UNL     1       2.903   7.339  16.804  0.00  0.00    +0.000 HD
ENDROOT
BRANCH   2   5
ATOM      5  C   UNL     1       4.504   5.478  17.558  0.00  0.00    +0.000 A 
ATOM      6  C   UNL     1       4.186   4.198  17.082  0.00  0.00    +0.000 A 
ATOM      7  C   UNL     1       5.374   3.780  16.442  0.00  0.00    +0.000 A 
ATOM      8  N   UNL     1       6.288   4.735  16.343  0.00  0.00    +0.000 NA
ATOM      9  N   UNL     1       5.761   5.745  17.055  0.00  0.00    +0.000 N 
ATOM     10  C   UNL     1       6.531   6.964  17.169  0.00  0.00    +0.000 C 
BRANCH   6  11
ATOM     11  C   UNL     1       2.946   3.461  17.291  0.00  0.00    +0.000 C 
ATOM     12  O   UNL     1       2.132   3.347  16.366  0.00  0.00    +0.000 OA
ATOM     13  N   UNL     1       2.723   2.853  18.528  0.00  0.00    +0.000 N 
ATOM     14  C   UNL     1       3.673   2.756  19.649  0.00  0.00    +0.000 C 
ATOM     15  C   UNL     1       3.132   3.431  20.913  0.00  0.00    +0.000 C 
ATOM     16  S   UNL     1       1.621   2.600  21.494  0.00  0.00    +0.000 S 
ATOM     17  C   UNL     1       0.672   2.687  19.937  0.00  0.00    +0.000 C 
ATOM     18  C   UNL     1       1.461   2.138  18.743  0.00  0.00    +0.000 C 
ENDBRANCH   6  11
ENDBRANCH   2   5
BRANCH   1  19
ATOM     19  C   UNL     1       2.263   8.306  18.578  0.00  0.00    +0.000 C 
BRANCH  19  20
ATOM     20  C   UNL     1       1.504   9.346  17.758  0.00  0.00    +0.000 C 
BRANCH  20  26
ATOM     21  C   UNL     1       2.498  12.551  18.192  0.00  0.00    +0.000 C 
ATOM     22  C   UNL     1       1.399  11.745  18.750  0.00  0.00    +0.000 A 
ATOM     23  O   UNL     1       0.577  12.364  19.646  0.00  0.00    +0.000 OA
ATOM     24  C   UNL     1      -0.314  11.395  20.024  0.00  0.00    +0.000 A 
ATOM     25  N   UNL     1      -0.122  10.233  19.428  0.00  0.00    +0.000 NA
ATOM     26  C   UNL     1       0.967  10.443  18.608  0.00  0.00    +0.000 A 
BRANCH  24  27
ATOM     27  C   UNL     1      -1.298  11.775  21.035  0.00  0.00    +0.000 A 
ATOM     28  C   UNL     1      -1.153  11.405  22.381  0.00  0.00    +0.000 A 
ATOM     29  C   UNL     1      -2.134  11.729  23.322  0.00  0.00    +0.000 A 
ATOM     30  C   UNL     1      -3.263  12.445  22.932  0.00  0.00    +0.000 A 
ATOM     31  C   UNL     1      -3.413  12.839  21.604  0.00  0.00    +0.000 A 
ATOM     32  C   UNL     1      -2.437  12.505  20.661  0.00  0.00    +0.000 A 
ENDBRANCH  24  27
ENDBRANCH  20  26
ENDBRANCH  19  20
ENDBRANCH   1  19
TORSDOF 6
ENDMDL
MODEL 4
REMARK VINA RESULT:      -7.4      3.625      8.030
REMARK  Name = 
REMARK  8 active torsions:
REMARK  status: ('A' for Active; 'I' for Inactive)
REMARK    1  A    between atoms: C_1  and  C_2
REMARK    2  A    between atoms: C_4  and  C_5
REMARK    3  A    between atoms: C_12  and  C_13
REMARK    4  A    between atoms: C_13  and  C_14
REMARK    5  A    between atoms: C_14  and  N_15
REMARK    6  A    between atoms: C_16  and  C_18
REMARK    7  A    between atoms: C_19  and  C_20
REMARK    8  A    between atoms: N_30  and  C_31
REMARK                            x       y       z     vdW  Elec       q    Type
REMARK                         _______ _______ _______ _____ _____    ______ ____
ROOT
ATOM      1  N   UNL     1       3.084   6.856  17.891  0.00  0.00    +0.000 N 
ATOM      2  C   UNL     1       4.144   6.110  18.377  0.00  0.00    +0.000 C 
ATOM      3  O   UNL     1       4.552   6.272  19.524  0.00  0.00    +0.000 OA
ATOM      4  H   UNL     1       2.588   6.488  17.089  0.00  0.00    +0.000 HD
ENDROOT
BRANCH   2   5
ATOM      5  C   UNL     1       4.755   5.163  17.467  0.00  0.00    +0.000 A 
ATOM      6  C   UNL     1       4.329   3.928  16.956  0.00  0.00    +0.000 A 
ATOM      7  C   UNL     1       5.460   3.453  16.255  0.00  0.00    +0.000 A 
ATOM      8  N   UNL     1       6.436   4.346  16.155  0.00  0.00    +0.000 NA
ATOM      9  N   UNL     1       6.008   5.362  16.924  0.00  0.00    +0.000 N 
ATOM     10  C   UNL     1       6.867   6.518  17.053  0.00  0.00    +0.000 C 
BRANCH   6  11
ATOM     11  C   UNL     1       3.049   3.271  17.186  0.00  0.00    +0.000 C 
ATOM     12  O   UNL     1       2.234   3.164  16.261  0.00  0.00    +0.000 OA
ATOM     13  N   UNL     1       2.785   2.730  18.447  0.00  0.00    +0.000 N 
ATOM     14  C   UNL     1       3.722   2.627  19.578  0.00  0.00    +0.000 C 
ATOM     15  C   UNL     1       3.214   3.386  20.808  0.00  0.00    +0.000 C 
ATOM     16  S   UNL     1       1.655   2.667  21.412  0.00  0.00    +0.000 S 
ATOM     17  C   UNL     1       0.721   2.740  19.845  0.00  0.00    +0.000 C 
ATOM     18  C   UNL     1       1.484   2.097  18.682  0.00  0.00    +0.000 C 
ENDBRANCH   6  11
ENDBRANCH   2   5
BRANCH   1  19
ATOM     19  C   UNL     1       2.329   7.680  18.824  0.00  0.00    +0.000 C 
BRANCH  19  20
ATOM     20  C   UNL     1       2.247   9.148  18.416  0.00  0.00    +0.000 C 
BRANCH  20  26
ATOM     21  C   UNL     1       0.869  10.261  21.300  0.00  0.00    +0.000 C 
ATOM     22  C   UNL     1       0.390  10.186  19.909  0.00  0.00    +0.000 A 
ATOM     23  O   UNL     1      -0.874  10.640  19.670  0.00  0.00    +0.000 OA
ATOM     24  C   UNL     1      -1.071  10.425  18.331  0.00  0.00    +0.000 A 
ATOM     25  N   UNL     1      -0.031   9.890  17.719  0.00  0.00    +0.000 NA
ATOM     26  C   UNL     1       0.912   9.736  18.715  0.00  0.00    +0.000 A 
BRANCH  24  27
ATOM     27  C   UNL     1      -2.386  10.778  17.802  0.00  0.00    +0.000 A 
ATOM     28  C   UNL     1      -2.743  10.503  16.472  0.00  0.00    +0.000 A 
ATOM     29  C   UNL     1      -3.985  10.900  15.969  0.00  0.00    +0.000 A 
ATOM     30  C   UNL     1      -4.892  11.560  16.794  0.00  0.00    +0.000 A 
ATOM     31  C   UNL     1      -4.561  11.822  18.122  0.00  0.00    +0.000 A 
ATOM     32  C   UNL     1      -3.315  11.434  18.623  0.00  0.00    +0.000 A 
ENDBRANCH  24  27
ENDBRANCH  20  26
ENDBRANCH  19  20
ENDBRANCH   1  19
TORSDOF 6
ENDMDL
MODEL 5
REMARK VINA RESULT:      -7.4      3.450      8.154
REMARK  Name = 
REMARK  8 active torsions:
REMARK  status: ('A' for Active; 'I' for Inactive)
REMARK    1  A    between atoms: C_1  and  C_2
REMARK    2  A    between atoms: C_4  and  C_5
REMARK    3  A    between atoms: C_12  and  C_13
REMARK    4  A    between atoms: C_13  and  C_14
REMARK    5  A    between atoms: C_14  and  N_15
REMARK    6  A    between atoms: C_16  and  C_18
REMARK    7  A    between atoms: C_19  and  C_20
REMARK    8  A    between atoms: N_30  and  C_31
REMARK                            x       y       z     vdW  Elec       q    Type
REMARK                         _______ _______ _______ _____ _____    ______ ____
ROOT
ATOM      1  N   UNL     1       3.469   6.846  17.924  0.00  0.00    +0.000 N 
ATOM      2  C   UNL     1       4.483   6.849  16.981  0.00  0.00    +0.000 C 
ATOM      3  O   UNL     1       4.346   7.443  15.915  0.00  0.00    +0.000 OA
ATOM      4  H   UNL     1       3.726   6.629  18.879  0.00  0.00    +0.000 HD
ENDROOT
BRANCH   2   5
ATOM      5  C   UNL     1       5.683   6.103  17.302  0.00  0.00    +0.000 A 
ATOM      6  C   UNL     1       5.947   4.730  17.407  0.00  0.00    +0.000 A 
ATOM      7  C   UNL     1       7.267   4.685  17.907  0.00  0.00    +0.000 A 
ATOM      8  N   UNL     1       7.862   5.871  17.943  0.00  0.00    +0.000 NA
ATOM      9  N   UNL     1       6.878   6.722  17.608  0.00  0.00    +0.000 N 
ATOM     10  C   UNL     1       7.192   8.133  17.571  0.00  0.00    +0.000 C 
BRANCH   6  11
ATOM     11  C   UNL     1       5.027   3.631  17.143  0.00  0.00    +0.000 C 
ATOM     12  O   UNL     1       4.985   3.116  16.018  0.00  0.00    +0.000 OA
ATOM     13  N   UNL     1       4.237   3.147  18.188  0.00  0.00    +0.000 N 
ATOM     14  C   UNL     1       4.309   3.539  19.605  0.00  0.00    +0.000 C 
ATOM     15  C   UNL     1       2.985   4.132  20.098  0.00  0.00    +0.000 C 
ATOM     16  S   UNL     1       1.652   2.897  20.013  0.00  0.00    +0.000 S 
ATOM     17  C   UNL     1       1.847   2.439  18.256  0.00  0.00    +0.000 C 
ATOM     18  C   UNL     1       3.291   2.061  17.910  0.00  0.00    +0.000 C 
ENDBRANCH   6  11
ENDBRANCH   2   5
BRANCH   1  19
ATOM     19  C   UNL     1       2.330   7.729  17.723  0.00  0.00    +0.000 C 
BRANCH  19  20
ATOM     20  C   UNL     1       2.387   9.003  18.561  0.00  0.00    +0.000 C 
BRANCH  20  26
ATOM     21  C   UNL     1       0.835  10.019  21.391  0.00  0.00    +0.000 C 
ATOM     22  C   UNL     1       0.440   9.987  19.972  0.00  0.00    +0.000 A 
ATOM     23  O   UNL     1      -0.810  10.443  19.673  0.00  0.00    +0.000 OA
ATOM     24  C   UNL     1      -0.926  10.270  18.319  0.00  0.00    +0.000 A 
ATOM     25  N   UNL     1       0.151   9.758  17.753  0.00  0.00    +0.000 NA
ATOM     26  C   UNL     1       1.035   9.576  18.797  0.00  0.00    +0.000 A 
BRANCH  24  27
ATOM     27  C   UNL     1      -2.209  10.635  17.724  0.00  0.00    +0.000 A 
ATOM     28  C   UNL     1      -2.506  10.353  16.381  0.00  0.00    +0.000 A 
ATOM     29  C   UNL     1      -3.717  10.761  15.815  0.00  0.00    +0.000 A 
ATOM     30  C   UNL     1      -4.654  11.440  16.590  0.00  0.00    +0.000 A 
ATOM     31  C   UNL     1      -4.384  11.709  17.930  0.00  0.00    +0.000 A 
ATOM     32  C   UNL     1      -3.169  11.310  18.493  0.00  0.00    +0.000 A 
ENDBRANCH  24  27
ENDBRANCH  20  26
ENDBRANCH  19  20
ENDBRANCH   1  19
TORSDOF 6
ENDMDL
MODEL 6
REMARK VINA RESULT:      -7.3      3.533      8.828
REMARK  Name = 
REMARK  8 active torsions:
REMARK  status: ('A' for Active; 'I' for Inactive)
REMARK    1  A    between atoms: C_1  and  C_2
REMARK    2  A    between atoms: C_4  and  C_5
REMARK    3  A    between atoms: C_12  and  C_13
REMARK    4  A    between atoms: C_13  and  C_14
REMARK    5  A    between atoms: C_14  and  N_15
REMARK    6  A    between atoms: C_16  and  C_18
REMARK    7  A    between atoms: C_19  and  C_20
REMARK    8  A    between atoms: N_30  and  C_31
REMARK                            x       y       z     vdW  Elec       q    Type
REMARK                         _______ _______ _______ _____ _____    ______ ____
ROOT
ATOM      1  N   UNL     1       2.967   7.425  17.745  0.00  0.00    +0.000 N 
ATOM      2  C   UNL     1       3.721   6.457  18.388  0.00  0.00    +0.000 C 
ATOM      3  O   UNL     1       3.773   6.415  19.614  0.00  0.00    +0.000 OA
ATOM      4  H   UNL     1       2.699   7.241  16.786  0.00  0.00    +0.000 HD
ENDROOT
BRANCH   2   5
ATOM      5  C   UNL     1       4.454   5.530  17.551  0.00  0.00    +0.000 A 
ATOM      6  C   UNL     1       4.164   4.240  17.083  0.00  0.00    +0.000 A 
ATOM      7  C   UNL     1       5.364   3.840  16.454  0.00  0.00    +0.000 A 
ATOM      8  N   UNL     1       6.261   4.812  16.353  0.00  0.00    +0.000 NA
ATOM      9  N   UNL     1       5.709   5.818  17.054  0.00  0.00    +0.000 N 
ATOM     10  C   UNL     1       6.455   7.052  17.162  0.00  0.00    +0.000 C 
BRANCH   6  11
ATOM     11  C   UNL     1       2.938   3.481  17.290  0.00  0.00    +0.000 C 
ATOM     12  O   UNL     1       2.132   3.344  16.362  0.00  0.00    +0.000 OA
ATOM     13  N   UNL     1       2.720   2.878  18.531  0.00  0.00    +0.000 N 
ATOM     14  C   UNL     1       3.664   2.808  19.659  0.00  0.00    +0.000 C 
ATOM     15  C   UNL     1       3.103   3.482  20.914  0.00  0.00    +0.000 C 
ATOM     16  S   UNL     1       1.605   2.626  21.493  0.00  0.00    +0.000 S 
ATOM     17  C   UNL     1       0.664   2.683  19.929  0.00  0.00    +0.000 C 
ATOM     18  C   UNL     1       1.470   2.140  18.744  0.00  0.00    +0.000 C 
ENDBRANCH   6  11
ENDBRANCH   2   5
BRANCH   1  19
ATOM     19  C   UNL     1       2.074   8.253  18.541  0.00  0.00    +0.000 C 
BRANCH  19  20
ATOM     20  C   UNL     1       1.659   9.548  17.848  0.00  0.00    +0.000 C 
BRANCH  20  26
ATOM     21  C   UNL     1      -1.653   9.857  17.229  0.00  0.00    +0.000 C 
ATOM     22  C   UNL     1      -0.771  10.348  18.302  0.00  0.00    +0.000 A 
ATOM     23  O   UNL     1      -1.353  11.100  19.279  0.00  0.00    +0.000 OA
ATOM     24  C   UNL     1      -0.321  11.447  20.110  0.00  0.00    +0.000 A 
ATOM     25  N   UNL     1       0.849  10.962  19.737  0.00  0.00    +0.000 NA
ATOM     26  C   UNL     1       0.575  10.253  18.585  0.00  0.00    +0.000 A 
BRANCH  24  27
ATOM     27  C   UNL     1      -0.656  12.314  21.237  0.00  0.00    +0.000 A 
ATOM     28  C   UNL     1      -0.009  13.543  21.440  0.00  0.00    +0.000 A 
ATOM     29  C   UNL     1      -0.303  14.331  22.556  0.00  0.00    +0.000 A 
ATOM     30  C   UNL     1      -1.262  13.908  23.473  0.00  0.00    +0.000 A 
ATOM     31  C   UNL     1      -1.928  12.701  23.276  0.00  0.00    +0.000 A 
ATOM     32  C   UNL     1      -1.626  11.908  22.165  0.00  0.00    +0.000 A 
ENDBRANCH  24  27
ENDBRANCH  20  26
ENDBRANCH  19  20
ENDBRANCH   1  19
TORSDOF 6
ENDMDL
MODEL 7
REMARK VINA RESULT:      -7.3      3.501      7.986
REMARK  Name = 
REMARK  8 active torsions:
REMARK  status: ('A' for Active; 'I' for Inactive)
REMARK    1  A    between atoms: C_1  and  C_2
REMARK    2  A    between atoms: C_4  and  C_5
REMARK    3  A    between atoms: C_12  and  C_13
REMARK    4  A    between atoms: C_13  and  C_14
REMARK    5  A    between atoms: C_14  and  N_15
REMARK    6  A    between atoms: C_16  and  C_18
REMARK    7  A    between atoms: C_19  and  C_20
REMARK    8  A    between atoms: N_30  and  C_31
REMARK                            x       y       z     vdW  Elec       q    Type
REMARK                         _______ _______ _______ _____ _____    ______ ____
ROOT
ATOM      1  N   UNL     1       2.307   6.708  20.393  0.00  0.00    +0.000 N 
ATOM      2  C   UNL     1       2.520   5.914  19.278  0.00  0.00    +0.000 C 
ATOM      3  O   UNL     1       2.306   6.349  18.149  0.00  0.00    +0.000 OA
ATOM      4  H   UNL     1       2.778   6.440  21.248  0.00  0.00    +0.000 HD
ENDROOT
BRANCH   2   5
ATOM      5  C   UNL     1       2.974   4.559  19.511  0.00  0.00    +0.000 A 
ATOM      6  C   UNL     1       4.230   3.947  19.398  0.00  0.00    +0.000 A 
ATOM      7  C   UNL     1       3.951   2.579  19.614  0.00  0.00    +0.000 A 
ATOM      8  N   UNL     1       2.706   2.347  20.008  0.00  0.00    +0.000 NA
ATOM      9  N   UNL     1       2.118   3.551  19.905  0.00  0.00    +0.000 N 
ATOM     10  C   UNL     1       0.717   3.647  20.248  0.00  0.00    +0.000 C 
BRANCH   6  11
ATOM     11  C   UNL     1       5.494   4.582  19.050  0.00  0.00    +0.000 C 
ATOM     12  O   UNL     1       6.122   5.220  19.905  0.00  0.00    +0.000 OA
ATOM     13  N   UNL     1       5.998   4.418  17.758  0.00  0.00    +0.000 N 
ATOM     14  C   UNL     1       5.455   3.549  16.701  0.00  0.00    +0.000 C 
ATOM     15  C   UNL     1       5.055   4.348  15.457  0.00  0.00    +0.000 C 
ATOM     16  S   UNL     1       6.507   5.155  14.713  0.00  0.00    +0.000 S 
ATOM     17  C   UNL     1       7.102   6.025  16.203  0.00  0.00    +0.000 C 
ATOM     18  C   UNL     1       7.256   5.085  17.404  0.00  0.00    +0.000 C 
ENDBRANCH   6  11
ENDBRANCH   2   5
BRANCH   1  19
ATOM     19  C   UNL     1       2.031   8.123  20.197  0.00  0.00    +0.000 C 
BRANCH  19  20
ATOM     20  C   UNL     1       0.863   8.641  21.031  0.00  0.00    +0.000 C 
BRANCH  20  26
ATOM     21  C   UNL     1       0.396  11.962  21.486  0.00  0.00    +0.000 C 
ATOM     22  C   UNL     1      -0.113  10.991  20.503  0.00  0.00    +0.000 A 
ATOM     23  O   UNL     1      -0.964  11.470  19.551  0.00  0.00    +0.000 OA
ATOM     24  C   UNL     1      -1.304  10.371  18.806  0.00  0.00    +0.000 A 
ATOM     25  N   UNL     1      -0.723   9.256  19.207  0.00  0.00    +0.000 NA
ATOM     26  C   UNL     1       0.045   9.637  20.288  0.00  0.00    +0.000 A 
BRANCH  24  27
ATOM     27  C   UNL     1      -2.264  10.588  17.727  0.00  0.00    +0.000 A 
ATOM     28  C   UNL     1      -3.408  11.382  17.906  0.00  0.00    +0.000 A 
ATOM     29  C   UNL     1      -4.344  11.531  16.879  0.00  0.00    +0.000 A 
ATOM     30  C   UNL     1      -4.138  10.903  15.653  0.00  0.00    +0.000 A 
ATOM     31  C   UNL     1      -2.997  10.129  15.451  0.00  0.00    +0.000 A 
ATOM     32  C   UNL     1      -2.066   9.972  16.482  0.00  0.00    +0.000 A 
ENDBRANCH  24  27
ENDBRANCH  20  26
ENDBRANCH  19  20
ENDBRANCH   1  19
TORSDOF 6
ENDMDL
MODEL 8
REMARK VINA RESULT:      -7.3      3.790      8.435
REMARK  Name = 
REMARK  8 active torsions:
REMARK  status: ('A' for Active; 'I' for Inactive)
REMARK    1  A    between atoms: C_1  and  C_2
REMARK    2  A    between atoms: C_4  and  C_5
REMARK    3  A    between atoms: C_12  and  C_13
REMARK    4  A    between atoms: C_13  and  C_14
REMARK    5  A    between atoms: C_14  and  N_15
REMARK    6  A    between atoms: C_16  and  C_18
REMARK    7  A    between atoms: C_19  and  C_20
REMARK    8  A    between atoms: N_30  and  C_31
REMARK                            x       y       z     vdW  Elec       q    Type
REMARK                         _______ _______ _______ _____ _____    ______ ____
ROOT
ATOM      1  N   UNL     1       3.158   7.402  17.753  0.00  0.00    +0.000 N 
ATOM      2  C   UNL     1       3.865   6.387  18.377  0.00  0.00    +0.000 C 
ATOM      3  O   UNL     1       3.907   6.315  19.602  0.00  0.00    +0.000 OA
ATOM      4  H   UNL     1       2.888   7.253  16.788  0.00  0.00    +0.000 HD
ENDROOT
BRANCH   2   5
ATOM      5  C   UNL     1       4.562   5.449  17.522  0.00  0.00    +0.000 A 
ATOM      6  C   UNL     1       4.228   4.175  17.041  0.00  0.00    +0.000 A 
ATOM      7  C   UNL     1       5.410   3.745  16.397  0.00  0.00    +0.000 A 
ATOM      8  N   UNL     1       6.336   4.690  16.301  0.00  0.00    +0.000 NA
ATOM      9  N   UNL     1       5.821   5.704  17.018  0.00  0.00    +0.000 N 
ATOM     10  C   UNL     1       6.606   6.912  17.135  0.00  0.00    +0.000 C 
BRANCH   6  11
ATOM     11  C   UNL     1       2.981   3.451  17.249  0.00  0.00    +0.000 C 
ATOM     12  O   UNL     1       2.166   3.346  16.325  0.00  0.00    +0.000 OA
ATOM     13  N   UNL     1       2.751   2.846  18.487  0.00  0.00    +0.000 N 
ATOM     14  C   UNL     1       3.699   2.738  19.608  0.00  0.00    +0.000 C 
ATOM     15  C   UNL     1       3.165   3.420  20.872  0.00  0.00    +0.000 C 
ATOM     16  S   UNL     1       1.644   2.605  21.452  0.00  0.00    +0.000 S 
ATOM     17  C   UNL     1       0.697   2.703  19.894  0.00  0.00    +0.000 C 
ATOM     18  C   UNL     1       1.480   2.144  18.701  0.00  0.00    +0.000 C 
ENDBRANCH   6  11
ENDBRANCH   2   5
BRANCH   1  19
ATOM     19  C   UNL     1       2.297   8.250  18.564  0.00  0.00    +0.000 C 
BRANCH  19  20
ATOM     20  C   UNL     1       1.704   9.430  17.799  0.00  0.00    +0.000 C 
BRANCH  20  26
ATOM     21  C   UNL     1       0.794   9.758  21.042  0.00  0.00    +0.000 C 
ATOM     22  C   UNL     1       0.125  10.058  19.764  0.00  0.00    +0.000 A 
ATOM     23  O   UNL     1      -1.136  10.573  19.838  0.00  0.00    +0.000 OA
ATOM     24  C   UNL     1      -1.526  10.720  18.533  0.00  0.00    +0.000 A 
ATOM     25  N   UNL     1      -0.609  10.354  17.658  0.00  0.00    +0.000 NA
ATOM     26  C   UNL     1       0.454   9.933  18.431  0.00  0.00    +0.000 A 
BRANCH  24  27
ATOM     27  C   UNL     1      -2.883  11.215  18.312  0.00  0.00    +0.000 A 
ATOM     28  C   UNL     1      -3.546  12.002  19.267  0.00  0.00    +0.000 A 
ATOM     29  C   UNL     1      -4.864  12.418  19.061  0.00  0.00    +0.000 A 
ATOM     30  C   UNL     1      -5.529  12.068  17.889  0.00  0.00    +0.000 A 
ATOM     31  C   UNL     1      -4.878  11.306  16.921  0.00  0.00    +0.000 A 
ATOM     32  C   UNL     1      -3.564  10.881  17.132  0.00  0.00    +0.000 A 
ENDBRANCH  24  27
ENDBRANCH  20  26
ENDBRANCH  19  20
ENDBRANCH   1  19
TORSDOF 6
ENDMDL
MODEL 9
REMARK VINA RESULT:      -7.2      4.009      6.952
REMARK  Name = 
REMARK  8 active torsions:
REMARK  status: ('A' for Active; 'I' for Inactive)
REMARK    1  A    between atoms: C_1  and  C_2
REMARK    2  A    between atoms: C_4  and  C_5
REMARK    3  A    between atoms: C_12  and  C_13
REMARK    4  A    between atoms: C_13  and  C_14
REMARK    5  A    between atoms: C_14  and  N_15
REMARK    6  A    between atoms: C_16  and  C_18
REMARK    7  A    between atoms: C_19  and  C_20
REMARK    8  A    between atoms: N_30  and  C_31
REMARK                            x       y       z     vdW  Elec       q    Type
REMARK                         _______ _______ _______ _____ _____    ______ ____
ROOT
ATOM      1  N   UNL     1       1.124   9.189  20.080  0.00  0.00    +0.000 N 
ATOM      2  C   UNL     1       0.159  10.080  20.520  0.00  0.00    +0.000 C 
ATOM      3  O   UNL     1      -0.417   9.902  21.590  0.00  0.00    +0.000 OA
ATOM      4  H   UNL     1       1.778   9.523  19.382  0.00  0.00    +0.000 HD
ENDROOT
BRANCH   2   5
ATOM      5  C   UNL     1      -0.149  11.199  19.654  0.00  0.00    +0.000 A 
ATOM      6  C   UNL     1       0.287  12.532  19.633  0.00  0.00    +0.000 A 
ATOM      7  C   UNL     1      -0.518  13.127  18.637  0.00  0.00    +0.000 A 
ATOM      8  N   UNL     1      -1.252  12.256  17.957  0.00  0.00    +0.000 NA
ATOM      9  N   UNL     1      -1.045  11.099  18.608  0.00  0.00    +0.000 N 
ATOM     10  C   UNL     1      -1.731   9.922  18.125  0.00  0.00    +0.000 C 
BRANCH   6  11
ATOM     11  C   UNL     1       1.275  13.151  20.508  0.00  0.00    +0.000 C 
ATOM     12  O   UNL     1       1.071  13.207  21.727  0.00  0.00    +0.000 OA
ATOM     13  N   UNL     1       2.462  13.630  19.951  0.00  0.00    +0.000 N 
ATOM     14  C   UNL     1       2.913  13.472  18.558  0.00  0.00    +0.000 C 
ATOM     15  C   UNL     1       3.117  14.824  17.869  0.00  0.00    +0.000 C 
ATOM     16  S   UNL     1       4.432  15.777  18.691  0.00  0.00    +0.000 S 
ATOM     17  C   UNL     1       3.766  15.710  20.389  0.00  0.00    +0.000 C 
ATOM     18  C   UNL     1       3.440  14.279  20.831  0.00  0.00    +0.000 C 
ENDBRANCH   6  11
ENDBRANCH   2   5
BRANCH   1  19
ATOM     19  C   UNL     1       1.593   8.162  20.998  0.00  0.00    +0.000 C 
BRANCH  19  20
ATOM     20  C   UNL     1       0.994   6.784  20.732  0.00  0.00    +0.000 C 
BRANCH  20  26
ATOM     21  C   UNL     1       1.287   3.423  21.001  0.00  0.00    +0.000 C 
ATOM     22  C   UNL     1       2.081   4.460  20.321  0.00  0.00    +0.000 A 
ATOM     23  O   UNL     1       3.189   4.040  19.644  0.00  0.00    +0.000 OA
ATOM     24  C   UNL     1       3.748   5.188  19.148  0.00  0.00    +0.000 A 
ATOM     25  N   UNL     1       3.073   6.282  19.449  0.00  0.00    +0.000 NA
ATOM     26  C   UNL     1       2.002   5.831  20.194  0.00  0.00    +0.000 A 
BRANCH  24  27
ATOM     27  C   UNL     1       4.999   5.036  18.410  0.00  0.00    +0.000 A 
ATOM     28  C   UNL     1       5.026   4.523  17.103  0.00  0.00    +0.000 A 
ATOM     29  C   UNL     1       6.239   4.333  16.435  0.00  0.00    +0.000 A 
ATOM     30  C   UNL     1       7.437   4.670  17.057  0.00  0.00    +0.000 A 
ATOM     31  C   UNL     1       7.427   5.200  18.346  0.00  0.00    +0.000 A 
ATOM     32  C   UNL     1       6.215   5.381  19.018  0.00  0.00    +0.000 A 
ENDBRANCH  24  27
ENDBRANCH  20  26
ENDBRANCH  19  20
ENDBRANCH   1  19
TORSDOF 6
ENDMDL
