MODEL 1
REMARK VINA RESULT:      -7.9      0.000      0.000
REMARK  Name = 
REMARK  3 active torsions:
REMARK  status: ('A' for Active; 'I' for Inactive)
REMARK    1  A    between atoms: C_4  and  C_5
REMARK    2  A    between atoms: C_5  and  C_6
REMARK    3  A    between atoms: C_9  and  N_10
REMARK                            x       y       z     vdW  Elec       q    Type
REMARK                         _______ _______ _______ _____ _____    ______ ____
ROOT
ATOM      1  C   UNL     1       5.251   5.142  16.845  0.00  0.00    +0.000 A 
ATOM      2  C   UNL     1       5.443   6.516  17.010  0.00  0.00    +0.000 A 
ATOM      3  C   UNL     1       4.429   7.317  17.521  0.00  0.00    +0.000 A 
ATOM      4  C   UNL     1       3.192   6.799  17.953  0.00  0.00    +0.000 A 
ATOM      5  C   UNL     1       3.007   5.373  17.841  0.00  0.00    +0.000 A 
ATOM      6  C   UNL     1       1.880   4.674  18.331  0.00  0.00    +0.000 A 
ATOM      7  C   UNL     1       1.782   3.284  18.347  0.00  0.00    +0.000 A 
ATOM      8  C   UNL     1       2.687   2.542  17.623  0.00  0.00    +0.000 A 
ATOM      9  C   UNL     1       3.760   3.186  17.026  0.00  0.00    +0.000 A 
ATOM     10  C   UNL     1       4.012   4.567  17.218  0.00  0.00    +0.000 A 
ENDROOT
BRANCH   4  11
ATOM     11  N   UNL     1       2.301   7.699  18.534  0.00  0.00    +0.000 N 
ATOM     12  C   UNL     1       1.730   7.586  19.873  0.00  0.00    +0.000 C 
ATOM     13  C   UNL     1       1.618   8.975  20.546  0.00  0.00    +0.000 C 
ATOM     14  N   UNL     1       0.918   9.984  19.737  0.00  0.00    +0.000 NA
ATOM     15  C   UNL     1       1.534  10.042  18.393  0.00  0.00    +0.000 C 
ATOM     16  C   UNL     1       1.569   8.670  17.681  0.00  0.00    +0.000 C 
ATOM     17  H   UNL     1       1.026  10.892  20.191  0.00  0.00    +0.000 HD
ENDBRANCH   4  11
BRANCH   1  18
ATOM     18  C   UNL     1       6.430   4.321  16.343  0.00  0.00    +0.000 C 
BRANCH  18  22
ATOM     19  C   UNL     1       6.935   4.344  12.059  0.00  0.00    +0.000 A 
ATOM     20  C   UNL     1       5.956   3.541  12.640  0.00  0.00    +0.000 A 
ATOM     21  C   UNL     1       5.792   3.546  14.025  0.00  0.00    +0.000 A 
ATOM     22  C   UNL     1       6.604   4.334  14.844  0.00  0.00    +0.000 A 
ATOM     23  C   UNL     1       7.568   5.160  14.244  0.00  0.00    +0.000 A 
ATOM     24  C   UNL     1       7.734   5.158  12.858  0.00  0.00    +0.000 A 
ENDBRANCH  18  22
ENDBRANCH   1  18
TORSDOF 3
ENDMDL
MODEL 2
REMARK VINA RESULT:      -7.9      0.028      1.006
REMARK  Name = 
REMARK  3 active torsions:
REMARK  status: ('A' for Active; 'I' for Inactive)
REMARK    1  A    between atoms: C_4  and  C_5
REMARK    2  A    between atoms: C_5  and  C_6
REMARK    3  A    between atoms: C_9  and  N_10
REMARK                            x       y       z     vdW  Elec       q    Type
REMARK                         _______ _______ _______ _____ _____    ______ ____
ROOT
ATOM      1  C   UNL     1       5.251   5.123  16.857  0.00  0.00    +0.000 A 
ATOM      2  C   UNL     1       5.441   6.498  17.025  0.00  0.00    +0.000 A 
ATOM      3  C   UNL     1       4.426   7.297  17.537  0.00  0.00    +0.000 A 
ATOM      4  C   UNL     1       3.190   6.777  17.968  0.00  0.00    +0.000 A 
ATOM      5  C   UNL     1       3.006   5.351  17.853  0.00  0.00    +0.000 A 
ATOM      6  C   UNL     1       1.880   4.650  18.343  0.00  0.00    +0.000 A 
ATOM      7  C   UNL     1       1.783   3.260  18.356  0.00  0.00    +0.000 A 
ATOM      8  C   UNL     1       2.688   2.521  17.631  0.00  0.00    +0.000 A 
ATOM      9  C   UNL     1       3.761   3.166  17.035  0.00  0.00    +0.000 A 
ATOM     10  C   UNL     1       4.012   4.547  17.230  0.00  0.00    +0.000 A 
ENDROOT
BRANCH   4  11
ATOM     11  N   UNL     1       2.298   7.676  18.551  0.00  0.00    +0.000 N 
ATOM     12  C   UNL     1       1.730   7.563  19.891  0.00  0.00    +0.000 C 
ATOM     13  C   UNL     1       1.617   8.951  20.563  0.00  0.00    +0.000 C 
ATOM     14  N   UNL     1       0.913   9.958  19.755  0.00  0.00    +0.000 NA
ATOM     15  C   UNL     1       1.525  10.017  18.410  0.00  0.00    +0.000 C 
ATOM     16  C   UNL     1       1.561   8.644  17.699  0.00  0.00    +0.000 C 
ATOM     17  H   UNL     1       1.020  10.866  20.208  0.00  0.00    +0.000 HD
ENDBRANCH   4  11
BRANCH   1  18
ATOM     18  C   UNL     1       6.430   4.305  16.354  0.00  0.00    +0.000 C 
BRANCH  18  22
ATOM     19  C   UNL     1       6.933   4.381  12.071  0.00  0.00    +0.000 A 
ATOM     20  C   UNL     1       7.748   5.168  12.881  0.00  0.00    +0.000 A 
ATOM     21  C   UNL     1       7.587   5.131  14.266  0.00  0.00    +0.000 A 
ATOM     22  C   UNL     1       6.609   4.327  14.856  0.00  0.00    +0.000 A 
ATOM     23  C   UNL     1       5.812   3.518  14.030  0.00  0.00    +0.000 A 
ATOM     24  C   UNL     1       5.973   3.551  12.643  0.00  0.00    +0.000 A 
ENDBRANCH  18  22
ENDBRANCH   1  18
TORSDOF 3
ENDMDL
MODEL 3
REMARK VINA RESULT:      -7.8      0.505      1.130
REMARK  Name = 
REMARK  3 active torsions:
REMARK  status: ('A' for Active; 'I' for Inactive)
REMARK    1  A    between atoms: C_4  and  C_5
REMARK    2  A    between atoms: C_5  and  C_6
REMARK    3  A    between atoms: C_9  and  N_10
REMARK                            x       y       z     vdW  Elec       q    Type
REMARK                         _______ _______ _______ _____ _____    ______ ____
ROOT
ATOM      1  C   UNL     1       4.947   4.927  16.772  0.00  0.00    +0.000 A 
ATOM      2  C   UNL     1       5.304   6.277  16.836  0.00  0.00    +0.000 A 
ATOM      3  C   UNL     1       4.424   7.218  17.357  0.00  0.00    +0.000 A 
ATOM      4  C   UNL     1       3.171   6.874  17.899  0.00  0.00    +0.000 A 
ATOM      5  C   UNL     1       2.819   5.475  17.892  0.00  0.00    +0.000 A 
ATOM      6  C   UNL     1       1.658   4.941  18.497  0.00  0.00    +0.000 A 
ATOM      7  C   UNL     1       1.406   3.575  18.609  0.00  0.00    +0.000 A 
ATOM      8  C   UNL     1       2.169   2.693  17.879  0.00  0.00    +0.000 A 
ATOM      9  C   UNL     1       3.262   3.172  17.174  0.00  0.00    +0.000 A 
ATOM     10  C   UNL     1       3.681   4.523  17.260  0.00  0.00    +0.000 A 
ENDROOT
BRANCH   4  11
ATOM     11  N   UNL     1       2.430   7.904  18.476  0.00  0.00    +0.000 N 
ATOM     12  C   UNL     1       2.071   9.161  17.827  0.00  0.00    +0.000 C 
ATOM     13  C   UNL     1       0.642   9.601  18.223  0.00  0.00    +0.000 C 
ATOM     14  N   UNL     1       0.404   9.648  19.673  0.00  0.00    +0.000 NA
ATOM     15  C   UNL     1       0.796   8.353  20.272  0.00  0.00    +0.000 C 
ATOM     16  C   UNL     1       2.255   7.952  19.950  0.00  0.00    +0.000 C 
ATOM     17  H   UNL     1      -0.593   9.798  19.831  0.00  0.00    +0.000 HD
ENDBRANCH   4  11
BRANCH   1  18
ATOM     18  C   UNL     1       5.988   3.948  16.251  0.00  0.00    +0.000 C 
BRANCH  18  22
ATOM     19  C   UNL     1       6.923   4.386  12.063  0.00  0.00    +0.000 A 
ATOM     20  C   UNL     1       5.845   3.596  12.455  0.00  0.00    +0.000 A 
ATOM     21  C   UNL     1       5.542   3.467  13.812  0.00  0.00    +0.000 A 
ATOM     22  C   UNL     1       6.312   4.106  14.785  0.00  0.00    +0.000 A 
ATOM     23  C   UNL     1       7.379   4.921  14.375  0.00  0.00    +0.000 A 
ATOM     24  C   UNL     1       7.684   5.054  13.018  0.00  0.00    +0.000 A 
ENDBRANCH  18  22
ENDBRANCH   1  18
TORSDOF 3
ENDMDL
MODEL 4
REMARK VINA RESULT:      -7.8      0.604      1.534
REMARK  Name = 
REMARK  3 active torsions:
REMARK  status: ('A' for Active; 'I' for Inactive)
REMARK    1  A    between atoms: C_4  and  C_5
REMARK    2  A    between atoms: C_5  and  C_6
REMARK    3  A    between atoms: C_9  and  N_10
REMARK                            x       y       z     vdW  Elec       q    Type
REMARK                         _______ _______ _______ _____ _____    ______ ____
ROOT
ATOM      1  C   UNL     1       4.766   4.700  16.663  0.00  0.00    +0.000 A 
ATOM      2  C   UNL     1       5.154   6.043  16.657  0.00  0.00    +0.000 A 
ATOM      3  C   UNL     1       4.339   7.018  17.218  0.00  0.00    +0.000 A 
ATOM      4  C   UNL     1       3.126   6.719  17.867  0.00  0.00    +0.000 A 
ATOM      5  C   UNL     1       2.745   5.329  17.930  0.00  0.00    +0.000 A 
ATOM      6  C   UNL     1       1.625   4.839  18.641  0.00  0.00    +0.000 A 
ATOM      7  C   UNL     1       1.355   3.484  18.814  0.00  0.00    +0.000 A 
ATOM      8  C   UNL     1       2.038   2.563  18.053  0.00  0.00    +0.000 A 
ATOM      9  C   UNL     1       3.082   2.997  17.250  0.00  0.00    +0.000 A 
ATOM     10  C   UNL     1       3.534   4.340  17.262  0.00  0.00    +0.000 A 
ENDROOT
BRANCH   4  11
ATOM     11  N   UNL     1       2.454   7.781  18.469  0.00  0.00    +0.000 N 
ATOM     12  C   UNL     1       2.167   9.069  17.845  0.00  0.00    +0.000 C 
ATOM     13  C   UNL     1       0.771   9.588  18.264  0.00  0.00    +0.000 C 
ATOM     14  N   UNL     1       0.551   9.625  19.718  0.00  0.00    +0.000 NA
ATOM     15  C   UNL     1       0.869   8.298  20.291  0.00  0.00    +0.000 C 
ATOM     16  C   UNL     1       2.298   7.815  19.945  0.00  0.00    +0.000 C 
ATOM     17  H   UNL     1      -0.434   9.832  19.889  0.00  0.00    +0.000 HD
ENDBRANCH   4  11
BRANCH   1  18
ATOM     18  C   UNL     1       5.741   3.682  16.091  0.00  0.00    +0.000 C 
BRANCH  18  22
ATOM     19  C   UNL     1       7.116   4.601  12.107  0.00  0.00    +0.000 A 
ATOM     20  C   UNL     1       7.747   5.173  13.210  0.00  0.00    +0.000 A 
ATOM     21  C   UNL     1       7.303   4.863  14.496  0.00  0.00    +0.000 A 
ATOM     22  C   UNL     1       6.225   3.999  14.697  0.00  0.00    +0.000 A 
ATOM     23  C   UNL     1       5.615   3.408  13.579  0.00  0.00    +0.000 A 
ATOM     24  C   UNL     1       6.058   3.715  12.290  0.00  0.00    +0.000 A 
ENDBRANCH  18  22
ENDBRANCH   1  18
TORSDOF 3
ENDMDL
MODEL 5
REMARK VINA RESULT:      -7.4      2.159      3.887
REMARK  Name = 
REMARK  3 active torsions:
REMARK  status: ('A' for Active; 'I' for Inactive)
REMARK    1  A    between atoms: C_4  and  C_5
REMARK    2  A    between atoms: C_5  and  C_6
REMARK    3  A    between atoms: C_9  and  N_10
REMARK                            x       y       z     vdW  Elec       q    Type
REMARK                         _______ _______ _______ _____ _____    ______ ____
ROOT
ATOM      1  C   UNL     1       5.470   5.208  16.633  0.00  0.00    +0.000 A 
ATOM      2  C   UNL     1       5.556   3.855  16.972  0.00  0.00    +0.000 A 
ATOM      3  C   UNL     1       4.725   3.316  17.947  0.00  0.00    +0.000 A 
ATOM      4  C   UNL     1       3.725   4.064  18.598  0.00  0.00    +0.000 A 
ATOM      5  C   UNL     1       3.591   5.447  18.211  0.00  0.00    +0.000 A 
ATOM      6  C   UNL     1       2.570   6.309  18.674  0.00  0.00    +0.000 A 
ATOM      7  C   UNL     1       2.366   7.596  18.182  0.00  0.00    +0.000 A 
ATOM      8  C   UNL     1       3.341   8.176  17.403  0.00  0.00    +0.000 A 
ATOM      9  C   UNL     1       4.426   7.411  17.003  0.00  0.00    +0.000 A 
ATOM     10  C   UNL     1       4.515   6.025  17.284  0.00  0.00    +0.000 A 
ENDROOT
BRANCH   4  11
ATOM     11  N   UNL     1       2.899   3.375  19.484  0.00  0.00    +0.000 N 
ATOM     12  C   UNL     1       3.328   2.735  20.724  0.00  0.00    +0.000 C 
ATOM     13  C   UNL     1       2.266   2.911  21.834  0.00  0.00    +0.000 C 
ATOM     14  N   UNL     1       0.910   2.495  21.445  0.00  0.00    +0.000 NA
ATOM     15  C   UNL     1       0.539   3.167  20.180  0.00  0.00    +0.000 C 
ATOM     16  C   UNL     1       1.557   2.920  19.042  0.00  0.00    +0.000 C 
ATOM     17  H   UNL     1       0.262   2.786  22.178  0.00  0.00    +0.000 HD
ENDBRANCH   4  11
BRANCH   1  18
ATOM     18  C   UNL     1       6.366   5.711  15.510  0.00  0.00    +0.000 C 
BRANCH  18  22
ATOM     19  C   UNL     1       6.177   3.351  11.904  0.00  0.00    +0.000 A 
ATOM     20  C   UNL     1       5.075   3.411  12.754  0.00  0.00    +0.000 A 
ATOM     21  C   UNL     1       5.140   4.185  13.914  0.00  0.00    +0.000 A 
ATOM     22  C   UNL     1       6.299   4.890  14.245  0.00  0.00    +0.000 A 
ATOM     23  C   UNL     1       7.393   4.843  13.367  0.00  0.00    +0.000 A 
ATOM     24  C   UNL     1       7.330   4.071  12.204  0.00  0.00    +0.000 A 
ENDBRANCH  18  22
ENDBRANCH   1  18
TORSDOF 3
ENDMDL
MODEL 6
REMARK VINA RESULT:      -7.4      2.151      4.002
REMARK  Name = 
REMARK  3 active torsions:
REMARK  status: ('A' for Active; 'I' for Inactive)
REMARK    1  A    between atoms: C_4  and  C_5
REMARK    2  A    between atoms: C_5  and  C_6
REMARK    3  A    between atoms: C_9  and  N_10
REMARK                            x       y       z     vdW  Elec       q    Type
REMARK                         _______ _______ _______ _____ _____    ______ ____
ROOT
ATOM      1  C   UNL     1       5.388   5.242  16.587  0.00  0.00    +0.000 A 
ATOM      2  C   UNL     1       5.471   3.884  16.904  0.00  0.00    +0.000 A 
ATOM      3  C   UNL     1       4.659   3.335  17.890  0.00  0.00    +0.000 A 
ATOM      4  C   UNL     1       3.680   4.081  18.575  0.00  0.00    +0.000 A 
ATOM      5  C   UNL     1       3.547   5.470  18.213  0.00  0.00    +0.000 A 
ATOM      6  C   UNL     1       2.544   6.333  18.713  0.00  0.00    +0.000 A 
ATOM      7  C   UNL     1       2.339   7.629  18.245  0.00  0.00    +0.000 A 
ATOM      8  C   UNL     1       3.300   8.213  17.453  0.00  0.00    +0.000 A 
ATOM      9  C   UNL     1       4.369   7.447  17.016  0.00  0.00    +0.000 A 
ATOM     10  C   UNL     1       4.454   6.056  17.274  0.00  0.00    +0.000 A 
ENDROOT
BRANCH   4  11
ATOM     11  N   UNL     1       2.870   3.384  19.469  0.00  0.00    +0.000 N 
ATOM     12  C   UNL     1       3.320   2.732  20.695  0.00  0.00    +0.000 C 
ATOM     13  C   UNL     1       2.278   2.899  21.826  0.00  0.00    +0.000 C 
ATOM     14  N   UNL     1       0.915   2.487  21.458  0.00  0.00    +0.000 NA
ATOM     15  C   UNL     1       0.522   3.171  20.206  0.00  0.00    +0.000 C 
ATOM     16  C   UNL     1       1.519   2.935  19.047  0.00  0.00    +0.000 C 
ATOM     17  H   UNL     1       0.280   2.772  22.205  0.00  0.00    +0.000 HD
ENDBRANCH   4  11
BRANCH   1  18
ATOM     18  C   UNL     1       6.261   5.755  15.452  0.00  0.00    +0.000 C 
BRANCH  18  22
ATOM     19  C   UNL     1       6.167   3.330  11.887  0.00  0.00    +0.000 A 
ATOM     20  C   UNL     1       7.323   4.032  12.220  0.00  0.00    +0.000 A 
ATOM     21  C   UNL     1       7.350   4.807  13.380  0.00  0.00    +0.000 A 
ATOM     22  C   UNL     1       6.229   4.902  14.208  0.00  0.00    +0.000 A 
ATOM     23  C   UNL     1       5.079   4.169  13.875  0.00  0.00    +0.000 A 
ATOM     24  C   UNL     1       5.050   3.391  12.716  0.00  0.00    +0.000 A 
ENDBRANCH  18  22
ENDBRANCH   1  18
TORSDOF 3
ENDMDL
MODEL 7
REMARK VINA RESULT:      -7.3      1.256      2.002
REMARK  Name = 
REMARK  3 active torsions:
REMARK  status: ('A' for Active; 'I' for Inactive)
REMARK    1  A    between atoms: C_4  and  C_5
REMARK    2  A    between atoms: C_5  and  C_6
REMARK    3  A    between atoms: C_9  and  N_10
REMARK                            x       y       z     vdW  Elec       q    Type
REMARK                         _______ _______ _______ _____ _____    ______ ____
ROOT
ATOM      1  C   UNL     1       3.903   4.664  17.745  0.00  0.00    +0.000 A 
ATOM      2  C   UNL     1       4.171   5.986  17.379  0.00  0.00    +0.000 A 
ATOM      3  C   UNL     1       3.430   7.033  17.914  0.00  0.00    +0.000 A 
ATOM      4  C   UNL     1       2.426   6.841  18.882  0.00  0.00    +0.000 A 
ATOM      5  C   UNL     1       2.182   5.485  19.310  0.00  0.00    +0.000 A 
ATOM      6  C   UNL     1       1.298   5.123  20.352  0.00  0.00    +0.000 A 
ATOM      7  C   UNL     1       1.184   3.827  20.851  0.00  0.00    +0.000 A 
ATOM      8  C   UNL     1       1.746   2.788  20.146  0.00  0.00    +0.000 A 
ATOM      9  C   UNL     1       2.540   3.073  19.045  0.00  0.00    +0.000 A 
ATOM     10  C   UNL     1       2.874   4.401  18.681  0.00  0.00    +0.000 A 
ENDROOT
BRANCH   4  11
ATOM     11  N   UNL     1       1.827   7.985  19.405  0.00  0.00    +0.000 N 
ATOM     12  C   UNL     1       1.591   9.229  18.679  0.00  0.00    +0.000 C 
ATOM     13  C   UNL     1       0.236   9.857  19.082  0.00  0.00    +0.000 C 
ATOM     14  N   UNL     1       0.057  10.029  20.531  0.00  0.00    +0.000 NA
ATOM     15  C   UNL     1       0.320   8.741  21.210  0.00  0.00    +0.000 C 
ATOM     16  C   UNL     1       1.711   8.153  20.876  0.00  0.00    +0.000 C 
ATOM     17  H   UNL     1      -0.911  10.304  20.705  0.00  0.00    +0.000 HD
ENDBRANCH   4  11
BRANCH   1  18
ATOM     18  C   UNL     1       4.800   3.578  17.168  0.00  0.00    +0.000 C 
BRANCH  18  22
ATOM     19  C   UNL     1       7.142   4.808  13.762  0.00  0.00    +0.000 A 
ATOM     20  C   UNL     1       5.915   4.176  13.570  0.00  0.00    +0.000 A 
ATOM     21  C   UNL     1       5.158   3.790  14.677  0.00  0.00    +0.000 A 
ATOM     22  C   UNL     1       5.617   4.014  15.977  0.00  0.00    +0.000 A 
ATOM     23  C   UNL     1       6.842   4.676  16.156  0.00  0.00    +0.000 A 
ATOM     24  C   UNL     1       7.601   5.066  15.050  0.00  0.00    +0.000 A 
ENDBRANCH  18  22
ENDBRANCH   1  18
TORSDOF 3
ENDMDL
MODEL 8
REMARK VINA RESULT:      -7.3      1.291      2.143
REMARK  Name = 
REMARK  3 active torsions:
REMARK  status: ('A' for Active; 'I' for Inactive)
REMARK    1  A    between atoms: C_4  and  C_5
REMARK    2  A    between atoms: C_5  and  C_6
REMARK    3  A    between atoms: C_9  and  N_10
REMARK                            x       y       z     vdW  Elec       q    Type
REMARK                         _______ _______ _______ _____ _____    ______ ____
ROOT
ATOM      1  C   UNL     1       4.256   5.052  17.849  0.00  0.00    +0.000 A 
ATOM      2  C   UNL     1       4.420   6.358  17.378  0.00  0.00    +0.000 A 
ATOM      3  C   UNL     1       3.561   7.371  17.786  0.00  0.00    +0.000 A 
ATOM      4  C   UNL     1       2.532   7.167  18.726  0.00  0.00    +0.000 A 
ATOM      5  C   UNL     1       2.392   5.835  19.262  0.00  0.00    +0.000 A 
ATOM      6  C   UNL     1       1.494   5.480  20.295  0.00  0.00    +0.000 A 
ATOM      7  C   UNL     1       1.474   4.226  20.901  0.00  0.00    +0.000 A 
ATOM      8  C   UNL     1       2.163   3.189  20.316  0.00  0.00    +0.000 A 
ATOM      9  C   UNL     1       2.981   3.454  19.228  0.00  0.00    +0.000 A 
ATOM     10  C   UNL     1       3.210   4.773  18.761  0.00  0.00    +0.000 A 
ENDROOT
BRANCH   4  11
ATOM     11  N   UNL     1       1.806   8.290  19.119  0.00  0.00    +0.000 N 
ATOM     12  C   UNL     1       1.489   9.437  18.274  0.00  0.00    +0.000 C 
ATOM     13  C   UNL     1       0.065   9.964  18.568  0.00  0.00    +0.000 C 
ATOM     14  N   UNL     1      -0.196  10.243  19.988  0.00  0.00    +0.000 NA
ATOM     15  C   UNL     1       0.155   9.050  20.790  0.00  0.00    +0.000 C 
ATOM     16  C   UNL     1       1.608   8.573  20.563  0.00  0.00    +0.000 C 
ATOM     17  H   UNL     1      -1.192  10.438  20.100  0.00  0.00    +0.000 HD
ENDBRANCH   4  11
BRANCH   1  18
ATOM     18  C   UNL     1       5.275   4.012  17.409  0.00  0.00    +0.000 C 
BRANCH  18  22
ATOM     19  C   UNL     1       6.839   4.640  13.438  0.00  0.00    +0.000 A 
ATOM     20  C   UNL     1       7.556   5.084  14.546  0.00  0.00    +0.000 A 
ATOM     21  C   UNL     1       7.049   4.868  15.829  0.00  0.00    +0.000 A 
ATOM     22  C   UNL     1       5.824   4.226  16.019  0.00  0.00    +0.000 A 
ATOM     23  C   UNL     1       5.124   3.760  14.896  0.00  0.00    +0.000 A 
ATOM     24  C   UNL     1       5.629   3.973  13.611  0.00  0.00    +0.000 A 
ENDBRANCH  18  22
ENDBRANCH   1  18
TORSDOF 3
ENDMDL
MODEL 9
REMARK VINA RESULT:      -7.2      1.376      1.643
REMARK  Name = 
REMARK  3 active torsions:
REMARK  status: ('A' for Active; 'I' for Inactive)
REMARK    1  A    between atoms: C_4  and  C_5
REMARK    2  A    between atoms: C_5  and  C_6
REMARK    3  A    between atoms: C_9  and  N_10
REMARK                            x       y       z     vdW  Elec       q    Type
REMARK                         _______ _______ _______ _____ _____    ______ ____
ROOT
ATOM      1  C   UNL     1       4.541   5.342  17.987  0.00  0.00    +0.000 A 
ATOM      2  C   UNL     1       4.551   6.630  17.444  0.00  0.00    +0.000 A 
ATOM      3  C   UNL     1       3.595   7.565  17.820  0.00  0.00    +0.000 A 
ATOM      4  C   UNL     1       2.613   7.304  18.795  0.00  0.00    +0.000 A 
ATOM      5  C   UNL     1       2.632   5.996  19.404  0.00  0.00    +0.000 A 
ATOM      6  C   UNL     1       1.799   5.604  20.478  0.00  0.00    +0.000 A 
ATOM      7  C   UNL     1       1.928   4.391  21.150  0.00  0.00    +0.000 A 
ATOM      8  C   UNL     1       2.715   3.404  20.603  0.00  0.00    +0.000 A 
ATOM      9  C   UNL     1       3.477   3.695  19.482  0.00  0.00    +0.000 A 
ATOM     10  C   UNL     1       3.551   5.003  18.940  0.00  0.00    +0.000 A 
ENDROOT
BRANCH   4  11
ATOM     11  N   UNL     1       1.778   8.361  19.147  0.00  0.00    +0.000 N 
ATOM     12  C   UNL     1       1.080   8.507  20.421  0.00  0.00    +0.000 C 
ATOM     13  C   UNL     1       1.061   9.985  20.877  0.00  0.00    +0.000 C 
ATOM     14  N   UNL     1       0.550  10.923  19.865  0.00  0.00    +0.000 NA
ATOM     15  C   UNL     1       1.287  10.718  18.598  0.00  0.00    +0.000 C 
ATOM     16  C   UNL     1       1.235   9.257  18.095  0.00  0.00    +0.000 C 
ATOM     17  H   UNL     1       0.716  11.874  20.195  0.00  0.00    +0.000 HD
ENDBRANCH   4  11
BRANCH   1  18
ATOM     18  C   UNL     1       5.659   4.396  17.577  0.00  0.00    +0.000 C 
BRANCH  18  22
ATOM     19  C   UNL     1       6.604   4.457  13.369  0.00  0.00    +0.000 A 
ATOM     20  C   UNL     1       5.408   3.893  13.804  0.00  0.00    +0.000 A 
ATOM     21  C   UNL     1       5.104   3.886  15.166  0.00  0.00    +0.000 A 
ATOM     22  C   UNL     1       5.988   4.422  16.104  0.00  0.00    +0.000 A 
ATOM     23  C   UNL     1       7.179   5.012  15.649  0.00  0.00    +0.000 A 
ATOM     24  C   UNL     1       7.485   5.023  14.287  0.00  0.00    +0.000 A 
ENDBRANCH  18  22
ENDBRANCH   1  18
TORSDOF 3
ENDMDL
