MODEL 1
REMARK VINA RESULT:      -8.2      0.000      0.000
REMARK  Name = 
REMARK  5 active torsions:
REMARK  status: ('A' for Active; 'I' for Inactive)
REMARK    1  A    between atoms: C_1  and  C_2
REMARK    2  A    between atoms: C_4  and  C_5
REMARK    3  A    between atoms: C_7  and  C_8
REMARK    4  A    between atoms: C_8  and  C_10
REMARK    5  A    between atoms: C_10  and  C_11
REMARK                            x       y       z     vdW  Elec       q    Type
REMARK                         _______ _______ _______ _____ _____    ______ ____
ROOT
ATOM      1  C   UNL     1       2.873   3.568  17.175  0.00  0.00    +0.000 C 
ATOM      2  O   UNL     1       2.433   3.035  16.152  0.00  0.00    +0.000 OA
ENDROOT
BRANCH   1   9
ATOM      3  C   UNL     1       1.657   2.569  21.884  0.00  0.00    +0.000 C 
ATOM      4  C   UNL     1       1.315   3.545  20.760  0.00  0.00    +0.000 C 
ATOM      5  C   UNL     1       1.862   4.934  21.090  0.00  0.00    +0.000 C 
ATOM      6  C   UNL     1       1.577   5.930  19.965  0.00  0.00    +0.000 C 
ATOM      7  C   UNL     1       2.102   7.318  20.339  0.00  0.00    +0.000 C 
ATOM      8  C   UNL     1       2.233   5.467  18.663  0.00  0.00    +0.000 C 
ATOM      9  C   UNL     1       1.911   4.019  18.271  0.00  0.00    +0.000 C 
ATOM     10  C   UNL     1       1.884   3.053  19.437  0.00  0.00    +0.000 C 
ATOM     11  O   UNL     1       2.187   1.869  19.275  0.00  0.00    +0.000 OA
ENDBRANCH   1   9
BRANCH   1  12
ATOM     12  C   UNL     1       4.373   3.827  17.374  0.00  0.00    +0.000 C 
BRANCH  12  13
ATOM     13  C   UNL     1       4.839   5.189  16.814  0.00  0.00    +0.000 C 
ATOM     14  C   UNL     1       6.048   5.759  17.553  0.00  0.00    +0.000 C 
ATOM     15  C   UNL     1       7.258   4.915  17.260  0.00  0.00    +0.000 C 
ATOM     16  O   UNL     1       7.908   4.342  18.126  0.00  0.00    +0.000 OA
ATOM     17  N   UNL     1       7.530   4.769  15.928  0.00  0.00    +0.000 N 
ATOM     18  C   UNL     1       6.549   4.584  14.994  0.00  0.00    +0.000 C 
ATOM     19  O   UNL     1       6.803   4.020  13.931  0.00  0.00    +0.000 OA
ATOM     20  C   UNL     1       5.163   5.118  15.316  0.00  0.00    +0.000 C 
ATOM     21  H   UNL     1       8.378   4.260  15.720  0.00  0.00    +0.000 HD
ENDBRANCH  12  13
ENDBRANCH   1  12
TORSDOF 3
ENDMDL
MODEL 2
REMARK VINA RESULT:      -7.8      1.329      1.462
REMARK  Name = 
REMARK  5 active torsions:
REMARK  status: ('A' for Active; 'I' for Inactive)
REMARK    1  A    between atoms: C_1  and  C_2
REMARK    2  A    between atoms: C_4  and  C_5
REMARK    3  A    between atoms: C_7  and  C_8
REMARK    4  A    between atoms: C_8  and  C_10
REMARK    5  A    between atoms: C_10  and  C_11
REMARK                            x       y       z     vdW  Elec       q    Type
REMARK                         _______ _______ _______ _____ _____    ______ ____
ROOT
ATOM      1  C   UNL     1       4.697   3.948  18.265  0.00  0.00    +0.000 C 
ATOM      2  O   UNL     1       5.587   3.922  19.119  0.00  0.00    +0.000 OA
ENDROOT
BRANCH   1   9
ATOM      3  C   UNL     1       1.320   2.679  21.677  0.00  0.00    +0.000 C 
ATOM      4  C   UNL     1       1.506   3.639  20.502  0.00  0.00    +0.000 C 
ATOM      5  C   UNL     1       1.633   5.073  21.015  0.00  0.00    +0.000 C 
ATOM      6  C   UNL     1       1.865   6.059  19.869  0.00  0.00    +0.000 C 
ATOM      7  C   UNL     1       1.951   7.489  20.408  0.00  0.00    +0.000 C 
ATOM      8  C   UNL     1       3.156   5.714  19.122  0.00  0.00    +0.000 C 
ATOM      9  C   UNL     1       3.258   4.249  18.677  0.00  0.00    +0.000 C 
ATOM     10  C   UNL     1       2.737   3.255  19.693  0.00  0.00    +0.000 C 
ATOM     11  O   UNL     1       3.216   2.121  19.760  0.00  0.00    +0.000 OA
ENDBRANCH   1   9
BRANCH   1  12
ATOM     12  C   UNL     1       4.982   3.654  16.786  0.00  0.00    +0.000 C 
BRANCH  12  13
ATOM     13  C   UNL     1       4.812   4.888  15.872  0.00  0.00    +0.000 C 
ATOM     14  C   UNL     1       5.544   6.123  16.391  0.00  0.00    +0.000 C 
ATOM     15  C   UNL     1       7.028   5.909  16.285  0.00  0.00    +0.000 C 
ATOM     16  O   UNL     1       7.787   5.946  17.247  0.00  0.00    +0.000 OA
ATOM     17  N   UNL     1       7.460   5.583  15.030  0.00  0.00    +0.000 N 
ATOM     18  C   UNL     1       6.769   4.732  14.214  0.00  0.00    +0.000 C 
ATOM     19  O   UNL     1       7.354   4.111  13.327  0.00  0.00    +0.000 OA
ATOM     20  C   UNL     1       5.271   4.608  14.434  0.00  0.00    +0.000 C 
ATOM     21  H   UNL     1       8.463   5.501  14.932  0.00  0.00    +0.000 HD
ENDBRANCH  12  13
ENDBRANCH   1  12
TORSDOF 3
ENDMDL
MODEL 3
REMARK VINA RESULT:      -7.8      1.157      2.349
REMARK  Name = 
REMARK  5 active torsions:
REMARK  status: ('A' for Active; 'I' for Inactive)
REMARK    1  A    between atoms: C_1  and  C_2
REMARK    2  A    between atoms: C_4  and  C_5
REMARK    3  A    between atoms: C_7  and  C_8
REMARK    4  A    between atoms: C_8  and  C_10
REMARK    5  A    between atoms: C_10  and  C_11
REMARK                            x       y       z     vdW  Elec       q    Type
REMARK                         _______ _______ _______ _____ _____    ______ ____
ROOT
ATOM      1  C   UNL     1       3.291   3.672  17.337  0.00  0.00    +0.000 C 
ATOM      2  O   UNL     1       2.218   3.307  16.848  0.00  0.00    +0.000 OA
ENDROOT
BRANCH   1   9
ATOM      3  C   UNL     1       1.627   7.317  20.269  0.00  0.00    +0.000 C 
ATOM      4  C   UNL     1       2.419   6.013  20.344  0.00  0.00    +0.000 C 
ATOM      5  C   UNL     1       1.587   4.936  21.040  0.00  0.00    +0.000 C 
ATOM      6  C   UNL     1       2.331   3.601  21.094  0.00  0.00    +0.000 C 
ATOM      7  C   UNL     1       1.490   2.554  21.828  0.00  0.00    +0.000 C 
ATOM      8  C   UNL     1       2.644   3.107  19.680  0.00  0.00    +0.000 C 
ATOM      9  C   UNL     1       3.344   4.142  18.788  0.00  0.00    +0.000 C 
ATOM     10  C   UNL     1       2.819   5.553  18.949  0.00  0.00    +0.000 C 
ATOM     11  O   UNL     1       2.847   6.342  18.001  0.00  0.00    +0.000 OA
ENDBRANCH   1   9
BRANCH   1  12
ATOM     12  C   UNL     1       4.588   3.701  16.517  0.00  0.00    +0.000 C 
BRANCH  12  13
ATOM     13  C   UNL     1       5.028   5.126  16.116  0.00  0.00    +0.000 C 
ATOM     14  C   UNL     1       6.230   5.629  16.913  0.00  0.00    +0.000 C 
ATOM     15  C   UNL     1       7.453   4.846  16.522  0.00  0.00    +0.000 C 
ATOM     16  O   UNL     1       8.117   4.189  17.316  0.00  0.00    +0.000 OA
ATOM     17  N   UNL     1       7.722   4.858  15.182  0.00  0.00    +0.000 N 
ATOM     18  C   UNL     1       6.741   4.763  14.235  0.00  0.00    +0.000 C 
ATOM     19  O   UNL     1       7.001   4.329  13.114  0.00  0.00    +0.000 OA
ATOM     20  C   UNL     1       5.347   5.232  14.618  0.00  0.00    +0.000 C 
ATOM     21  H   UNL     1       8.578   4.391  14.916  0.00  0.00    +0.000 HD
ENDBRANCH  12  13
ENDBRANCH   1  12
TORSDOF 3
ENDMDL
MODEL 4
REMARK VINA RESULT:      -7.7      1.837      2.691
REMARK  Name = 
REMARK  5 active torsions:
REMARK  status: ('A' for Active; 'I' for Inactive)
REMARK    1  A    between atoms: C_1  and  C_2
REMARK    2  A    between atoms: C_4  and  C_5
REMARK    3  A    between atoms: C_7  and  C_8
REMARK    4  A    between atoms: C_8  and  C_10
REMARK    5  A    between atoms: C_10  and  C_11
REMARK                            x       y       z     vdW  Elec       q    Type
REMARK                         _______ _______ _______ _____ _____    ______ ____
ROOT
ATOM      1  C   UNL     1       3.993   4.784  17.255  0.00  0.00    +0.000 C 
ATOM      2  O   UNL     1       4.082   3.931  16.367  0.00  0.00    +0.000 OA
ENDROOT
BRANCH   1   9
ATOM      3  C   UNL     1       2.375   2.757  21.489  0.00  0.00    +0.000 C 
ATOM      4  C   UNL     1       1.955   3.783  20.438  0.00  0.00    +0.000 C 
ATOM      5  C   UNL     1       2.032   5.192  21.023  0.00  0.00    +0.000 C 
ATOM      6  C   UNL     1       1.661   6.252  19.985  0.00  0.00    +0.000 C 
ATOM      7  C   UNL     1       1.711   7.648  20.610  0.00  0.00    +0.000 C 
ATOM      8  C   UNL     1       2.619   6.189  18.794  0.00  0.00    +0.000 C 
ATOM      9  C   UNL     1       2.782   4.790  18.184  0.00  0.00    +0.000 C 
ATOM     10  C   UNL     1       2.842   3.673  19.205  0.00  0.00    +0.000 C 
ATOM     11  O   UNL     1       3.487   2.648  18.973  0.00  0.00    +0.000 OA
ENDBRANCH   1   9
BRANCH   1  12
ATOM     12  C   UNL     1       5.056   5.874  17.441  0.00  0.00    +0.000 C 
BRANCH  12  13
ATOM     13  C   UNL     1       6.487   5.398  17.107  0.00  0.00    +0.000 C 
ATOM     14  C   UNL     1       7.391   6.522  16.604  0.00  0.00    +0.000 C 
ATOM     15  C   UNL     1       7.677   7.477  17.729  0.00  0.00    +0.000 C 
ATOM     16  O   UNL     1       7.393   8.668  17.694  0.00  0.00    +0.000 OA
ATOM     17  N   UNL     1       8.211   6.889  18.842  0.00  0.00    +0.000 N 
ATOM     18  C   UNL     1       7.785   5.676  19.307  0.00  0.00    +0.000 C 
ATOM     19  O   UNL     1       7.926   5.383  20.493  0.00  0.00    +0.000 OA
ATOM     20  C   UNL     1       7.164   4.718  18.305  0.00  0.00    +0.000 C 
ATOM     21  H   UNL     1       8.469   7.529  19.580  0.00  0.00    +0.000 HD
ENDBRANCH  12  13
ENDBRANCH   1  12
TORSDOF 3
ENDMDL
MODEL 5
REMARK VINA RESULT:      -7.7      2.688      5.836
REMARK  Name = 
REMARK  5 active torsions:
REMARK  status: ('A' for Active; 'I' for Inactive)
REMARK    1  A    between atoms: C_1  and  C_2
REMARK    2  A    between atoms: C_4  and  C_5
REMARK    3  A    between atoms: C_7  and  C_8
REMARK    4  A    between atoms: C_8  and  C_10
REMARK    5  A    between atoms: C_10  and  C_11
REMARK                            x       y       z     vdW  Elec       q    Type
REMARK                         _______ _______ _______ _____ _____    ______ ____
ROOT
ATOM      1  C   UNL     1       3.501   6.217  17.848  0.00  0.00    +0.000 C 
ATOM      2  O   UNL     1       3.028   7.267  18.293  0.00  0.00    +0.000 OA
ENDROOT
BRANCH   1   9
ATOM      3  C   UNL     1       8.179   4.684  18.494  0.00  0.00    +0.000 C 
ATOM      4  C   UNL     1       7.297   5.371  17.453  0.00  0.00    +0.000 C 
ATOM      5  C   UNL     1       7.043   4.427  16.279  0.00  0.00    +0.000 C 
ATOM      6  C   UNL     1       6.125   5.065  15.234  0.00  0.00    +0.000 C 
ATOM      7  C   UNL     1       5.919   4.112  14.055  0.00  0.00    +0.000 C 
ATOM      8  C   UNL     1       4.771   5.412  15.856  0.00  0.00    +0.000 C 
ATOM      9  C   UNL     1       4.859   6.231  17.151  0.00  0.00    +0.000 C 
ATOM     10  C   UNL     1       5.979   5.806  18.078  0.00  0.00    +0.000 C 
ATOM     11  O   UNL     1       5.865   5.941  19.298  0.00  0.00    +0.000 OA
ENDBRANCH   1   9
BRANCH   1  12
ATOM     12  C   UNL     1       2.747   4.884  17.944  0.00  0.00    +0.000 C 
BRANCH  12  13
ATOM     13  C   UNL     1       2.879   4.203  19.324  0.00  0.00    +0.000 C 
ATOM     14  C   UNL     1       1.549   3.679  19.862  0.00  0.00    +0.000 C 
ATOM     15  C   UNL     1       1.095   2.514  19.027  0.00  0.00    +0.000 C 
ATOM     16  O   UNL     1       0.030   2.492  18.420  0.00  0.00    +0.000 OA
ATOM     17  N   UNL     1       2.009   1.503  18.929  0.00  0.00    +0.000 N 
ATOM     18  C   UNL     1       3.348   1.736  18.781  0.00  0.00    +0.000 C 
ATOM     19  O   UNL     1       4.071   0.891  18.256  0.00  0.00    +0.000 OA
ATOM     20  C   UNL     1       3.895   3.053  19.306  0.00  0.00    +0.000 C 
ATOM     21  H   UNL     1       1.690   0.687  18.425  0.00  0.00    +0.000 HD
ENDBRANCH  12  13
ENDBRANCH   1  12
TORSDOF 3
ENDMDL
MODEL 6
REMARK VINA RESULT:      -7.6      2.432      6.102
REMARK  Name = 
REMARK  5 active torsions:
REMARK  status: ('A' for Active; 'I' for Inactive)
REMARK    1  A    between atoms: C_1  and  C_2
REMARK    2  A    between atoms: C_4  and  C_5
REMARK    3  A    between atoms: C_7  and  C_8
REMARK    4  A    between atoms: C_8  and  C_10
REMARK    5  A    between atoms: C_10  and  C_11
REMARK                            x       y       z     vdW  Elec       q    Type
REMARK                         _______ _______ _______ _____ _____    ______ ____
ROOT
ATOM      1  C   UNL     1       3.633   5.807  18.348  0.00  0.00    +0.000 C 
ATOM      2  O   UNL     1       2.992   6.527  17.576  0.00  0.00    +0.000 OA
ENDROOT
BRANCH   1   9
ATOM      3  C   UNL     1       6.544   4.179  14.670  0.00  0.00    +0.000 C 
ATOM      4  C   UNL     1       6.635   4.695  16.105  0.00  0.00    +0.000 C 
ATOM      5  C   UNL     1       7.262   6.089  16.120  0.00  0.00    +0.000 C 
ATOM      6  C   UNL     1       7.329   6.658  17.538  0.00  0.00    +0.000 C 
ATOM      7  C   UNL     1       7.994   8.037  17.526  0.00  0.00    +0.000 C 
ATOM      8  C   UNL     1       5.925   6.771  18.134  0.00  0.00    +0.000 C 
ATOM      9  C   UNL     1       5.094   5.483  18.049  0.00  0.00    +0.000 C 
ATOM     10  C   UNL     1       5.255   4.728  16.746  0.00  0.00    +0.000 C 
ATOM     11  O   UNL     1       4.327   4.051  16.298  0.00  0.00    +0.000 OA
ENDBRANCH   1   9
BRANCH   1  12
ATOM     12  C   UNL     1       2.994   5.190  19.599  0.00  0.00    +0.000 C 
BRANCH  12  13
ATOM     13  C   UNL     1       1.601   4.575  19.337  0.00  0.00    +0.000 C 
ATOM     14  C   UNL     1       1.632   3.433  18.325  0.00  0.00    +0.000 C 
ATOM     15  C   UNL     1       2.343   2.251  18.924  0.00  0.00    +0.000 C 
ATOM     16  O   UNL     1       3.348   1.748  18.436  0.00  0.00    +0.000 OA
ATOM     17  N   UNL     1       1.822   1.828  20.115  0.00  0.00    +0.000 N 
ATOM     18  C   UNL     1       1.391   2.697  21.078  0.00  0.00    +0.000 C 
ATOM     19  O   UNL     1       1.361   2.351  22.258  0.00  0.00    +0.000 OA
ATOM     20  C   UNL     1       0.938   4.076  20.628  0.00  0.00    +0.000 C 
ATOM     21  H   UNL     1       2.250   0.994  20.495  0.00  0.00    +0.000 HD
ENDBRANCH  12  13
ENDBRANCH   1  12
TORSDOF 3
ENDMDL
MODEL 7
REMARK VINA RESULT:      -7.6      0.956      1.995
REMARK  Name = 
REMARK  5 active torsions:
REMARK  status: ('A' for Active; 'I' for Inactive)
REMARK    1  A    between atoms: C_1  and  C_2
REMARK    2  A    between atoms: C_4  and  C_5
REMARK    3  A    between atoms: C_7  and  C_8
REMARK    4  A    between atoms: C_8  and  C_10
REMARK    5  A    between atoms: C_10  and  C_11
REMARK                            x       y       z     vdW  Elec       q    Type
REMARK                         _______ _______ _______ _____ _____    ______ ____
ROOT
ATOM      1  C   UNL     1       2.891   3.958  17.154  0.00  0.00    +0.000 C 
ATOM      2  O   UNL     1       2.648   3.020  16.389  0.00  0.00    +0.000 OA
ENDROOT
BRANCH   1   9
ATOM      3  C   UNL     1       1.783   2.576  21.792  0.00  0.00    +0.000 C 
ATOM      4  C   UNL     1       1.381   3.611  20.743  0.00  0.00    +0.000 C 
ATOM      5  C   UNL     1       1.867   4.998  21.164  0.00  0.00    +0.000 C 
ATOM      6  C   UNL     1       1.521   6.056  20.115  0.00  0.00    +0.000 C 
ATOM      7  C   UNL     1       1.986   7.437  20.580  0.00  0.00    +0.000 C 
ATOM      8  C   UNL     1       2.182   5.716  18.777  0.00  0.00    +0.000 C 
ATOM      9  C   UNL     1       1.923   4.285  18.288  0.00  0.00    +0.000 C 
ATOM     10  C   UNL     1       1.956   3.240  19.383  0.00  0.00    +0.000 C 
ATOM     11  O   UNL     1       2.312   2.086  19.135  0.00  0.00    +0.000 OA
ENDBRANCH   1   9
BRANCH   1  12
ATOM     12  C   UNL     1       4.135   4.841  16.984  0.00  0.00    +0.000 C 
BRANCH  12  13
ATOM     13  C   UNL     1       5.461   4.085  17.219  0.00  0.00    +0.000 C 
ATOM     14  C   UNL     1       6.223   3.796  15.928  0.00  0.00    +0.000 C 
ATOM     15  C   UNL     1       6.743   5.084  15.353  0.00  0.00    +0.000 C 
ATOM     16  O   UNL     1       6.449   5.494  14.236  0.00  0.00    +0.000 OA
ATOM     17  N   UNL     1       7.512   5.813  16.216  0.00  0.00    +0.000 N 
ATOM     18  C   UNL     1       7.209   5.940  17.543  0.00  0.00    +0.000 C 
ATOM     19  O   UNL     1       7.609   6.913  18.181  0.00  0.00    +0.000 OA
ATOM     20  C   UNL     1       6.389   4.834  18.185  0.00  0.00    +0.000 C 
ATOM     21  H   UNL     1       7.922   6.648  15.821  0.00  0.00    +0.000 HD
ENDBRANCH  12  13
ENDBRANCH   1  12
TORSDOF 3
ENDMDL
MODEL 8
REMARK VINA RESULT:      -7.6      1.093      1.590
REMARK  Name = 
REMARK  5 active torsions:
REMARK  status: ('A' for Active; 'I' for Inactive)
REMARK    1  A    between atoms: C_1  and  C_2
REMARK    2  A    between atoms: C_4  and  C_5
REMARK    3  A    between atoms: C_7  and  C_8
REMARK    4  A    between atoms: C_8  and  C_10
REMARK    5  A    between atoms: C_10  and  C_11
REMARK                            x       y       z     vdW  Elec       q    Type
REMARK                         _______ _______ _______ _____ _____    ______ ____
ROOT
ATOM      1  C   UNL     1       2.782   3.474  17.152  0.00  0.00    +0.000 C 
ATOM      2  O   UNL     1       2.326   2.946  16.134  0.00  0.00    +0.000 OA
ENDROOT
BRANCH   1   9
ATOM      3  C   UNL     1       1.509   2.597  21.871  0.00  0.00    +0.000 C 
ATOM      4  C   UNL     1       1.209   3.568  20.730  0.00  0.00    +0.000 C 
ATOM      5  C   UNL     1       1.808   4.939  21.040  0.00  0.00    +0.000 C 
ATOM      6  C   UNL     1       1.566   5.928  19.899  0.00  0.00    +0.000 C 
ATOM      7  C   UNL     1       2.144   7.300  20.254  0.00  0.00    +0.000 C 
ATOM      8  C   UNL     1       2.210   5.419  18.607  0.00  0.00    +0.000 C 
ATOM      9  C   UNL     1       1.833   3.978  18.237  0.00  0.00    +0.000 C 
ATOM     10  C   UNL     1       1.764   3.033  19.417  0.00  0.00    +0.000 C 
ATOM     11  O   UNL     1       2.022   1.836  19.275  0.00  0.00    +0.000 OA
ENDBRANCH   1   9
BRANCH   1  12
ATOM     12  C   UNL     1       4.290   3.673  17.356  0.00  0.00    +0.000 C 
BRANCH  12  13
ATOM     13  C   UNL     1       5.013   4.209  16.101  0.00  0.00    +0.000 C 
ATOM     14  C   UNL     1       4.932   5.728  15.966  0.00  0.00    +0.000 C 
ATOM     15  C   UNL     1       5.754   6.372  17.048  0.00  0.00    +0.000 C 
ATOM     16  O   UNL     1       5.291   7.145  17.878  0.00  0.00    +0.000 OA
ATOM     17  N   UNL     1       7.056   5.958  17.086  0.00  0.00    +0.000 N 
ATOM     18  C   UNL     1       7.418   4.655  16.887  0.00  0.00    +0.000 C 
ATOM     19  O   UNL     1       8.472   4.226  17.354  0.00  0.00    +0.000 OA
ATOM     20  C   UNL     1       6.487   3.785  16.059  0.00  0.00    +0.000 C 
ATOM     21  H   UNL     1       7.635   6.432  17.766  0.00  0.00    +0.000 HD
ENDBRANCH  12  13
ENDBRANCH   1  12
TORSDOF 3
ENDMDL
MODEL 9
REMARK VINA RESULT:      -7.5      2.703      5.997
REMARK  Name = 
REMARK  5 active torsions:
REMARK  status: ('A' for Active; 'I' for Inactive)
REMARK    1  A    between atoms: C_1  and  C_2
REMARK    2  A    between atoms: C_4  and  C_5
REMARK    3  A    between atoms: C_7  and  C_8
REMARK    4  A    between atoms: C_8  and  C_10
REMARK    5  A    between atoms: C_10  and  C_11
REMARK                            x       y       z     vdW  Elec       q    Type
REMARK                         _______ _______ _______ _____ _____    ______ ____
ROOT
ATOM      1  C   UNL     1       4.292   3.355  18.634  0.00  0.00    +0.000 C 
ATOM      2  O   UNL     1       4.888   3.219  19.706  0.00  0.00    +0.000 OA
ENDROOT
BRANCH   1   9
ATOM      3  C   UNL     1       7.742   6.878  18.058  0.00  0.00    +0.000 C 
ATOM      4  C   UNL     1       6.536   6.280  17.335  0.00  0.00    +0.000 C 
ATOM      5  C   UNL     1       7.000   5.485  16.115  0.00  0.00    +0.000 C 
ATOM      6  C   UNL     1       5.821   4.833  15.390  0.00  0.00    +0.000 C 
ATOM      7  C   UNL     1       6.312   4.075  14.154  0.00  0.00    +0.000 C 
ATOM      8  C   UNL     1       5.088   3.868  16.325  0.00  0.00    +0.000 C 
ATOM      9  C   UNL     1       4.692   4.475  17.678  0.00  0.00    +0.000 C 
ATOM     10  C   UNL     1       5.741   5.388  18.278  0.00  0.00    +0.000 C 
ATOM     11  O   UNL     1       5.847   5.499  19.501  0.00  0.00    +0.000 OA
ENDBRANCH   1   9
BRANCH   1  12
ATOM     12  C   UNL     1       3.124   2.443  18.235  0.00  0.00    +0.000 C 
BRANCH  12  13
ATOM     13  C   UNL     1       1.765   3.175  18.183  0.00  0.00    +0.000 C 
ATOM     14  C   UNL     1       0.779   2.683  19.241  0.00  0.00    +0.000 C 
ATOM     15  C   UNL     1       1.259   3.097  20.605  0.00  0.00    +0.000 C 
ATOM     16  O   UNL     1       1.505   2.302  21.505  0.00  0.00    +0.000 OA
ATOM     17  N   UNL     1       1.482   4.439  20.738  0.00  0.00    +0.000 N 
ATOM     18  C   UNL     1       2.061   5.188  19.752  0.00  0.00    +0.000 C 
ATOM     19  O   UNL     1       2.651   6.231  20.031  0.00  0.00    +0.000 OA
ATOM     20  C   UNL     1       1.922   4.695  18.321  0.00  0.00    +0.000 C 
ATOM     21  H   UNL     1       1.741   4.738  21.668  0.00  0.00    +0.000 HD
ENDBRANCH  12  13
ENDBRANCH   1  12
TORSDOF 3
ENDMDL
