MODEL 1
REMARK VINA RESULT:      -8.4      0.000      0.000
REMARK  Name = 
REMARK  13 active torsions:
REMARK  status: ('A' for Active; 'I' for Inactive)
REMARK    1  A    between atoms: C_1  and  C_2
REMARK    2  A    between atoms: C_4  and  C_5
REMARK    3  A    between atoms: N_8  and  C_9
REMARK    4  A    between atoms: C_10  and  C_11
REMARK    5  A    between atoms: C_11  and  O_12
REMARK    6  A    between atoms: O_12  and  C_13
REMARK    7  A    between atoms: N_15  and  C_16
REMARK    8  A    between atoms: N_15  and  C_17
REMARK    9  A    between atoms: C_17  and  C_18
REMARK   10  A    between atoms: C_25  and  O_26
REMARK   11  A    between atoms: O_26  and  C_27
REMARK   12  A    between atoms: C_31  and  C_32
REMARK   13  A    between atoms: C_32  and  O_34
REMARK                            x       y       z     vdW  Elec       q    Type
REMARK                         _______ _______ _______ _____ _____    ______ ____
ROOT
ATOM      1  C   UNL     1       2.257   4.655  20.350  0.00  0.00    +0.000 C 
ATOM      2  C   UNL     1       2.241   6.008  19.705  0.00  0.00    +0.000 A 
ATOM      3  N   UNL     1       1.733   7.016  20.453  0.00  0.00    +0.000 NA
ATOM      4  C   UNL     1       1.622   8.244  19.893  0.00  0.00    +0.000 A 
ATOM      5  C   UNL     1       2.003   8.496  18.583  0.00  0.00    +0.000 A 
ATOM      6  C   UNL     1       2.543   7.458  17.830  0.00  0.00    +0.000 A 
ATOM      7  C   UNL     1       2.708   6.200  18.405  0.00  0.00    +0.000 A 
ENDROOT
BRANCH   4   8
ATOM      8  C   UNL     1       1.041   9.295  20.708  0.00  0.00    +0.000 A 
ATOM      9  N   UNL     1       0.921   9.202  22.074  0.00  0.00    +0.000 NA
ATOM     10  N   UNL     1       0.430  10.345  22.525  0.00  0.00    +0.000 NA
ATOM     11  N   UNL     1       0.252  11.157  21.468  0.00  0.00    +0.000 N 
ATOM     12  C   UNL     1      -0.238  12.492  21.685  0.00  0.00    +0.000 C 
ATOM     13  C   UNL     1       0.600  10.543  20.292  0.00  0.00    +0.000 A 
BRANCH  13  14
ATOM     14  C   UNL     1       0.534  11.191  18.951  0.00  0.00    +0.000 C 
BRANCH  14  15
ATOM     15  O   UNL     1      -0.652  10.735  18.289  0.00  0.00    +0.000 OA
BRANCH  15  16
ATOM     16  C   UNL     1      -1.712  11.577  18.324  0.00  0.00    +0.000 C 
ATOM     17  O   UNL     1      -1.605  12.783  18.522  0.00  0.00    +0.000 OA
ATOM     18  N   UNL     1      -2.901  10.938  18.002  0.00  0.00    +0.000 N 
ATOM     19  C   UNL     1      -2.968   9.500  17.796  0.00  0.00    +0.000 C 
BRANCH  18  20
ATOM     20  C   UNL     1      -4.000  11.750  17.482  0.00  0.00    +0.000 C 
BRANCH  20  21
ATOM     21  C   UNL     1      -5.310  11.596  18.277  0.00  0.00    +0.000 C 
ATOM     22  C   UNL     1      -5.263  12.309  19.628  0.00  0.00    +0.000 C 
ATOM     23  C   UNL     1      -6.725  12.448  20.033  0.00  0.00    +0.000 C 
ATOM     24  C   UNL     1      -7.509  12.566  18.732  0.00  0.00    +0.000 C 
ATOM     25  C   UNL     1      -6.533  12.228  17.612  0.00  0.00    +0.000 C 
ENDBRANCH  20  21
ENDBRANCH  18  20
ENDBRANCH  15  16
ENDBRANCH  14  15
ENDBRANCH  13  14
ENDBRANCH   4   8
BRANCH   7  26
ATOM     26  O   UNL     1       3.312   5.138  17.790  0.00  0.00    +0.000 OA
BRANCH  26  27
ATOM     27  C   UNL     1       4.650   5.349  17.314  0.00  0.00    +0.000 C 
ATOM     28  C   UNL     1       5.594   5.777  18.450  0.00  0.00    +0.000 C 
ATOM     29  C   UNL     1       7.027   5.899  17.957  0.00  0.00    +0.000 C 
ATOM     30  C   UNL     1       7.515   4.578  17.373  0.00  0.00    +0.000 C 
ATOM     31  C   UNL     1       6.600   4.056  16.257  0.00  0.00    +0.000 C 
ATOM     32  C   UNL     1       5.134   4.015  16.719  0.00  0.00    +0.000 C 
BRANCH  31  33
ATOM     33  C   UNL     1       6.758   4.864  14.974  0.00  0.00    +0.000 C 
ATOM     34  O   UNL     1       7.681   5.626  14.737  0.00  0.00    +0.000 OA
BRANCH  33  35
ATOM     35  O   UNL     1       5.747   4.681  14.095  0.00  0.00    +0.000 OA
ATOM     36  H   UNL     1       5.176   3.913  14.285  0.00  0.00    +0.000 HD
ENDBRANCH  33  35
ENDBRANCH  31  33
ENDBRANCH  26  27
ENDBRANCH   7  26
TORSDOF 10
ENDMDL
MODEL 2
REMARK VINA RESULT:      -7.9      3.402     10.041
REMARK  Name = 
REMARK  13 active torsions:
REMARK  status: ('A' for Active; 'I' for Inactive)
REMARK    1  A    between atoms: C_1  and  C_2
REMARK    2  A    between atoms: C_4  and  C_5
REMARK    3  A    between atoms: N_8  and  C_9
REMARK    4  A    between atoms: C_10  and  C_11
REMARK    5  A    between atoms: C_11  and  O_12
REMARK    6  A    between atoms: O_12  and  C_13
REMARK    7  A    between atoms: N_15  and  C_16
REMARK    8  A    between atoms: N_15  and  C_17
REMARK    9  A    between atoms: C_17  and  C_18
REMARK   10  A    between atoms: C_25  and  O_26
REMARK   11  A    between atoms: O_26  and  C_27
REMARK   12  A    between atoms: C_31  and  C_32
REMARK   13  A    between atoms: C_32  and  O_34
REMARK                            x       y       z     vdW  Elec       q    Type
REMARK                         _______ _______ _______ _____ _____    ______ ____
ROOT
ATOM      1  C   UNL     1       0.978   8.307  22.015  0.00  0.00    +0.000 C 
ATOM      2  C   UNL     1       1.345   8.181  20.568  0.00  0.00    +0.000 A 
ATOM      3  N   UNL     1       1.600   6.925  20.127  0.00  0.00    +0.000 NA
ATOM      4  C   UNL     1       2.013   6.761  18.848  0.00  0.00    +0.000 A 
ATOM      5  C   UNL     1       2.188   7.832  17.984  0.00  0.00    +0.000 A 
ATOM      6  C   UNL     1       1.903   9.116  18.440  0.00  0.00    +0.000 A 
ATOM      7  C   UNL     1       1.433   9.299  19.739  0.00  0.00    +0.000 A 
ENDROOT
BRANCH   4   8
ATOM      8  C   UNL     1       2.313   5.408  18.416  0.00  0.00    +0.000 A 
ATOM      9  N   UNL     1       1.465   4.669  17.626  0.00  0.00    +0.000 NA
ATOM     10  N   UNL     1       2.057   3.520  17.345  0.00  0.00    +0.000 NA
ATOM     11  N   UNL     1       3.266   3.531  17.935  0.00  0.00    +0.000 N 
ATOM     12  C   UNL     1       4.143   2.404  17.752  0.00  0.00    +0.000 C 
ATOM     13  C   UNL     1       3.476   4.686  18.642  0.00  0.00    +0.000 A 
BRANCH  13  14
ATOM     14  C   UNL     1       4.729   5.003  19.386  0.00  0.00    +0.000 C 
BRANCH  14  15
ATOM     15  O   UNL     1       5.491   5.933  18.608  0.00  0.00    +0.000 OA
BRANCH  15  16
ATOM     16  C   UNL     1       6.536   5.415  17.920  0.00  0.00    +0.000 C 
ATOM     17  O   UNL     1       7.435   4.770  18.451  0.00  0.00    +0.000 OA
ATOM     18  N   UNL     1       6.410   5.602  16.551  0.00  0.00    +0.000 N 
ATOM     19  C   UNL     1       5.331   6.394  15.981  0.00  0.00    +0.000 C 
BRANCH  18  20
ATOM     20  C   UNL     1       7.122   4.686  15.662  0.00  0.00    +0.000 C 
BRANCH  20  21
ATOM     21  C   UNL     1       6.661   4.767  14.195  0.00  0.00    +0.000 C 
ATOM     22  C   UNL     1       7.806   5.096  13.238  0.00  0.00    +0.000 C 
ATOM     23  C   UNL     1       7.285   4.679  11.869  0.00  0.00    +0.000 C 
ATOM     24  C   UNL     1       6.337   3.513  12.120  0.00  0.00    +0.000 C 
ATOM     25  C   UNL     1       6.122   3.453  13.627  0.00  0.00    +0.000 C 
ENDBRANCH  20  21
ENDBRANCH  18  20
ENDBRANCH  15  16
ENDBRANCH  14  15
ENDBRANCH  13  14
ENDBRANCH   4   8
BRANCH   7  26
ATOM     26  O   UNL     1       1.034  10.500  20.258  0.00  0.00    +0.000 OA
BRANCH  26  27
ATOM     27  C   UNL     1       1.084  11.629  19.373  0.00  0.00    +0.000 C 
ATOM     28  C   UNL     1      -0.323  12.075  18.943  0.00  0.00    +0.000 C 
ATOM     29  C   UNL     1      -0.265  13.332  18.088  0.00  0.00    +0.000 C 
ATOM     30  C   UNL     1       0.411  14.470  18.843  0.00  0.00    +0.000 C 
ATOM     31  C   UNL     1       1.811  14.092  19.349  0.00  0.00    +0.000 C 
ATOM     32  C   UNL     1       1.774  12.772  20.138  0.00  0.00    +0.000 C 
BRANCH  31  33
ATOM     33  C   UNL     1       2.824  14.033  18.210  0.00  0.00    +0.000 C 
ATOM     34  O   UNL     1       3.919  14.571  18.221  0.00  0.00    +0.000 OA
BRANCH  33  35
ATOM     35  O   UNL     1       2.390  13.330  17.140  0.00  0.00    +0.000 OA
ATOM     36  H   UNL     1       3.090  12.861  16.650  0.00  0.00    +0.000 HD
ENDBRANCH  33  35
ENDBRANCH  31  33
ENDBRANCH  26  27
ENDBRANCH   7  26
TORSDOF 10
ENDMDL
MODEL 3
REMARK VINA RESULT:      -7.8      1.039      1.254
REMARK  Name = 
REMARK  13 active torsions:
REMARK  status: ('A' for Active; 'I' for Inactive)
REMARK    1  A    between atoms: C_1  and  C_2
REMARK    2  A    between atoms: C_4  and  C_5
REMARK    3  A    between atoms: N_8  and  C_9
REMARK    4  A    between atoms: C_10  and  C_11
REMARK    5  A    between atoms: C_11  and  O_12
REMARK    6  A    between atoms: O_12  and  C_13
REMARK    7  A    between atoms: N_15  and  C_16
REMARK    8  A    between atoms: N_15  and  C_17
REMARK    9  A    between atoms: C_17  and  C_18
REMARK   10  A    between atoms: C_25  and  O_26
REMARK   11  A    between atoms: O_26  and  C_27
REMARK   12  A    between atoms: C_31  and  C_32
REMARK   13  A    between atoms: C_32  and  O_34
REMARK                            x       y       z     vdW  Elec       q    Type
REMARK                         _______ _______ _______ _____ _____    ______ ____
ROOT
ATOM      1  C   UNL     1       2.158   4.071  19.870  0.00  0.00    +0.000 C 
ATOM      2  C   UNL     1       2.219   5.534  19.551  0.00  0.00    +0.000 A 
ATOM      3  N   UNL     1       1.739   6.370  20.504  0.00  0.00    +0.000 NA
ATOM      4  C   UNL     1       1.698   7.697  20.238  0.00  0.00    +0.000 A 
ATOM      5  C   UNL     1       2.121   8.222  19.026  0.00  0.00    +0.000 A 
ATOM      6  C   UNL     1       2.631   7.358  18.062  0.00  0.00    +0.000 A 
ATOM      7  C   UNL     1       2.725   5.995  18.336  0.00  0.00    +0.000 A 
ENDROOT
BRANCH   4   8
ATOM      8  C   UNL     1       1.145   8.562  21.264  0.00  0.00    +0.000 A 
ATOM      9  N   UNL     1       1.815   8.868  22.425  0.00  0.00    +0.000 NA
ATOM     10  N   UNL     1       1.085   9.734  23.109  0.00  0.00    +0.000 NA
ATOM     11  N   UNL     1      -0.024   9.986  22.391  0.00  0.00    +0.000 N 
ATOM     12  C   UNL     1      -0.981  10.937  22.892  0.00  0.00    +0.000 C 
ATOM     13  C   UNL     1      -0.053   9.260  21.228  0.00  0.00    +0.000 A 
BRANCH  13  14
ATOM     14  C   UNL     1      -1.143   9.337  20.213  0.00  0.00    +0.000 C 
BRANCH  14  15
ATOM     15  O   UNL     1      -0.754  10.282  19.208  0.00  0.00    +0.000 OA
BRANCH  15  16
ATOM     16  C   UNL     1      -1.661  10.514  18.230  0.00  0.00    +0.000 C 
ATOM     17  O   UNL     1      -1.936   9.694  17.361  0.00  0.00    +0.000 OA
ATOM     18  N   UNL     1      -2.312  11.729  18.395  0.00  0.00    +0.000 N 
ATOM     19  C   UNL     1      -1.928  12.670  19.435  0.00  0.00    +0.000 C 
BRANCH  18  20
ATOM     20  C   UNL     1      -3.631  11.891  17.786  0.00  0.00    +0.000 C 
BRANCH  20  21
ATOM     21  C   UNL     1      -4.786  11.385  18.671  0.00  0.00    +0.000 C 
ATOM     22  C   UNL     1      -5.108  12.342  19.816  0.00  0.00    +0.000 C 
ATOM     23  C   UNL     1      -6.507  11.937  20.265  0.00  0.00    +0.000 C 
ATOM     24  C   UNL     1      -7.206  11.406  19.020  0.00  0.00    +0.000 C 
ATOM     25  C   UNL     1      -6.129  11.264  17.951  0.00  0.00    +0.000 C 
ENDBRANCH  20  21
ENDBRANCH  18  20
ENDBRANCH  15  16
ENDBRANCH  14  15
ENDBRANCH  13  14
ENDBRANCH   4   8
BRANCH   7  26
ATOM     26  O   UNL     1       3.295   5.072  17.502  0.00  0.00    +0.000 OA
BRANCH  26  27
ATOM     27  C   UNL     1       4.662   5.304  17.128  0.00  0.00    +0.000 C 
ATOM     28  C   UNL     1       5.511   5.746  18.331  0.00  0.00    +0.000 C 
ATOM     29  C   UNL     1       6.975   5.891  17.946  0.00  0.00    +0.000 C 
ATOM     30  C   UNL     1       7.526   4.578  17.402  0.00  0.00    +0.000 C 
ATOM     31  C   UNL     1       6.705   4.042  16.220  0.00  0.00    +0.000 C 
ATOM     32  C   UNL     1       5.209   3.978  16.571  0.00  0.00    +0.000 C 
BRANCH  31  33
ATOM     33  C   UNL     1       6.945   4.854  14.952  0.00  0.00    +0.000 C 
ATOM     34  O   UNL     1       7.827   5.686  14.812  0.00  0.00    +0.000 OA
BRANCH  33  35
ATOM     35  O   UNL     1       6.060   4.586  13.966  0.00  0.00    +0.000 OA
ATOM     36  H   UNL     1       5.892   3.636  13.816  0.00  0.00    +0.000 HD
ENDBRANCH  33  35
ENDBRANCH  31  33
ENDBRANCH  26  27
ENDBRANCH   7  26
TORSDOF 10
ENDMDL
MODEL 4
REMARK VINA RESULT:      -7.8      3.218      4.182
REMARK  Name = 
REMARK  13 active torsions:
REMARK  status: ('A' for Active; 'I' for Inactive)
REMARK    1  A    between atoms: C_1  and  C_2
REMARK    2  A    between atoms: C_4  and  C_5
REMARK    3  A    between atoms: N_8  and  C_9
REMARK    4  A    between atoms: C_10  and  C_11
REMARK    5  A    between atoms: C_11  and  O_12
REMARK    6  A    between atoms: O_12  and  C_13
REMARK    7  A    between atoms: N_15  and  C_16
REMARK    8  A    between atoms: N_15  and  C_17
REMARK    9  A    between atoms: C_17  and  C_18
REMARK   10  A    between atoms: C_25  and  O_26
REMARK   11  A    between atoms: O_26  and  C_27
REMARK   12  A    between atoms: C_31  and  C_32
REMARK   13  A    between atoms: C_32  and  O_34
REMARK                            x       y       z     vdW  Elec       q    Type
REMARK                         _______ _______ _______ _____ _____    ______ ____
ROOT
ATOM      1  C   UNL     1       1.964   4.744  20.831  0.00  0.00    +0.000 C 
ATOM      2  C   UNL     1       2.037   6.105  20.207  0.00  0.00    +0.000 A 
ATOM      3  N   UNL     1       1.474   7.114  20.914  0.00  0.00    +0.000 NA
ATOM      4  C   UNL     1       1.441   8.350  20.363  0.00  0.00    +0.000 A 
ATOM      5  C   UNL     1       1.956   8.611  19.102  0.00  0.00    +0.000 A 
ATOM      6  C   UNL     1       2.552   7.572  18.392  0.00  0.00    +0.000 A 
ATOM      7  C   UNL     1       2.636   6.304  18.963  0.00  0.00    +0.000 A 
ENDROOT
BRANCH   4   8
ATOM      8  C   UNL     1       0.799   9.402  21.130  0.00  0.00    +0.000 A 
ATOM      9  N   UNL     1       0.322   9.214  22.405  0.00  0.00    +0.000 NA
ATOM     10  N   UNL     1      -0.130  10.373  22.854  0.00  0.00    +0.000 NA
ATOM     11  N   UNL     1       0.068  11.288  21.888  0.00  0.00    +0.000 N 
ATOM     12  C   UNL     1      -0.300  12.657  22.135  0.00  0.00    +0.000 C 
ATOM     13  C   UNL     1       0.630  10.731  20.768  0.00  0.00    +0.000 A 
BRANCH  13  14
ATOM     14  C   UNL     1       0.989  11.492  19.537  0.00  0.00    +0.000 C 
BRANCH  14  15
ATOM     15  O   UNL     1       1.944  12.498  19.893  0.00  0.00    +0.000 OA
BRANCH  15  16
ATOM     16  C   UNL     1       2.389  13.279  18.881  0.00  0.00    +0.000 C 
ATOM     17  O   UNL     1       2.286  12.968  17.699  0.00  0.00    +0.000 OA
ATOM     18  N   UNL     1       2.866  14.502  19.330  0.00  0.00    +0.000 N 
ATOM     19  C   UNL     1       2.983  14.806  20.748  0.00  0.00    +0.000 C 
BRANCH  18  20
ATOM     20  C   UNL     1       2.877  15.624  18.392  0.00  0.00    +0.000 C 
BRANCH  20  21
ATOM     21  C   UNL     1       1.724  16.622  18.611  0.00  0.00    +0.000 C 
ATOM     22  C   UNL     1       1.563  17.595  17.445  0.00  0.00    +0.000 C 
ATOM     23  C   UNL     1       0.156  18.154  17.611  0.00  0.00    +0.000 C 
ATOM     24  C   UNL     1      -0.659  17.043  18.263  0.00  0.00    +0.000 C 
ATOM     25  C   UNL     1       0.340  15.980  18.701  0.00  0.00    +0.000 C 
ENDBRANCH  20  21
ENDBRANCH  18  20
ENDBRANCH  15  16
ENDBRANCH  14  15
ENDBRANCH  13  14
ENDBRANCH   4   8
BRANCH   7  26
ATOM     26  O   UNL     1       3.280   5.238  18.398  0.00  0.00    +0.000 OA
BRANCH  26  27
ATOM     27  C   UNL     1       4.612   5.477  17.916  0.00  0.00    +0.000 C 
ATOM     28  C   UNL     1       5.627   5.548  19.069  0.00  0.00    +0.000 C 
ATOM     29  C   UNL     1       7.046   5.699  18.543  0.00  0.00    +0.000 C 
ATOM     30  C   UNL     1       7.412   4.538  17.626  0.00  0.00    +0.000 C 
ATOM     31  C   UNL     1       6.419   4.368  16.467  0.00  0.00    +0.000 C 
ATOM     32  C   UNL     1       4.972   4.306  16.985  0.00  0.00    +0.000 C 
BRANCH  31  33
ATOM     33  C   UNL     1       6.588   5.460  15.416  0.00  0.00    +0.000 C 
ATOM     34  O   UNL     1       7.597   5.642  14.754  0.00  0.00    +0.000 OA
BRANCH  33  35
ATOM     35  O   UNL     1       5.502   6.254  15.286  0.00  0.00    +0.000 OA
ATOM     36  H   UNL     1       5.257   6.745  16.093  0.00  0.00    +0.000 HD
ENDBRANCH  33  35
ENDBRANCH  31  33
ENDBRANCH  26  27
ENDBRANCH   7  26
TORSDOF 10
ENDMDL
MODEL 5
REMARK VINA RESULT:      -7.8      2.834      3.862
REMARK  Name = 
REMARK  13 active torsions:
REMARK  status: ('A' for Active; 'I' for Inactive)
REMARK    1  A    between atoms: C_1  and  C_2
REMARK    2  A    between atoms: C_4  and  C_5
REMARK    3  A    between atoms: N_8  and  C_9
REMARK    4  A    between atoms: C_10  and  C_11
REMARK    5  A    between atoms: C_11  and  O_12
REMARK    6  A    between atoms: O_12  and  C_13
REMARK    7  A    between atoms: N_15  and  C_16
REMARK    8  A    between atoms: N_15  and  C_17
REMARK    9  A    between atoms: C_17  and  C_18
REMARK   10  A    between atoms: C_25  and  O_26
REMARK   11  A    between atoms: O_26  and  C_27
REMARK   12  A    between atoms: C_31  and  C_32
REMARK   13  A    between atoms: C_32  and  O_34
REMARK                            x       y       z     vdW  Elec       q    Type
REMARK                         _______ _______ _______ _____ _____    ______ ____
ROOT
ATOM      1  C   UNL     1       1.853   4.416  20.913  0.00  0.00    +0.000 C 
ATOM      2  C   UNL     1       1.954   5.813  20.378  0.00  0.00    +0.000 A 
ATOM      3  N   UNL     1       1.371   6.779  21.128  0.00  0.00    +0.000 NA
ATOM      4  C   UNL     1       1.363   8.048  20.654  0.00  0.00    +0.000 A 
ATOM      5  C   UNL     1       1.923   8.383  19.431  0.00  0.00    +0.000 A 
ATOM      6  C   UNL     1       2.539   7.387  18.678  0.00  0.00    +0.000 A 
ATOM      7  C   UNL     1       2.597   6.085  19.171  0.00  0.00    +0.000 A 
ENDROOT
BRANCH   4   8
ATOM      8  C   UNL     1       0.699   9.054  21.463  0.00  0.00    +0.000 A 
ATOM      9  N   UNL     1       0.604   8.970  22.831  0.00  0.00    +0.000 NA
ATOM     10  N   UNL     1       0.018  10.070  23.274  0.00  0.00    +0.000 NA
ATOM     11  N   UNL     1      -0.245  10.847  22.208  0.00  0.00    +0.000 N 
ATOM     12  C   UNL     1      -0.851  12.137  22.414  0.00  0.00    +0.000 C 
ATOM     13  C   UNL     1       0.142  10.250  21.036  0.00  0.00    +0.000 A 
BRANCH  13  14
ATOM     14  C   UNL     1       0.003  10.871  19.687  0.00  0.00    +0.000 C 
BRANCH  14  15
ATOM     15  O   UNL     1       1.208  11.590  19.397  0.00  0.00    +0.000 OA
BRANCH  15  16
ATOM     16  C   UNL     1       1.354  12.780  20.027  0.00  0.00    +0.000 C 
ATOM     17  O   UNL     1       2.142  12.958  20.950  0.00  0.00    +0.000 OA
ATOM     18  N   UNL     1       0.601  13.785  19.435  0.00  0.00    +0.000 N 
ATOM     19  C   UNL     1      -0.331  13.508  18.353  0.00  0.00    +0.000 C 
BRANCH  18  20
ATOM     20  C   UNL     1       1.030  15.169  19.625  0.00  0.00    +0.000 C 
BRANCH  20  21
ATOM     21  C   UNL     1       0.546  16.122  18.515  0.00  0.00    +0.000 C 
ATOM     22  C   UNL     1      -0.515  17.104  19.008  0.00  0.00    +0.000 C 
ATOM     23  C   UNL     1      -0.518  18.213  17.965  0.00  0.00    +0.000 C 
ATOM     24  C   UNL     1       0.906  18.282  17.427  0.00  0.00    +0.000 C 
ATOM     25  C   UNL     1       1.627  17.053  17.964  0.00  0.00    +0.000 C 
ENDBRANCH  20  21
ENDBRANCH  18  20
ENDBRANCH  15  16
ENDBRANCH  14  15
ENDBRANCH  13  14
ENDBRANCH   4   8
BRANCH   7  26
ATOM     26  O   UNL     1       3.256   5.053  18.562  0.00  0.00    +0.000 OA
BRANCH  26  27
ATOM     27  C   UNL     1       4.553   5.349  18.024  0.00  0.00    +0.000 C 
ATOM     28  C   UNL     1       5.622   5.421  19.127  0.00  0.00    +0.000 C 
ATOM     29  C   UNL     1       7.007   5.635  18.538  0.00  0.00    +0.000 C 
ATOM     30  C   UNL     1       7.364   4.514  17.570  0.00  0.00    +0.000 C 
ATOM     31  C   UNL     1       6.321   4.345  16.456  0.00  0.00    +0.000 C 
ATOM     32  C   UNL     1       4.904   4.219  17.041  0.00  0.00    +0.000 C 
BRANCH  31  33
ATOM     33  C   UNL     1       6.403   5.471  15.431  0.00  0.00    +0.000 C 
ATOM     34  O   UNL     1       5.520   6.285  15.217  0.00  0.00    +0.000 OA
BRANCH  33  35
ATOM     35  O   UNL     1       7.563   5.485  14.739  0.00  0.00    +0.000 OA
ATOM     36  H   UNL     1       8.098   4.673  14.824  0.00  0.00    +0.000 HD
ENDBRANCH  33  35
ENDBRANCH  31  33
ENDBRANCH  26  27
ENDBRANCH   7  26
TORSDOF 10
ENDMDL
MODEL 6
REMARK VINA RESULT:      -7.6      3.068     10.280
REMARK  Name = 
REMARK  13 active torsions:
REMARK  status: ('A' for Active; 'I' for Inactive)
REMARK    1  A    between atoms: C_1  and  C_2
REMARK    2  A    between atoms: C_4  and  C_5
REMARK    3  A    between atoms: N_8  and  C_9
REMARK    4  A    between atoms: C_10  and  C_11
REMARK    5  A    between atoms: C_11  and  O_12
REMARK    6  A    between atoms: O_12  and  C_13
REMARK    7  A    between atoms: N_15  and  C_16
REMARK    8  A    between atoms: N_15  and  C_17
REMARK    9  A    between atoms: C_17  and  C_18
REMARK   10  A    between atoms: C_25  and  O_26
REMARK   11  A    between atoms: O_26  and  C_27
REMARK   12  A    between atoms: C_31  and  C_32
REMARK   13  A    between atoms: C_32  and  O_34
REMARK                            x       y       z     vdW  Elec       q    Type
REMARK                         _______ _______ _______ _____ _____    ______ ____
ROOT
ATOM      1  C   UNL     1       2.407   9.323  17.903  0.00  0.00    +0.000 C 
ATOM      2  C   UNL     1       2.133   8.211  18.870  0.00  0.00    +0.000 A 
ATOM      3  N   UNL     1       2.363   6.957  18.414  0.00  0.00    +0.000 NA
ATOM      4  C   UNL     1       2.058   5.910  19.218  0.00  0.00    +0.000 A 
ATOM      5  C   UNL     1       1.515   6.083  20.482  0.00  0.00    +0.000 A 
ATOM      6  C   UNL     1       1.302   7.376  20.950  0.00  0.00    +0.000 A 
ATOM      7  C   UNL     1       1.652   8.466  20.155  0.00  0.00    +0.000 A 
ENDROOT
BRANCH   4   8
ATOM      8  C   UNL     1       2.283   4.578  18.686  0.00  0.00    +0.000 A 
ATOM      9  N   UNL     1       1.349   3.905  17.936  0.00  0.00    +0.000 NA
ATOM     10  N   UNL     1       1.882   2.761  17.539  0.00  0.00    +0.000 NA
ATOM     11  N   UNL     1       3.138   2.711  18.018  0.00  0.00    +0.000 N 
ATOM     12  C   UNL     1       3.965   1.579  17.695  0.00  0.00    +0.000 C 
ATOM     13  C   UNL     1       3.441   3.819  18.767  0.00  0.00    +0.000 A 
BRANCH  13  14
ATOM     14  C   UNL     1       4.763   4.065  19.413  0.00  0.00    +0.000 C 
BRANCH  14  15
ATOM     15  O   UNL     1       5.349   5.224  18.809  0.00  0.00    +0.000 OA
BRANCH  15  16
ATOM     16  C   UNL     1       6.480   5.013  18.095  0.00  0.00    +0.000 C 
ATOM     17  O   UNL     1       7.468   4.450  18.553  0.00  0.00    +0.000 OA
ATOM     18  N   UNL     1       6.345   5.404  16.769  0.00  0.00    +0.000 N 
ATOM     19  C   UNL     1       5.154   6.086  16.288  0.00  0.00    +0.000 C 
BRANCH  18  20
ATOM     20  C   UNL     1       7.221   4.783  15.777  0.00  0.00    +0.000 C 
BRANCH  20  21
ATOM     21  C   UNL     1       6.655   4.825  14.344  0.00  0.00    +0.000 C 
ATOM     22  C   UNL     1       7.747   4.982  13.288  0.00  0.00    +0.000 C 
ATOM     23  C   UNL     1       7.084   4.540  11.990  0.00  0.00    +0.000 C 
ATOM     24  C   UNL     1       6.052   3.491  12.385  0.00  0.00    +0.000 C 
ATOM     25  C   UNL     1       5.951   3.541  13.905  0.00  0.00    +0.000 C 
ENDBRANCH  20  21
ENDBRANCH  18  20
ENDBRANCH  15  16
ENDBRANCH  14  15
ENDBRANCH  13  14
ENDBRANCH   4   8
BRANCH   7  26
ATOM     26  O   UNL     1       1.574   9.773  20.550  0.00  0.00    +0.000 OA
BRANCH  26  27
ATOM     27  C   UNL     1       0.615  10.593  19.866  0.00  0.00    +0.000 C 
ATOM     28  C   UNL     1      -0.748   9.892  19.747  0.00  0.00    +0.000 C 
ATOM     29  C   UNL     1      -1.784  10.807  19.113  0.00  0.00    +0.000 C 
ATOM     30  C   UNL     1      -1.949  12.086  19.926  0.00  0.00    +0.000 C 
ATOM     31  C   UNL     1      -0.621  12.829  20.129  0.00  0.00    +0.000 C 
ATOM     32  C   UNL     1       0.459  11.886  20.687  0.00  0.00    +0.000 C 
BRANCH  31  33
ATOM     33  C   UNL     1      -0.156  13.514  18.849  0.00  0.00    +0.000 C 
ATOM     34  O   UNL     1      -0.636  13.327  17.743  0.00  0.00    +0.000 OA
BRANCH  33  35
ATOM     35  O   UNL     1       0.882  14.359  19.038  0.00  0.00    +0.000 OA
ATOM     36  H   UNL     1       0.630  15.296  19.143  0.00  0.00    +0.000 HD
ENDBRANCH  33  35
ENDBRANCH  31  33
ENDBRANCH  26  27
ENDBRANCH   7  26
TORSDOF 10
ENDMDL
MODEL 7
REMARK VINA RESULT:      -7.6      2.683      3.769
REMARK  Name = 
REMARK  13 active torsions:
REMARK  status: ('A' for Active; 'I' for Inactive)
REMARK    1  A    between atoms: C_1  and  C_2
REMARK    2  A    between atoms: C_4  and  C_5
REMARK    3  A    between atoms: N_8  and  C_9
REMARK    4  A    between atoms: C_10  and  C_11
REMARK    5  A    between atoms: C_11  and  O_12
REMARK    6  A    between atoms: O_12  and  C_13
REMARK    7  A    between atoms: N_15  and  C_16
REMARK    8  A    between atoms: N_15  and  C_17
REMARK    9  A    between atoms: C_17  and  C_18
REMARK   10  A    between atoms: C_25  and  O_26
REMARK   11  A    between atoms: O_26  and  C_27
REMARK   12  A    between atoms: C_31  and  C_32
REMARK   13  A    between atoms: C_32  and  O_34
REMARK                            x       y       z     vdW  Elec       q    Type
REMARK                         _______ _______ _______ _____ _____    ______ ____
ROOT
ATOM      1  C   UNL     1       1.847   4.452  20.909  0.00  0.00    +0.000 C 
ATOM      2  C   UNL     1       1.963   5.826  20.320  0.00  0.00    +0.000 A 
ATOM      3  N   UNL     1       1.308   6.812  20.979  0.00  0.00    +0.000 NA
ATOM      4  C   UNL     1       1.313   8.058  20.449  0.00  0.00    +0.000 A 
ATOM      5  C   UNL     1       1.957   8.351  19.257  0.00  0.00    +0.000 A 
ATOM      6  C   UNL     1       2.645   7.336  18.598  0.00  0.00    +0.000 A 
ATOM      7  C   UNL     1       2.689   6.059  19.152  0.00  0.00    +0.000 A 
ENDROOT
BRANCH   4   8
ATOM      8  C   UNL     1       0.572   9.084  21.160  0.00  0.00    +0.000 A 
ATOM      9  N   UNL     1      -0.211   8.817  22.257  0.00  0.00    +0.000 NA
ATOM     10  N   UNL     1      -0.683   9.963  22.719  0.00  0.00    +0.000 NA
ATOM     11  N   UNL     1      -0.198  10.946  21.938  0.00  0.00    +0.000 N 
ATOM     12  C   UNL     1      -0.526  12.312  22.248  0.00  0.00    +0.000 C 
ATOM     13  C   UNL     1       0.582  10.451  20.924  0.00  0.00    +0.000 A 
BRANCH  13  14
ATOM     14  C   UNL     1       1.277  11.293  19.908  0.00  0.00    +0.000 C 
BRANCH  14  15
ATOM     15  O   UNL     1       0.427  11.404  18.760  0.00  0.00    +0.000 OA
BRANCH  15  16
ATOM     16  C   UNL     1      -0.394  12.480  18.732  0.00  0.00    +0.000 C 
ATOM     17  O   UNL     1      -1.603  12.408  18.928  0.00  0.00    +0.000 OA
ATOM     18  N   UNL     1       0.304  13.669  18.569  0.00  0.00    +0.000 N 
ATOM     19  C   UNL     1       1.736  13.690  18.321  0.00  0.00    +0.000 C 
BRANCH  18  20
ATOM     20  C   UNL     1      -0.323  14.904  19.038  0.00  0.00    +0.000 C 
BRANCH  20  21
ATOM     21  C   UNL     1       0.427  16.178  18.606  0.00  0.00    +0.000 C 
ATOM     22  C   UNL     1      -0.473  17.163  17.862  0.00  0.00    +0.000 C 
ATOM     23  C   UNL     1       0.274  18.489  17.937  0.00  0.00    +0.000 C 
ATOM     24  C   UNL     1       1.053  18.454  19.246  0.00  0.00    +0.000 C 
ATOM     25  C   UNL     1       0.958  17.024  19.763  0.00  0.00    +0.000 C 
ENDBRANCH  20  21
ENDBRANCH  18  20
ENDBRANCH  15  16
ENDBRANCH  14  15
ENDBRANCH  13  14
ENDBRANCH   4   8
BRANCH   7  26
ATOM     26  O   UNL     1       3.410   5.015  18.642  0.00  0.00    +0.000 OA
BRANCH  26  27
ATOM     27  C   UNL     1       4.685   5.338  18.066  0.00  0.00    +0.000 C 
ATOM     28  C   UNL     1       5.781   5.446  19.138  0.00  0.00    +0.000 C 
ATOM     29  C   UNL     1       7.144   5.687  18.510  0.00  0.00    +0.000 C 
ATOM     30  C   UNL     1       7.502   4.566  17.542  0.00  0.00    +0.000 C 
ATOM     31  C   UNL     1       6.433   4.361  16.458  0.00  0.00    +0.000 C 
ATOM     32  C   UNL     1       5.036   4.206  17.083  0.00  0.00    +0.000 C 
BRANCH  31  33
ATOM     33  C   UNL     1       6.459   5.480  15.422  0.00  0.00    +0.000 C 
ATOM     34  O   UNL     1       5.533   6.238  15.190  0.00  0.00    +0.000 OA
BRANCH  33  35
ATOM     35  O   UNL     1       7.625   5.554  14.741  0.00  0.00    +0.000 OA
ATOM     36  H   UNL     1       7.707   6.333  14.159  0.00  0.00    +0.000 HD
ENDBRANCH  33  35
ENDBRANCH  31  33
ENDBRANCH  26  27
ENDBRANCH   7  26
TORSDOF 10
ENDMDL
MODEL 8
REMARK VINA RESULT:      -7.5      1.150      1.707
REMARK  Name = 
REMARK  13 active torsions:
REMARK  status: ('A' for Active; 'I' for Inactive)
REMARK    1  A    between atoms: C_1  and  C_2
REMARK    2  A    between atoms: C_4  and  C_5
REMARK    3  A    between atoms: N_8  and  C_9
REMARK    4  A    between atoms: C_10  and  C_11
REMARK    5  A    between atoms: C_11  and  O_12
REMARK    6  A    between atoms: O_12  and  C_13
REMARK    7  A    between atoms: N_15  and  C_16
REMARK    8  A    between atoms: N_15  and  C_17
REMARK    9  A    between atoms: C_17  and  C_18
REMARK   10  A    between atoms: C_25  and  O_26
REMARK   11  A    between atoms: O_26  and  C_27
REMARK   12  A    between atoms: C_31  and  C_32
REMARK   13  A    between atoms: C_32  and  O_34
REMARK                            x       y       z     vdW  Elec       q    Type
REMARK                         _______ _______ _______ _____ _____    ______ ____
ROOT
ATOM      1  C   UNL     1       2.090   4.431  20.614  0.00  0.00    +0.000 C 
ATOM      2  C   UNL     1       2.148   5.721  19.852  0.00  0.00    +0.000 A 
ATOM      3  N   UNL     1       1.729   6.824  20.519  0.00  0.00    +0.000 NA
ATOM      4  C   UNL     1       1.686   8.003  19.855  0.00  0.00    +0.000 A 
ATOM      5  C   UNL     1       2.047   8.113  18.521  0.00  0.00    +0.000 A 
ATOM      6  C   UNL     1       2.496   6.979  17.851  0.00  0.00    +0.000 A 
ATOM      7  C   UNL     1       2.591   5.767  18.531  0.00  0.00    +0.000 A 
ENDROOT
BRANCH   4   8
ATOM      8  C   UNL     1       1.198   9.158  20.586  0.00  0.00    +0.000 A 
ATOM      9  N   UNL     1       1.102   9.191  21.957  0.00  0.00    +0.000 NA
ATOM     10  N   UNL     1       0.704  10.399  22.316  0.00  0.00    +0.000 NA
ATOM     11  N   UNL     1       0.560  11.129  21.196  0.00  0.00    +0.000 N 
ATOM     12  C   UNL     1       0.171  12.511  21.305  0.00  0.00    +0.000 C 
ATOM     13  C   UNL     1       0.837  10.395  20.071  0.00  0.00    +0.000 A 
BRANCH  13  14
ATOM     14  C   UNL     1       0.788  10.931  18.681  0.00  0.00    +0.000 C 
BRANCH  14  15
ATOM     15  O   UNL     1      -0.467  10.556  18.099  0.00  0.00    +0.000 OA
BRANCH  15  16
ATOM     16  C   UNL     1      -1.452  11.483  18.165  0.00  0.00    +0.000 C 
ATOM     17  O   UNL     1      -1.236  12.690  18.206  0.00  0.00    +0.000 OA
ATOM     18  N   UNL     1      -2.715  10.917  18.068  0.00  0.00    +0.000 N 
ATOM     19  C   UNL     1      -2.910   9.476  18.042  0.00  0.00    +0.000 C 
BRANCH  18  20
ATOM     20  C   UNL     1      -3.812  11.759  17.594  0.00  0.00    +0.000 C 
BRANCH  20  21
ATOM     21  C   UNL     1      -5.074  11.679  18.474  0.00  0.00    +0.000 C 
ATOM     22  C   UNL     1      -5.117  12.773  19.538  0.00  0.00    +0.000 C 
ATOM     23  C   UNL     1      -6.578  12.827  19.967  0.00  0.00    +0.000 C 
ATOM     24  C   UNL     1      -7.387  12.428  18.739  0.00  0.00    +0.000 C 
ATOM     25  C   UNL     1      -6.386  11.898  17.720  0.00  0.00    +0.000 C 
ENDBRANCH  20  21
ENDBRANCH  18  20
ENDBRANCH  15  16
ENDBRANCH  14  15
ENDBRANCH  13  14
ENDBRANCH   4   8
BRANCH   7  26
ATOM     26  O   UNL     1       3.106   4.616  18.000  0.00  0.00    +0.000 OA
BRANCH  26  27
ATOM     27  C   UNL     1       4.522   4.597  17.764  0.00  0.00    +0.000 C 
ATOM     28  C   UNL     1       4.848   4.343  16.284  0.00  0.00    +0.000 C 
ATOM     29  C   UNL     1       6.344   4.424  16.028  0.00  0.00    +0.000 C 
ATOM     30  C   UNL     1       6.891   5.789  16.432  0.00  0.00    +0.000 C 
ATOM     31  C   UNL     1       6.570   6.141  17.892  0.00  0.00    +0.000 C 
ATOM     32  C   UNL     1       5.069   5.973  18.183  0.00  0.00    +0.000 C 
BRANCH  31  33
ATOM     33  C   UNL     1       7.420   5.333  18.866  0.00  0.00    +0.000 C 
ATOM     34  O   UNL     1       7.397   5.455  20.080  0.00  0.00    +0.000 OA
BRANCH  33  35
ATOM     35  O   UNL     1       8.249   4.455  18.258  0.00  0.00    +0.000 OA
ATOM     36  H   UNL     1       8.735   3.866  18.864  0.00  0.00    +0.000 HD
ENDBRANCH  33  35
ENDBRANCH  31  33
ENDBRANCH  26  27
ENDBRANCH   7  26
TORSDOF 10
ENDMDL
MODEL 9
REMARK VINA RESULT:      -7.5      4.407      7.243
REMARK  Name = 
REMARK  13 active torsions:
REMARK  status: ('A' for Active; 'I' for Inactive)
REMARK    1  A    between atoms: C_1  and  C_2
REMARK    2  A    between atoms: C_4  and  C_5
REMARK    3  A    between atoms: N_8  and  C_9
REMARK    4  A    between atoms: C_10  and  C_11
REMARK    5  A    between atoms: C_11  and  O_12
REMARK    6  A    between atoms: O_12  and  C_13
REMARK    7  A    between atoms: N_15  and  C_16
REMARK    8  A    between atoms: N_15  and  C_17
REMARK    9  A    between atoms: C_17  and  C_18
REMARK   10  A    between atoms: C_25  and  O_26
REMARK   11  A    between atoms: O_26  and  C_27
REMARK   12  A    between atoms: C_31  and  C_32
REMARK   13  A    between atoms: C_32  and  O_34
REMARK                            x       y       z     vdW  Elec       q    Type
REMARK                         _______ _______ _______ _____ _____    ______ ____
ROOT
ATOM      1  C   UNL     1       1.594   7.043  21.265  0.00  0.00    +0.000 C 
ATOM      2  C   UNL     1       1.712   7.886  20.031  0.00  0.00    +0.000 A 
ATOM      3  N   UNL     1       0.991   9.033  20.025  0.00  0.00    +0.000 NA
ATOM      4  C   UNL     1       0.998   9.794  18.904  0.00  0.00    +0.000 A 
ATOM      5  C   UNL     1       1.708   9.433  17.770  0.00  0.00    +0.000 A 
ATOM      6  C   UNL     1       2.462   8.264  17.793  0.00  0.00    +0.000 A 
ATOM      7  C   UNL     1       2.504   7.492  18.953  0.00  0.00    +0.000 A 
ENDROOT
BRANCH   4   8
ATOM      8  C   UNL     1       0.187  10.999  18.916  0.00  0.00    +0.000 A 
ATOM      9  N   UNL     1      -1.032  11.086  18.289  0.00  0.00    +0.000 NA
ATOM     10  N   UNL     1      -1.549  12.275  18.550  0.00  0.00    +0.000 NA
ATOM     11  N   UNL     1      -0.680  12.930  19.341  0.00  0.00    +0.000 N 
ATOM     12  C   UNL     1      -1.019  14.247  19.813  0.00  0.00    +0.000 C 
ATOM     13  C   UNL     1       0.444  12.184  19.588  0.00  0.00    +0.000 A 
BRANCH  13  14
ATOM     14  C   UNL     1       1.578  12.630  20.448  0.00  0.00    +0.000 C 
BRANCH  14  15
ATOM     15  O   UNL     1       2.341  13.599  19.718  0.00  0.00    +0.000 OA
BRANCH  15  16
ATOM     16  C   UNL     1       3.364  14.177  20.391  0.00  0.00    +0.000 C 
ATOM     17  O   UNL     1       3.582  13.978  21.581  0.00  0.00    +0.000 OA
ATOM     18  N   UNL     1       4.189  14.919  19.556  0.00  0.00    +0.000 N 
ATOM     19  C   UNL     1       3.867  15.135  18.155  0.00  0.00    +0.000 C 
BRANCH  18  20
ATOM     20  C   UNL     1       5.569  15.148  19.980  0.00  0.00    +0.000 C 
BRANCH  20  21
ATOM     21  C   UNL     1       6.437  15.834  18.908  0.00  0.00    +0.000 C 
ATOM     22  C   UNL     1       7.063  17.135  19.406  0.00  0.00    +0.000 C 
ATOM     23  C   UNL     1       8.205  17.402  18.434  0.00  0.00    +0.000 C 
ATOM     24  C   UNL     1       8.688  16.032  17.973  0.00  0.00    +0.000 C 
ATOM     25  C   UNL     1       7.658  15.025  18.471  0.00  0.00    +0.000 C 
ENDBRANCH  20  21
ENDBRANCH  18  20
ENDBRANCH  15  16
ENDBRANCH  14  15
ENDBRANCH  13  14
ENDBRANCH   4   8
BRANCH   7  26
ATOM     26  O   UNL     1       3.283   6.380  19.118  0.00  0.00    +0.000 OA
BRANCH  26  27
ATOM     27  C   UNL     1       2.732   5.137  18.655  0.00  0.00    +0.000 C 
ATOM     28  C   UNL     1       3.450   4.634  17.392  0.00  0.00    +0.000 C 
ATOM     29  C   UNL     1       2.928   3.270  16.969  0.00  0.00    +0.000 C 
ATOM     30  C   UNL     1       3.109   2.249  18.086  0.00  0.00    +0.000 C 
ATOM     31  C   UNL     1       2.455   2.696  19.402  0.00  0.00    +0.000 C 
ATOM     32  C   UNL     1       2.910   4.113  19.790  0.00  0.00    +0.000 C 
BRANCH  31  33
ATOM     33  C   UNL     1       0.935   2.595  19.339  0.00  0.00    +0.000 C 
ATOM     34  O   UNL     1       0.307   2.056  18.442  0.00  0.00    +0.000 OA
BRANCH  33  35
ATOM     35  O   UNL     1       0.313   3.191  20.381  0.00  0.00    +0.000 OA
ATOM     36  H   UNL     1       0.479   4.149  20.460  0.00  0.00    +0.000 HD
ENDBRANCH  33  35
ENDBRANCH  31  33
ENDBRANCH  26  27
ENDBRANCH   7  26
TORSDOF 10
ENDMDL
