MODEL 1
REMARK VINA RESULT:      -6.1      0.000      0.000
REMARK  Name = 
REMARK  15 active torsions:
REMARK  status: ('A' for Active; 'I' for Inactive)
REMARK    1  A    between atoms: C_1  and  C_2
REMARK    2  A    between atoms: CA_3  and  N_4
REMARK    3  A    between atoms: CA_3  and  C_18
REMARK    4  A    between atoms: C_5  and  C_7
REMARK    5  A    between atoms: C_7  and  C_8
REMARK    6  A    between atoms: C_8  and  C_9
REMARK    7  A    between atoms: C_9  and  C_10
REMARK    8  A    between atoms: C_10  and  C_11
REMARK    9  A    between atoms: C_11  and  C_12
REMARK   10  A    between atoms: C_12  and  C_13
REMARK   11  A    between atoms: C_13  and  C_14
REMARK   12  A    between atoms: C_14  and  C_15
REMARK   13  A    between atoms: C_15  and  C_16
REMARK   14  A    between atoms: C_16  and  C_17
REMARK   15  A    between atoms: C_18  and  OXT_20
REMARK                            x       y       z     vdW  Elec       q    Type
REMARK                         _______ _______ _______ _____ _____    ______ ____
ROOT
ATOM      1  N   UNL     1       7.034   6.463  16.863  0.00  0.00    +0.000 N 
ATOM      2  C   UNL     1       5.672   6.555  16.634  0.00  0.00    +0.000 C 
ATOM      3  O   UNL     1       4.834   6.939  17.446  0.00  0.00    +0.000 OA
ATOM      4  H   UNL     1       7.623   6.345  16.043  0.00  0.00    +0.000 HD
ENDROOT
BRANCH   1   7
ATOM      5  C   UNL     1       8.216   9.178  17.947  0.00  0.00    +0.000 C 
ATOM      6  C   UNL     1       8.279   7.796  18.510  0.00  0.00    +0.000 C 
ATOM      7  CA  UNL     1       7.710   6.661  18.056  0.00  0.00    +0.000 C 
BRANCH   7   8
ATOM      8  C   UNL     1       7.772   5.494  19.009  0.00  0.00    +0.000 C 
ATOM      9  O   UNL     1       7.702   5.565  20.223  0.00  0.00    +0.000 OA
BRANCH   8  10
ATOM     10  OXT UNL     1       7.889   4.321  18.342  0.00  0.00    +0.000 OA
ATOM     11  HXT UNL     1       8.554   4.380  17.629  0.00  0.00    +0.000 HD
ENDBRANCH   8  10
ENDBRANCH   7   8
ENDBRANCH   1   7
BRANCH   2  12
ATOM     12  C   UNL     1       5.263   6.172  15.226  0.00  0.00    +0.000 C 
BRANCH  12  13
ATOM     13  C   UNL     1       6.032   4.932  14.786  0.00  0.00    +0.000 C 
BRANCH  13  14
ATOM     14  C   UNL     1       5.701   3.714  15.646  0.00  0.00    +0.000 C 
BRANCH  14  15
ATOM     15  C   UNL     1       4.194   3.640  15.889  0.00  0.00    +0.000 C 
BRANCH  15  16
ATOM     16  C   UNL     1       3.872   3.396  17.359  0.00  0.00    +0.000 C 
BRANCH  16  17
ATOM     17  C   UNL     1       2.550   2.644  17.510  0.00  0.00    +0.000 C 
BRANCH  17  18
ATOM     18  C   UNL     1       1.487   3.551  18.122  0.00  0.00    +0.000 C 
BRANCH  18  19
ATOM     19  C   UNL     1       2.074   4.892  18.556  0.00  0.00    +0.000 C 
BRANCH  19  20
ATOM     20  C   UNL     1       1.963   5.056  20.071  0.00  0.00    +0.000 C 
BRANCH  20  21
ATOM     21  C   UNL     1       1.216   3.886  20.706  0.00  0.00    +0.000 C 
ATOM     22  C   UNL     1       2.096   3.153  21.705  0.00  0.00    +0.000 C 
ENDBRANCH  20  21
ENDBRANCH  19  20
ENDBRANCH  18  19
ENDBRANCH  17  18
ENDBRANCH  16  17
ENDBRANCH  15  16
ENDBRANCH  14  15
ENDBRANCH  13  14
ENDBRANCH  12  13
ENDBRANCH   2  12
TORSDOF 13
ENDMDL
MODEL 2
REMARK VINA RESULT:      -6.1      1.283      1.908
REMARK  Name = 
REMARK  15 active torsions:
REMARK  status: ('A' for Active; 'I' for Inactive)
REMARK    1  A    between atoms: C_1  and  C_2
REMARK    2  A    between atoms: CA_3  and  N_4
REMARK    3  A    between atoms: CA_3  and  C_18
REMARK    4  A    between atoms: C_5  and  C_7
REMARK    5  A    between atoms: C_7  and  C_8
REMARK    6  A    between atoms: C_8  and  C_9
REMARK    7  A    between atoms: C_9  and  C_10
REMARK    8  A    between atoms: C_10  and  C_11
REMARK    9  A    between atoms: C_11  and  C_12
REMARK   10  A    between atoms: C_12  and  C_13
REMARK   11  A    between atoms: C_13  and  C_14
REMARK   12  A    between atoms: C_14  and  C_15
REMARK   13  A    between atoms: C_15  and  C_16
REMARK   14  A    between atoms: C_16  and  C_17
REMARK   15  A    between atoms: C_18  and  OXT_20
REMARK                            x       y       z     vdW  Elec       q    Type
REMARK                         _______ _______ _______ _____ _____    ______ ____
ROOT
ATOM      1  N   UNL     1       7.143   6.193  17.078  0.00  0.00    +0.000 N 
ATOM      2  C   UNL     1       7.464   5.024  16.411  0.00  0.00    +0.000 C 
ATOM      3  O   UNL     1       8.166   4.117  16.852  0.00  0.00    +0.000 OA
ATOM      4  H   UNL     1       6.384   6.744  16.685  0.00  0.00    +0.000 HD
ENDROOT
BRANCH   1   7
ATOM      5  C   UNL     1       8.271   9.060  17.751  0.00  0.00    +0.000 C 
ATOM      6  C   UNL     1       8.171   7.831  18.594  0.00  0.00    +0.000 C 
ATOM      7  CA  UNL     1       7.626   6.634  18.300  0.00  0.00    +0.000 C 
BRANCH   7   8
ATOM      8  C   UNL     1       7.473   5.699  19.474  0.00  0.00    +0.000 C 
ATOM      9  O   UNL     1       6.424   5.227  19.873  0.00  0.00    +0.000 OA
BRANCH   8  10
ATOM     10  OXT UNL     1       8.674   5.413  20.031  0.00  0.00    +0.000 OA
ATOM     11  HXT UNL     1       8.970   4.511  19.800  0.00  0.00    +0.000 HD
ENDBRANCH   8  10
ENDBRANCH   7   8
ENDBRANCH   1   7
BRANCH   2  12
ATOM     12  C   UNL     1       6.825   4.907  15.041  0.00  0.00    +0.000 C 
BRANCH  12  13
ATOM     13  C   UNL     1       5.341   5.238  15.137  0.00  0.00    +0.000 C 
BRANCH  13  14
ATOM     14  C   UNL     1       4.518   4.051  15.634  0.00  0.00    +0.000 C 
BRANCH  14  15
ATOM     15  C   UNL     1       4.000   4.328  17.045  0.00  0.00    +0.000 C 
BRANCH  15  16
ATOM     16  C   UNL     1       4.010   3.069  17.905  0.00  0.00    +0.000 C 
BRANCH  16  17
ATOM     17  C   UNL     1       2.587   2.631  18.248  0.00  0.00    +0.000 C 
BRANCH  17  18
ATOM     18  C   UNL     1       2.487   2.246  19.721  0.00  0.00    +0.000 C 
BRANCH  18  19
ATOM     19  C   UNL     1       1.252   2.856  20.380  0.00  0.00    +0.000 C 
BRANCH  19  20
ATOM     20  C   UNL     1       1.032   4.282  19.879  0.00  0.00    +0.000 C 
BRANCH  20  21
ATOM     21  C   UNL     1       1.875   5.285  20.661  0.00  0.00    +0.000 C 
ATOM     22  C   UNL     1       2.436   6.360  19.744  0.00  0.00    +0.000 C 
ENDBRANCH  20  21
ENDBRANCH  19  20
ENDBRANCH  18  19
ENDBRANCH  17  18
ENDBRANCH  16  17
ENDBRANCH  15  16
ENDBRANCH  14  15
ENDBRANCH  13  14
ENDBRANCH  12  13
ENDBRANCH   2  12
TORSDOF 13
ENDMDL
MODEL 3
REMARK VINA RESULT:      -6.0      3.041      4.910
REMARK  Name = 
REMARK  15 active torsions:
REMARK  status: ('A' for Active; 'I' for Inactive)
REMARK    1  A    between atoms: C_1  and  C_2
REMARK    2  A    between atoms: CA_3  and  N_4
REMARK    3  A    between atoms: CA_3  and  C_18
REMARK    4  A    between atoms: C_5  and  C_7
REMARK    5  A    between atoms: C_7  and  C_8
REMARK    6  A    between atoms: C_8  and  C_9
REMARK    7  A    between atoms: C_9  and  C_10
REMARK    8  A    between atoms: C_10  and  C_11
REMARK    9  A    between atoms: C_11  and  C_12
REMARK   10  A    between atoms: C_12  and  C_13
REMARK   11  A    between atoms: C_13  and  C_14
REMARK   12  A    between atoms: C_14  and  C_15
REMARK   13  A    between atoms: C_15  and  C_16
REMARK   14  A    between atoms: C_16  and  C_17
REMARK   15  A    between atoms: C_18  and  OXT_20
REMARK                            x       y       z     vdW  Elec       q    Type
REMARK                         _______ _______ _______ _____ _____    ______ ____
ROOT
ATOM      1  N   UNL     1       6.281   3.759  14.219  0.00  0.00    +0.000 N 
ATOM      2  C   UNL     1       5.909   4.762  15.098  0.00  0.00    +0.000 C 
ATOM      3  O   UNL     1       5.596   5.908  14.784  0.00  0.00    +0.000 OA
ATOM      4  H   UNL     1       6.297   2.813  14.593  0.00  0.00    +0.000 HD
ENDROOT
BRANCH   1   7
ATOM      5  C   UNL     1       8.422   5.556  12.759  0.00  0.00    +0.000 C 
ATOM      6  C   UNL     1       7.355   4.668  12.205  0.00  0.00    +0.000 C 
ATOM      7  CA  UNL     1       6.493   3.861  12.854  0.00  0.00    +0.000 C 
BRANCH   7   8
ATOM      8  C   UNL     1       5.719   2.916  11.969  0.00  0.00    +0.000 C 
ATOM      9  O   UNL     1       4.586   3.095  11.559  0.00  0.00    +0.000 OA
BRANCH   8  10
ATOM     10  OXT UNL     1       6.459   1.828  11.648  0.00  0.00    +0.000 OA
ATOM     11  HXT UNL     1       7.395   1.943  11.902  0.00  0.00    +0.000 HD
ENDBRANCH   8  10
ENDBRANCH   7   8
ENDBRANCH   1   7
BRANCH   2  12
ATOM     12  C   UNL     1       5.867   4.319  16.547  0.00  0.00    +0.000 C 
BRANCH  12  13
ATOM     13  C   UNL     1       4.472   4.548  17.114  0.00  0.00    +0.000 C 
BRANCH  13  14
ATOM     14  C   UNL     1       4.380   5.850  17.909  0.00  0.00    +0.000 C 
BRANCH  14  15
ATOM     15  C   UNL     1       3.912   5.559  19.334  0.00  0.00    +0.000 C 
BRANCH  15  16
ATOM     16  C   UNL     1       2.500   6.080  19.581  0.00  0.00    +0.000 C 
BRANCH  16  17
ATOM     17  C   UNL     1       1.886   5.426  20.817  0.00  0.00    +0.000 C 
BRANCH  17  18
ATOM     18  C   UNL     1       0.924   4.313  20.411  0.00  0.00    +0.000 C 
BRANCH  18  19
ATOM     19  C   UNL     1       1.265   2.995  21.104  0.00  0.00    +0.000 C 
BRANCH  19  20
ATOM     20  C   UNL     1       2.513   2.374  20.481  0.00  0.00    +0.000 C 
BRANCH  20  21
ATOM     21  C   UNL     1       2.308   2.074  18.998  0.00  0.00    +0.000 C 
ATOM     22  C   UNL     1       3.559   1.466  18.386  0.00  0.00    +0.000 C 
ENDBRANCH  20  21
ENDBRANCH  19  20
ENDBRANCH  18  19
ENDBRANCH  17  18
ENDBRANCH  16  17
ENDBRANCH  15  16
ENDBRANCH  14  15
ENDBRANCH  13  14
ENDBRANCH  12  13
ENDBRANCH   2  12
TORSDOF 13
ENDMDL
MODEL 4
REMARK VINA RESULT:      -5.9      2.127      3.961
REMARK  Name = 
REMARK  15 active torsions:
REMARK  status: ('A' for Active; 'I' for Inactive)
REMARK    1  A    between atoms: C_1  and  C_2
REMARK    2  A    between atoms: CA_3  and  N_4
REMARK    3  A    between atoms: CA_3  and  C_18
REMARK    4  A    between atoms: C_5  and  C_7
REMARK    5  A    between atoms: C_7  and  C_8
REMARK    6  A    between atoms: C_8  and  C_9
REMARK    7  A    between atoms: C_9  and  C_10
REMARK    8  A    between atoms: C_10  and  C_11
REMARK    9  A    between atoms: C_11  and  C_12
REMARK   10  A    between atoms: C_12  and  C_13
REMARK   11  A    between atoms: C_13  and  C_14
REMARK   12  A    between atoms: C_14  and  C_15
REMARK   13  A    between atoms: C_15  and  C_16
REMARK   14  A    between atoms: C_16  and  C_17
REMARK   15  A    between atoms: C_18  and  OXT_20
REMARK                            x       y       z     vdW  Elec       q    Type
REMARK                         _______ _______ _______ _____ _____    ______ ____
ROOT
ATOM      1  N   UNL     1       5.876   4.011  17.717  0.00  0.00    +0.000 N 
ATOM      2  C   UNL     1       4.530   3.819  17.460  0.00  0.00    +0.000 C 
ATOM      3  O   UNL     1       3.825   4.539  16.757  0.00  0.00    +0.000 OA
ATOM      4  H   UNL     1       6.374   3.226  18.128  0.00  0.00    +0.000 HD
ENDROOT
BRANCH   1   7
ATOM      5  C   UNL     1       7.890   5.601  19.550  0.00  0.00    +0.000 C 
ATOM      6  C   UNL     1       7.484   5.823  18.129  0.00  0.00    +0.000 C 
ATOM      7  CA  UNL     1       6.666   5.089  17.350  0.00  0.00    +0.000 C 
BRANCH   7   8
ATOM      8  C   UNL     1       6.676   5.462  15.889  0.00  0.00    +0.000 C 
ATOM      9  O   UNL     1       5.978   6.315  15.370  0.00  0.00    +0.000 OA
BRANCH   8  10
ATOM     10  OXT UNL     1       7.597   4.743  15.205  0.00  0.00    +0.000 OA
ATOM     11  HXT UNL     1       8.430   5.241  15.093  0.00  0.00    +0.000 HD
ENDBRANCH   8  10
ENDBRANCH   7   8
ENDBRANCH   1   7
BRANCH   2  12
ATOM     12  C   UNL     1       3.958   2.570  18.101  0.00  0.00    +0.000 C 
BRANCH  12  13
ATOM     13  C   UNL     1       2.613   2.237  17.468  0.00  0.00    +0.000 C 
BRANCH  13  14
ATOM     14  C   UNL     1       1.486   3.111  18.016  0.00  0.00    +0.000 C 
BRANCH  14  15
ATOM     15  C   UNL     1       0.725   2.358  19.106  0.00  0.00    +0.000 C 
BRANCH  15  16
ATOM     16  C   UNL     1       1.111   2.842  20.500  0.00  0.00    +0.000 C 
BRANCH  16  17
ATOM     17  C   UNL     1       1.017   4.364  20.594  0.00  0.00    +0.000 C 
BRANCH  17  18
ATOM     18  C   UNL     1       2.339   4.952  21.076  0.00  0.00    +0.000 C 
BRANCH  18  19
ATOM     19  C   UNL     1       3.072   5.686  19.955  0.00  0.00    +0.000 C 
BRANCH  19  20
ATOM     20  C   UNL     1       2.297   6.935  19.542  0.00  0.00    +0.000 C 
BRANCH  20  21
ATOM     21  C   UNL     1       2.884   7.566  18.282  0.00  0.00    +0.000 C 
ATOM     22  C   UNL     1       1.971   8.653  17.738  0.00  0.00    +0.000 C 
ENDBRANCH  20  21
ENDBRANCH  19  20
ENDBRANCH  18  19
ENDBRANCH  17  18
ENDBRANCH  16  17
ENDBRANCH  15  16
ENDBRANCH  14  15
ENDBRANCH  13  14
ENDBRANCH  12  13
ENDBRANCH   2  12
TORSDOF 13
ENDMDL
MODEL 5
REMARK VINA RESULT:      -5.9      2.049      4.101
REMARK  Name = 
REMARK  15 active torsions:
REMARK  status: ('A' for Active; 'I' for Inactive)
REMARK    1  A    between atoms: C_1  and  C_2
REMARK    2  A    between atoms: CA_3  and  N_4
REMARK    3  A    between atoms: CA_3  and  C_18
REMARK    4  A    between atoms: C_5  and  C_7
REMARK    5  A    between atoms: C_7  and  C_8
REMARK    6  A    between atoms: C_8  and  C_9
REMARK    7  A    between atoms: C_9  and  C_10
REMARK    8  A    between atoms: C_10  and  C_11
REMARK    9  A    between atoms: C_11  and  C_12
REMARK   10  A    between atoms: C_12  and  C_13
REMARK   11  A    between atoms: C_13  and  C_14
REMARK   12  A    between atoms: C_14  and  C_15
REMARK   13  A    between atoms: C_15  and  C_16
REMARK   14  A    between atoms: C_16  and  C_17
REMARK   15  A    between atoms: C_18  and  OXT_20
REMARK                            x       y       z     vdW  Elec       q    Type
REMARK                         _______ _______ _______ _____ _____    ______ ____
ROOT
ATOM      1  N   UNL     1       5.714   3.618  17.514  0.00  0.00    +0.000 N 
ATOM      2  C   UNL     1       4.385   3.527  17.139  0.00  0.00    +0.000 C 
ATOM      3  O   UNL     1       3.779   4.342  16.447  0.00  0.00    +0.000 OA
ATOM      4  H   UNL     1       6.136   2.774  17.893  0.00  0.00    +0.000 HD
ENDROOT
BRANCH   1   7
ATOM      5  C   UNL     1       6.774   4.673  14.737  0.00  0.00    +0.000 C 
ATOM      6  C   UNL     1       7.103   5.100  16.131  0.00  0.00    +0.000 C 
ATOM      7  CA  UNL     1       6.587   4.673  17.300  0.00  0.00    +0.000 C 
BRANCH   7   8
ATOM      8  C   UNL     1       6.969   5.499  18.502  0.00  0.00    +0.000 C 
ATOM      9  O   UNL     1       7.577   6.555  18.473  0.00  0.00    +0.000 OA
BRANCH   8  10
ATOM     10  OXT UNL     1       6.522   4.934  19.649  0.00  0.00    +0.000 OA
ATOM     11  HXT UNL     1       6.410   5.598  20.356  0.00  0.00    +0.000 HD
ENDBRANCH   8  10
ENDBRANCH   7   8
ENDBRANCH   1   7
BRANCH   2  12
ATOM     12  C   UNL     1       3.698   2.267  17.626  0.00  0.00    +0.000 C 
BRANCH  12  13
ATOM     13  C   UNL     1       2.237   2.565  17.938  0.00  0.00    +0.000 C 
BRANCH  13  14
ATOM     14  C   UNL     1       1.823   2.040  19.312  0.00  0.00    +0.000 C 
BRANCH  14  15
ATOM     15  C   UNL     1       2.658   2.712  20.401  0.00  0.00    +0.000 C 
BRANCH  15  16
ATOM     16  C   UNL     1       1.815   3.650  21.259  0.00  0.00    +0.000 C 
BRANCH  16  17
ATOM     17  C   UNL     1       1.151   4.725  20.399  0.00  0.00    +0.000 C 
BRANCH  17  18
ATOM     18  C   UNL     1       1.916   6.040  20.503  0.00  0.00    +0.000 C 
BRANCH  18  19
ATOM     19  C   UNL     1       2.946   6.182  19.383  0.00  0.00    +0.000 C 
BRANCH  19  20
ATOM     20  C   UNL     1       2.339   6.921  18.193  0.00  0.00    +0.000 C 
BRANCH  20  21
ATOM     21  C   UNL     1       2.531   8.430  18.315  0.00  0.00    +0.000 C 
ATOM     22  C   UNL     1       1.287   9.178  17.866  0.00  0.00    +0.000 C 
ENDBRANCH  20  21
ENDBRANCH  19  20
ENDBRANCH  18  19
ENDBRANCH  17  18
ENDBRANCH  16  17
ENDBRANCH  15  16
ENDBRANCH  14  15
ENDBRANCH  13  14
ENDBRANCH  12  13
ENDBRANCH   2  12
TORSDOF 13
ENDMDL
MODEL 6
REMARK VINA RESULT:      -5.9      2.109      4.107
REMARK  Name = 
REMARK  15 active torsions:
REMARK  status: ('A' for Active; 'I' for Inactive)
REMARK    1  A    between atoms: C_1  and  C_2
REMARK    2  A    between atoms: CA_3  and  N_4
REMARK    3  A    between atoms: CA_3  and  C_18
REMARK    4  A    between atoms: C_5  and  C_7
REMARK    5  A    between atoms: C_7  and  C_8
REMARK    6  A    between atoms: C_8  and  C_9
REMARK    7  A    between atoms: C_9  and  C_10
REMARK    8  A    between atoms: C_10  and  C_11
REMARK    9  A    between atoms: C_11  and  C_12
REMARK   10  A    between atoms: C_12  and  C_13
REMARK   11  A    between atoms: C_13  and  C_14
REMARK   12  A    between atoms: C_14  and  C_15
REMARK   13  A    between atoms: C_15  and  C_16
REMARK   14  A    between atoms: C_16  and  C_17
REMARK   15  A    between atoms: C_18  and  OXT_20
REMARK                            x       y       z     vdW  Elec       q    Type
REMARK                         _______ _______ _______ _____ _____    ______ ____
ROOT
ATOM      1  N   UNL     1       4.906   4.830  16.192  0.00  0.00    +0.000 N 
ATOM      2  C   UNL     1       4.465   3.932  17.149  0.00  0.00    +0.000 C 
ATOM      3  O   UNL     1       5.169   3.379  17.990  0.00  0.00    +0.000 OA
ATOM      4  H   UNL     1       4.189   5.371  15.715  0.00  0.00    +0.000 HD
ENDROOT
BRANCH   1   7
ATOM      5  C   UNL     1       6.913   6.356  18.086  0.00  0.00    +0.000 C 
ATOM      6  C   UNL     1       7.066   5.899  16.672  0.00  0.00    +0.000 C 
ATOM      7  CA  UNL     1       6.212   5.192  15.905  0.00  0.00    +0.000 C 
BRANCH   7   8
ATOM      8  C   UNL     1       6.793   4.687  14.608  0.00  0.00    +0.000 C 
ATOM      9  O   UNL     1       6.393   3.724  13.978  0.00  0.00    +0.000 OA
BRANCH   8  10
ATOM     10  OXT UNL     1       7.821   5.467  14.194  0.00  0.00    +0.000 OA
ATOM     11  HXT UNL     1       8.651   5.241  14.657  0.00  0.00    +0.000 HD
ENDBRANCH   8  10
ENDBRANCH   7   8
ENDBRANCH   1   7
BRANCH   2  12
ATOM     12  C   UNL     1       2.967   3.698  17.121  0.00  0.00    +0.000 C 
BRANCH  12  13
ATOM     13  C   UNL     1       2.674   2.220  17.351  0.00  0.00    +0.000 C 
BRANCH  13  14
ATOM     14  C   UNL     1       2.238   1.937  18.787  0.00  0.00    +0.000 C 
BRANCH  14  15
ATOM     15  C   UNL     1       0.856   2.540  19.042  0.00  0.00    +0.000 C 
BRANCH  15  16
ATOM     16  C   UNL     1       0.752   3.138  20.440  0.00  0.00    +0.000 C 
BRANCH  16  17
ATOM     17  C   UNL     1       1.144   4.615  20.433  0.00  0.00    +0.000 C 
BRANCH  17  18
ATOM     18  C   UNL     1       2.614   4.779  20.807  0.00  0.00    +0.000 C 
BRANCH  18  19
ATOM     19  C   UNL     1       3.271   5.912  20.022  0.00  0.00    +0.000 C 
BRANCH  19  20
ATOM     20  C   UNL     1       2.239   6.978  19.662  0.00  0.00    +0.000 C 
BRANCH  20  21
ATOM     21  C   UNL     1       2.154   7.187  18.153  0.00  0.00    +0.000 C 
ATOM     22  C   UNL     1       3.484   7.662  17.590  0.00  0.00    +0.000 C 
ENDBRANCH  20  21
ENDBRANCH  19  20
ENDBRANCH  18  19
ENDBRANCH  17  18
ENDBRANCH  16  17
ENDBRANCH  15  16
ENDBRANCH  14  15
ENDBRANCH  13  14
ENDBRANCH  12  13
ENDBRANCH   2  12
TORSDOF 13
ENDMDL
MODEL 7
REMARK VINA RESULT:      -5.8      2.792      6.079
REMARK  Name = 
REMARK  15 active torsions:
REMARK  status: ('A' for Active; 'I' for Inactive)
REMARK    1  A    between atoms: C_1  and  C_2
REMARK    2  A    between atoms: CA_3  and  N_4
REMARK    3  A    between atoms: CA_3  and  C_18
REMARK    4  A    between atoms: C_5  and  C_7
REMARK    5  A    between atoms: C_7  and  C_8
REMARK    6  A    between atoms: C_8  and  C_9
REMARK    7  A    between atoms: C_9  and  C_10
REMARK    8  A    between atoms: C_10  and  C_11
REMARK    9  A    between atoms: C_11  and  C_12
REMARK   10  A    between atoms: C_12  and  C_13
REMARK   11  A    between atoms: C_13  and  C_14
REMARK   12  A    between atoms: C_14  and  C_15
REMARK   13  A    between atoms: C_15  and  C_16
REMARK   14  A    between atoms: C_16  and  C_17
REMARK   15  A    between atoms: C_18  and  OXT_20
REMARK                            x       y       z     vdW  Elec       q    Type
REMARK                         _______ _______ _______ _____ _____    ______ ____
ROOT
ATOM      1  N   UNL     1       2.974   4.373  19.948  0.00  0.00    +0.000 N 
ATOM      2  C   UNL     1       1.683   4.786  20.226  0.00  0.00    +0.000 C 
ATOM      3  O   UNL     1       0.691   4.062  20.254  0.00  0.00    +0.000 OA
ATOM      4  H   UNL     1       3.717   5.029  20.176  0.00  0.00    +0.000 HD
ENDROOT
BRANCH   1   7
ATOM      5  C   UNL     1       2.833   3.190  17.028  0.00  0.00    +0.000 C 
ATOM      6  C   UNL     1       3.287   2.569  18.309  0.00  0.00    +0.000 C 
ATOM      7  CA  UNL     1       3.395   3.120  19.534  0.00  0.00    +0.000 C 
BRANCH   7   8
ATOM      8  C   UNL     1       4.126   2.275  20.547  0.00  0.00    +0.000 C 
ATOM      9  O   UNL     1       3.740   2.029  21.676  0.00  0.00    +0.000 OA
BRANCH   8  10
ATOM     10  OXT UNL     1       5.279   1.781  20.035  0.00  0.00    +0.000 OA
ATOM     11  HXT UNL     1       5.313   0.808  20.103  0.00  0.00    +0.000 HD
ENDBRANCH   8  10
ENDBRANCH   7   8
ENDBRANCH   1   7
BRANCH   2  12
ATOM     12  C   UNL     1       1.571   6.261  20.555  0.00  0.00    +0.000 C 
BRANCH  12  13
ATOM     13  C   UNL     1       2.635   7.040  19.792  0.00  0.00    +0.000 C 
BRANCH  13  14
ATOM     14  C   UNL     1       2.240   7.280  18.336  0.00  0.00    +0.000 C 
BRANCH  14  15
ATOM     15  C   UNL     1       3.469   7.682  17.521  0.00  0.00    +0.000 C 
BRANCH  15  16
ATOM     16  C   UNL     1       4.224   6.463  17.002  0.00  0.00    +0.000 C 
BRANCH  16  17
ATOM     17  C   UNL     1       5.468   6.192  17.847  0.00  0.00    +0.000 C 
BRANCH  17  18
ATOM     18  C   UNL     1       6.690   6.001  16.953  0.00  0.00    +0.000 C 
BRANCH  18  19
ATOM     19  C   UNL     1       7.055   4.525  16.808  0.00  0.00    +0.000 C 
BRANCH  19  20
ATOM     20  C   UNL     1       6.195   3.868  15.730  0.00  0.00    +0.000 C 
BRANCH  20  21
ATOM     21  C   UNL     1       6.234   4.658  14.425  0.00  0.00    +0.000 C 
ATOM     22  C   UNL     1       6.116   3.734  13.224  0.00  0.00    +0.000 C 
ENDBRANCH  20  21
ENDBRANCH  19  20
ENDBRANCH  18  19
ENDBRANCH  17  18
ENDBRANCH  16  17
ENDBRANCH  15  16
ENDBRANCH  14  15
ENDBRANCH  13  14
ENDBRANCH  12  13
ENDBRANCH   2  12
TORSDOF 13
ENDMDL
MODEL 8
REMARK VINA RESULT:      -5.8      2.120      3.941
REMARK  Name = 
REMARK  15 active torsions:
REMARK  status: ('A' for Active; 'I' for Inactive)
REMARK    1  A    between atoms: C_1  and  C_2
REMARK    2  A    between atoms: CA_3  and  N_4
REMARK    3  A    between atoms: CA_3  and  C_18
REMARK    4  A    between atoms: C_5  and  C_7
REMARK    5  A    between atoms: C_7  and  C_8
REMARK    6  A    between atoms: C_8  and  C_9
REMARK    7  A    between atoms: C_9  and  C_10
REMARK    8  A    between atoms: C_10  and  C_11
REMARK    9  A    between atoms: C_11  and  C_12
REMARK   10  A    between atoms: C_12  and  C_13
REMARK   11  A    between atoms: C_13  and  C_14
REMARK   12  A    between atoms: C_14  and  C_15
REMARK   13  A    between atoms: C_15  and  C_16
REMARK   14  A    between atoms: C_16  and  C_17
REMARK   15  A    between atoms: C_18  and  OXT_20
REMARK                            x       y       z     vdW  Elec       q    Type
REMARK                         _______ _______ _______ _____ _____    ______ ____
ROOT
ATOM      1  N   UNL     1       6.133   4.186  17.454  0.00  0.00    +0.000 N 
ATOM      2  C   UNL     1       4.788   3.888  17.582  0.00  0.00    +0.000 C 
ATOM      3  O   UNL     1       3.878   4.386  16.922  0.00  0.00    +0.000 OA
ATOM      4  H   UNL     1       6.783   3.545  17.902  0.00  0.00    +0.000 HD
ENDROOT
BRANCH   1   7
ATOM      5  C   UNL     1       7.707   6.732  18.447  0.00  0.00    +0.000 C 
ATOM      6  C   UNL     1       7.335   6.295  17.067  0.00  0.00    +0.000 C 
ATOM      7  CA  UNL     1       6.715   5.167  16.667  0.00  0.00    +0.000 C 
BRANCH   7   8
ATOM      8  C   UNL     1       6.724   4.933  15.177  0.00  0.00    +0.000 C 
ATOM      9  O   UNL     1       7.718   4.802  14.485  0.00  0.00    +0.000 OA
BRANCH   8  10
ATOM     10  OXT UNL     1       5.464   4.853  14.685  0.00  0.00    +0.000 OA
ATOM     11  HXT UNL     1       5.290   3.978  14.288  0.00  0.00    +0.000 HD
ENDBRANCH   8  10
ENDBRANCH   7   8
ENDBRANCH   1   7
BRANCH   2  12
ATOM     12  C   UNL     1       4.495   2.817  18.613  0.00  0.00    +0.000 C 
BRANCH  12  13
ATOM     13  C   UNL     1       3.425   1.871  18.083  0.00  0.00    +0.000 C 
BRANCH  13  14
ATOM     14  C   UNL     1       2.207   1.806  19.002  0.00  0.00    +0.000 C 
BRANCH  14  15
ATOM     15  C   UNL     1       1.184   2.862  18.589  0.00  0.00    +0.000 C 
BRANCH  15  16
ATOM     16  C   UNL     1       0.633   3.615  19.795  0.00  0.00    +0.000 C 
BRANCH  16  17
ATOM     17  C   UNL     1       1.703   3.775  20.873  0.00  0.00    +0.000 C 
BRANCH  17  18
ATOM     18  C   UNL     1       2.464   5.083  20.681  0.00  0.00    +0.000 C 
BRANCH  18  19
ATOM     19  C   UNL     1       1.555   6.296  20.870  0.00  0.00    +0.000 C 
BRANCH  19  20
ATOM     20  C   UNL     1       1.960   7.418  19.916  0.00  0.00    +0.000 C 
BRANCH  20  21
ATOM     21  C   UNL     1       3.074   6.974  18.972  0.00  0.00    +0.000 C 
ATOM     22  C   UNL     1       3.067   7.796  17.694  0.00  0.00    +0.000 C 
ENDBRANCH  20  21
ENDBRANCH  19  20
ENDBRANCH  18  19
ENDBRANCH  17  18
ENDBRANCH  16  17
ENDBRANCH  15  16
ENDBRANCH  14  15
ENDBRANCH  13  14
ENDBRANCH  12  13
ENDBRANCH   2  12
TORSDOF 13
ENDMDL
MODEL 9
REMARK VINA RESULT:      -5.8      2.667      7.111
REMARK  Name = 
REMARK  15 active torsions:
REMARK  status: ('A' for Active; 'I' for Inactive)
REMARK    1  A    between atoms: C_1  and  C_2
REMARK    2  A    between atoms: CA_3  and  N_4
REMARK    3  A    between atoms: CA_3  and  C_18
REMARK    4  A    between atoms: C_5  and  C_7
REMARK    5  A    between atoms: C_7  and  C_8
REMARK    6  A    between atoms: C_8  and  C_9
REMARK    7  A    between atoms: C_9  and  C_10
REMARK    8  A    between atoms: C_10  and  C_11
REMARK    9  A    between atoms: C_11  and  C_12
REMARK   10  A    between atoms: C_12  and  C_13
REMARK   11  A    between atoms: C_13  and  C_14
REMARK   12  A    between atoms: C_14  and  C_15
REMARK   13  A    between atoms: C_15  and  C_16
REMARK   14  A    between atoms: C_16  and  C_17
REMARK   15  A    between atoms: C_18  and  OXT_20
REMARK                            x       y       z     vdW  Elec       q    Type
REMARK                         _______ _______ _______ _____ _____    ______ ____
ROOT
ATOM      1  N   UNL     1       3.255   4.333  19.485  0.00  0.00    +0.000 N 
ATOM      2  C   UNL     1       2.736   4.659  18.244  0.00  0.00    +0.000 C 
ATOM      3  O   UNL     1       2.109   3.900  17.508  0.00  0.00    +0.000 OA
ATOM      4  H   UNL     1       3.551   5.111  20.069  0.00  0.00    +0.000 HD
ENDROOT
BRANCH   1   7
ATOM      5  C   UNL     1       1.071   3.103  21.397  0.00  0.00    +0.000 C 
ATOM      6  C   UNL     1       2.396   2.568  20.963  0.00  0.00    +0.000 C 
ATOM      7  CA  UNL     1       3.285   3.089  20.093  0.00  0.00    +0.000 C 
BRANCH   7   8
ATOM      8  C   UNL     1       4.406   2.161  19.698  0.00  0.00    +0.000 C 
ATOM      9  O   UNL     1       5.271   1.737  20.443  0.00  0.00    +0.000 OA
BRANCH   8  10
ATOM     10  OXT UNL     1       4.321   1.818  18.391  0.00  0.00    +0.000 OA
ATOM     11  HXT UNL     1       3.627   1.148  18.240  0.00  0.00    +0.000 HD
ENDBRANCH   8  10
ENDBRANCH   7   8
ENDBRANCH   1   7
BRANCH   2  12
ATOM     12  C   UNL     1       2.966   6.104  17.846  0.00  0.00    +0.000 C 
BRANCH  12  13
ATOM     13  C   UNL     1       4.460   6.399  17.822  0.00  0.00    +0.000 C 
BRANCH  13  14
ATOM     14  C   UNL     1       5.233   5.392  16.973  0.00  0.00    +0.000 C 
BRANCH  14  15
ATOM     15  C   UNL     1       6.552   6.005  16.506  0.00  0.00    +0.000 C 
BRANCH  15  16
ATOM     16  C   UNL     1       7.346   6.586  17.671  0.00  0.00    +0.000 C 
BRANCH  16  17
ATOM     17  C   UNL     1       7.794   8.015  17.366  0.00  0.00    +0.000 C 
BRANCH  17  18
ATOM     18  C   UNL     1       8.471   8.634  18.585  0.00  0.00    +0.000 C 
BRANCH  18  19
ATOM     19  C   UNL     1       8.862  10.089  18.334  0.00  0.00    +0.000 C 
BRANCH  19  20
ATOM     20  C   UNL     1       9.795  10.587  19.435  0.00  0.00    +0.000 C 
BRANCH  20  21
ATOM     21  C   UNL     1      10.414  11.935  19.075  0.00  0.00    +0.000 C 
ATOM     22  C   UNL     1      11.210  11.844  17.783  0.00  0.00    +0.000 C 
ENDBRANCH  20  21
ENDBRANCH  19  20
ENDBRANCH  18  19
ENDBRANCH  17  18
ENDBRANCH  16  17
ENDBRANCH  15  16
ENDBRANCH  14  15
ENDBRANCH  13  14
ENDBRANCH  12  13
ENDBRANCH   2  12
TORSDOF 13
ENDMDL
