MODEL 1
REMARK VINA RESULT:      -8.0      0.000      0.000
REMARK  Name = 
REMARK  12 active torsions:
REMARK  status: ('A' for Active; 'I' for Inactive)
REMARK    1  A    between atoms: C_1  and  C_2
REMARK    2  A    between atoms: C_2  and  N_3
REMARK    3  A    between atoms: N_3  and  C_4
REMARK    4  A    between atoms: N_3  and  C_6
REMARK    5  A    between atoms: C_4  and  C_5
REMARK    6  A    between atoms: C_6  and  C_7
REMARK    7  A    between atoms: C_7  and  C_8
REMARK    8  A    between atoms: C_8  and  N_9
REMARK    9  A    between atoms: N_9  and  C_10
REMARK   10  A    between atoms: N_24  and  C_25
REMARK   11  A    between atoms: C_25  and  C_26
REMARK   12  A    between atoms: C_26  and  N_27
REMARK                            x       y       z     vdW  Elec       q    Type
REMARK                         _______ _______ _______ _____ _____    ______ ____
ROOT
ATOM      1  C   UNL     1       1.068  10.386  19.348  0.00  0.00    +0.000 A 
ATOM      2  C   UNL     1       0.259  11.106  20.221  0.00  0.00    +0.000 A 
ATOM      3  C   UNL     1      -0.257  10.483  21.354  0.00  0.00    +0.000 A 
ATOM      4 CL   UNL     1      -1.268  11.379  22.421  0.00  0.00    +0.000 Cl
ATOM      5  C   UNL     1       0.035   9.146  21.640  0.00  0.00    +0.000 A 
ATOM      6  C   UNL     1       0.827   8.383  20.803  0.00  0.00    +0.000 A 
ATOM      7  N   UNL     1       1.085   7.110  21.147  0.00  0.00    +0.000 NA
ATOM      8  C   UNL     1       1.887   6.390  20.318  0.00  0.00    +0.000 A 
ATOM      9  C   UNL     1       2.344   5.043  20.456  0.00  0.00    +0.000 A 
ATOM     10  C   UNL     1       2.159   4.041  21.433  0.00  0.00    +0.000 A 
ATOM     11  C   UNL     1       2.756   2.788  21.271  0.00  0.00    +0.000 A 
ATOM     12  C   UNL     1       3.532   2.514  20.153  0.00  0.00    +0.000 A 
ATOM     13  C   UNL     1       3.735   3.489  19.171  0.00  0.00    +0.000 A 
ATOM     14  C   UNL     1       3.139   4.754  19.344  0.00  0.00    +0.000 A 
ATOM     15  N   UNL     1       3.178   5.895  18.549  0.00  0.00    +0.000 N 
ATOM     16  C   UNL     1       2.404   6.895  19.130  0.00  0.00    +0.000 A 
ATOM     17  C   UNL     1       2.085   8.214  18.782  0.00  0.00    +0.000 A 
ATOM     18  C   UNL     1       1.314   9.004  19.638  0.00  0.00    +0.000 A 
ENDROOT
BRANCH   1  19
ATOM     19  N   UNL     1       1.628  10.958  18.190  0.00  0.00    +0.000 N 
ATOM     20  H   UNL     1       0.920  11.092  17.470  0.00  0.00    +0.000 HD
BRANCH  19  21
ATOM     21  C   UNL     1       2.585  12.071  18.254  0.00  0.00    +0.000 C 
BRANCH  21  22
ATOM     22  C   UNL     1       1.806  13.372  18.024  0.00  0.00    +0.000 C 
BRANCH  22  23
ATOM     23  C   UNL     1       1.984  14.441  19.112  0.00  0.00    +0.000 C 
BRANCH  23  24
ATOM     24  N   UNL     1       2.541  15.727  18.656  0.00  0.00    +0.000 NA
BRANCH  24  26
ATOM     25  C   UNL     1       4.901  15.263  17.915  0.00  0.00    +0.000 C 
ATOM     26  C   UNL     1       3.462  15.570  17.517  0.00  0.00    +0.000 C 
ENDBRANCH  24  26
BRANCH  24  27
ATOM     27  C   UNL     1       1.480  16.727  18.427  0.00  0.00    +0.000 C 
ATOM     28  C   UNL     1       1.673  17.688  17.256  0.00  0.00    +0.000 C 
ENDBRANCH  24  27
ENDBRANCH  23  24
ENDBRANCH  22  23
ENDBRANCH  21  22
ENDBRANCH  19  21
ENDBRANCH   1  19
BRANCH  15  29
ATOM     29  C   UNL     1       3.901   5.931  17.271  0.00  0.00    +0.000 C 
BRANCH  29  30
ATOM     30  C   UNL     1       5.088   6.891  17.232  0.00  0.00    +0.000 C 
BRANCH  30  31
ATOM     31  N   UNL     1       6.324   6.497  16.523  0.00  0.00    +0.000 NA
ATOM     32  C   UNL     1       6.443   5.009  16.590  0.00  0.00    +0.000 C 
ATOM     33  C   UNL     1       6.734   4.469  18.006  0.00  0.00    +0.000 C 
ATOM     34  O   UNL     1       7.910   5.060  18.572  0.00  0.00    +0.000 OA
ATOM     35  C   UNL     1       7.840   6.492  18.570  0.00  0.00    +0.000 C 
ATOM     36  C   UNL     1       7.548   7.045  17.160  0.00  0.00    +0.000 C 
ENDBRANCH  30  31
ENDBRANCH  29  30
ENDBRANCH  15  29
TORSDOF 10
ENDMDL
MODEL 2
REMARK VINA RESULT:      -7.9      0.380      1.157
REMARK  Name = 
REMARK  12 active torsions:
REMARK  status: ('A' for Active; 'I' for Inactive)
REMARK    1  A    between atoms: C_1  and  C_2
REMARK    2  A    between atoms: C_2  and  N_3
REMARK    3  A    between atoms: N_3  and  C_4
REMARK    4  A    between atoms: N_3  and  C_6
REMARK    5  A    between atoms: C_4  and  C_5
REMARK    6  A    between atoms: C_6  and  C_7
REMARK    7  A    between atoms: C_7  and  C_8
REMARK    8  A    between atoms: C_8  and  N_9
REMARK    9  A    between atoms: N_9  and  C_10
REMARK   10  A    between atoms: N_24  and  C_25
REMARK   11  A    between atoms: C_25  and  C_26
REMARK   12  A    between atoms: C_26  and  N_27
REMARK                            x       y       z     vdW  Elec       q    Type
REMARK                         _______ _______ _______ _____ _____    ______ ____
ROOT
ATOM      1  C   UNL     1       1.083  10.336  19.327  0.00  0.00    +0.000 A 
ATOM      2  C   UNL     1       0.253  11.053  20.182  0.00  0.00    +0.000 A 
ATOM      3  C   UNL     1      -0.281  10.431  21.306  0.00  0.00    +0.000 A 
ATOM      4 CL   UNL     1      -1.318  11.324  22.351  0.00  0.00    +0.000 Cl
ATOM      5  C   UNL     1       0.011   9.096  21.601  0.00  0.00    +0.000 A 
ATOM      6  C   UNL     1       0.823   8.335  20.781  0.00  0.00    +0.000 A 
ATOM      7  N   UNL     1       1.080   7.064  21.133  0.00  0.00    +0.000 NA
ATOM      8  C   UNL     1       1.901   6.345  20.321  0.00  0.00    +0.000 A 
ATOM      9  C   UNL     1       2.362   5.001  20.472  0.00  0.00    +0.000 A 
ATOM     10  C   UNL     1       2.163   4.000  21.448  0.00  0.00    +0.000 A 
ATOM     11  C   UNL     1       2.769   2.750  21.300  0.00  0.00    +0.000 A 
ATOM     12  C   UNL     1       3.568   2.477  20.198  0.00  0.00    +0.000 A 
ATOM     13  C   UNL     1       3.786   3.451  19.217  0.00  0.00    +0.000 A 
ATOM     14  C   UNL     1       3.180   4.713  19.376  0.00  0.00    +0.000 A 
ATOM     15  N   UNL     1       3.229   5.853  18.580  0.00  0.00    +0.000 N 
ATOM     16  C   UNL     1       2.440   6.850  19.142  0.00  0.00    +0.000 A 
ATOM     17  C   UNL     1       2.122   8.167  18.786  0.00  0.00    +0.000 A 
ATOM     18  C   UNL     1       1.330   8.956  19.625  0.00  0.00    +0.000 A 
ENDROOT
BRANCH   1  19
ATOM     19  N   UNL     1       1.663  10.908  18.178  0.00  0.00    +0.000 N 
ATOM     20  H   UNL     1       1.017  10.881  17.391  0.00  0.00    +0.000 HD
BRANCH  19  21
ATOM     21  C   UNL     1       2.434  12.157  18.234  0.00  0.00    +0.000 C 
BRANCH  21  22
ATOM     22  C   UNL     1       1.435  13.321  18.279  0.00  0.00    +0.000 C 
BRANCH  22  23
ATOM     23  C   UNL     1       1.921  14.572  19.025  0.00  0.00    +0.000 C 
BRANCH  23  24
ATOM     24  N   UNL     1       2.835  15.448  18.271  0.00  0.00    +0.000 NA
BRANCH  24  26
ATOM     25  C   UNL     1       2.485  17.451  16.787  0.00  0.00    +0.000 C 
ATOM     26  C   UNL     1       2.336  16.831  18.171  0.00  0.00    +0.000 C 
ENDBRANCH  24  26
BRANCH  24  27
ATOM     27  C   UNL     1       4.218  15.351  18.776  0.00  0.00    +0.000 C 
ATOM     28  C   UNL     1       5.276  14.834  17.803  0.00  0.00    +0.000 C 
ENDBRANCH  24  27
ENDBRANCH  23  24
ENDBRANCH  22  23
ENDBRANCH  21  22
ENDBRANCH  19  21
ENDBRANCH   1  19
BRANCH  15  29
ATOM     29  C   UNL     1       3.977   5.889  17.316  0.00  0.00    +0.000 C 
BRANCH  29  30
ATOM     30  C   UNL     1       5.121   6.900  17.276  0.00  0.00    +0.000 C 
BRANCH  30  31
ATOM     31  N   UNL     1       6.358   6.576  16.535  0.00  0.00    +0.000 NA
ATOM     32  C   UNL     1       6.491   5.089  16.481  0.00  0.00    +0.000 C 
ATOM     33  C   UNL     1       6.792   4.439  17.848  0.00  0.00    +0.000 C 
ATOM     34  O   UNL     1       7.964   4.994  18.457  0.00  0.00    +0.000 OA
ATOM     35  C   UNL     1       7.881   6.421  18.570  0.00  0.00    +0.000 C 
ATOM     36  C   UNL     1       7.579   7.082  17.210  0.00  0.00    +0.000 C 
ENDBRANCH  30  31
ENDBRANCH  29  30
ENDBRANCH  15  29
TORSDOF 10
ENDMDL
MODEL 3
REMARK VINA RESULT:      -7.8      0.731      1.275
REMARK  Name = 
REMARK  12 active torsions:
REMARK  status: ('A' for Active; 'I' for Inactive)
REMARK    1  A    between atoms: C_1  and  C_2
REMARK    2  A    between atoms: C_2  and  N_3
REMARK    3  A    between atoms: N_3  and  C_4
REMARK    4  A    between atoms: N_3  and  C_6
REMARK    5  A    between atoms: C_4  and  C_5
REMARK    6  A    between atoms: C_6  and  C_7
REMARK    7  A    between atoms: C_7  and  C_8
REMARK    8  A    between atoms: C_8  and  N_9
REMARK    9  A    between atoms: N_9  and  C_10
REMARK   10  A    between atoms: N_24  and  C_25
REMARK   11  A    between atoms: C_25  and  C_26
REMARK   12  A    between atoms: C_26  and  N_27
REMARK                            x       y       z     vdW  Elec       q    Type
REMARK                         _______ _______ _______ _____ _____    ______ ____
ROOT
ATOM      1  C   UNL     1       1.094  10.479  19.503  0.00  0.00    +0.000 A 
ATOM      2  C   UNL     1       0.280  11.187  20.382  0.00  0.00    +0.000 A 
ATOM      3  C   UNL     1      -0.263  10.542  21.489  0.00  0.00    +0.000 A 
ATOM      4 CL   UNL     1      -1.280  11.424  22.563  0.00  0.00    +0.000 Cl
ATOM      5  C   UNL     1       0.005   9.194  21.744  0.00  0.00    +0.000 A 
ATOM      6  C   UNL     1       0.801   8.442  20.900  0.00  0.00    +0.000 A 
ATOM      7  N   UNL     1       1.035   7.157  21.215  0.00  0.00    +0.000 NA
ATOM      8  C   UNL     1       1.840   6.447  20.380  0.00  0.00    +0.000 A 
ATOM      9  C   UNL     1       2.277   5.090  20.490  0.00  0.00    +0.000 A 
ATOM     10  C   UNL     1       2.061   4.066  21.437  0.00  0.00    +0.000 A 
ATOM     11  C   UNL     1       2.644   2.810  21.251  0.00  0.00    +0.000 A 
ATOM     12  C   UNL     1       3.435   2.553  20.139  0.00  0.00    +0.000 A 
ATOM     13  C   UNL     1       3.667   3.551  19.186  0.00  0.00    +0.000 A 
ATOM     14  C   UNL     1       3.086   4.819  19.383  0.00  0.00    +0.000 A 
ATOM     15  N   UNL     1       3.154   5.980  18.620  0.00  0.00    +0.000 N 
ATOM     16  C   UNL     1       2.385   6.975  19.214  0.00  0.00    +0.000 A 
ATOM     17  C   UNL     1       2.090   8.307  18.897  0.00  0.00    +0.000 A 
ATOM     18  C   UNL     1       1.316   9.087  19.761  0.00  0.00    +0.000 A 
ENDROOT
BRANCH   1  19
ATOM     19  N   UNL     1       1.681  11.073  18.370  0.00  0.00    +0.000 N 
ATOM     20  H   UNL     1       1.519  10.508  17.537  0.00  0.00    +0.000 HD
BRANCH  19  21
ATOM     21  C   UNL     1       1.578  12.514  18.104  0.00  0.00    +0.000 C 
BRANCH  21  22
ATOM     22  C   UNL     1       2.709  13.213  18.870  0.00  0.00    +0.000 C 
BRANCH  22  23
ATOM     23  C   UNL     1       2.310  14.516  19.579  0.00  0.00    +0.000 C 
BRANCH  23  24
ATOM     24  N   UNL     1       1.349  15.366  18.854  0.00  0.00    +0.000 NA
BRANCH  24  26
ATOM     25  C   UNL     1       0.109  15.086  21.027  0.00  0.00    +0.000 C 
ATOM     26  C   UNL     1       0.060  15.486  19.557  0.00  0.00    +0.000 C 
ENDBRANCH  24  26
BRANCH  24  27
ATOM     27  C   UNL     1       1.946  16.663  18.483  0.00  0.00    +0.000 C 
ATOM     28  C   UNL     1       3.070  16.638  17.449  0.00  0.00    +0.000 C 
ENDBRANCH  24  27
ENDBRANCH  23  24
ENDBRANCH  22  23
ENDBRANCH  21  22
ENDBRANCH  19  21
ENDBRANCH   1  19
BRANCH  15  29
ATOM     29  C   UNL     1       3.898   6.040  17.355  0.00  0.00    +0.000 C 
BRANCH  29  30
ATOM     30  C   UNL     1       5.106   6.975  17.365  0.00  0.00    +0.000 C 
BRANCH  30  31
ATOM     31  N   UNL     1       6.322   6.607  16.609  0.00  0.00    +0.000 NA
ATOM     32  C   UNL     1       6.402   5.116  16.556  0.00  0.00    +0.000 C 
ATOM     33  C   UNL     1       6.696   4.457  17.920  0.00  0.00    +0.000 C 
ATOM     34  O   UNL     1       7.893   4.971  18.515  0.00  0.00    +0.000 OA
ATOM     35  C   UNL     1       7.862   6.400  18.627  0.00  0.00    +0.000 C 
ATOM     36  C   UNL     1       7.568   7.071  17.270  0.00  0.00    +0.000 C 
ENDBRANCH  30  31
ENDBRANCH  29  30
ENDBRANCH  15  29
TORSDOF 10
ENDMDL
MODEL 4
REMARK VINA RESULT:      -7.8      1.812      3.122
REMARK  Name = 
REMARK  12 active torsions:
REMARK  status: ('A' for Active; 'I' for Inactive)
REMARK    1  A    between atoms: C_1  and  C_2
REMARK    2  A    between atoms: C_2  and  N_3
REMARK    3  A    between atoms: N_3  and  C_4
REMARK    4  A    between atoms: N_3  and  C_6
REMARK    5  A    between atoms: C_4  and  C_5
REMARK    6  A    between atoms: C_6  and  C_7
REMARK    7  A    between atoms: C_7  and  C_8
REMARK    8  A    between atoms: C_8  and  N_9
REMARK    9  A    between atoms: N_9  and  C_10
REMARK   10  A    between atoms: N_24  and  C_25
REMARK   11  A    between atoms: C_25  and  C_26
REMARK   12  A    between atoms: C_26  and  N_27
REMARK                            x       y       z     vdW  Elec       q    Type
REMARK                         _______ _______ _______ _____ _____    ______ ____
ROOT
ATOM      1  C   UNL     1       0.867  10.467  20.031  0.00  0.00    +0.000 A 
ATOM      2  C   UNL     1       0.060  11.082  20.983  0.00  0.00    +0.000 A 
ATOM      3  C   UNL     1      -0.434  10.339  22.051  0.00  0.00    +0.000 A 
ATOM      4 CL   UNL     1      -1.442  11.107  23.217  0.00  0.00    +0.000 Cl
ATOM      5  C   UNL     1      -0.123   8.984  22.193  0.00  0.00    +0.000 A 
ATOM      6  C   UNL     1       0.667   8.322  21.272  0.00  0.00    +0.000 A 
ATOM      7  N   UNL     1       0.945   7.023  21.480  0.00  0.00    +0.000 NA
ATOM      8  C   UNL     1       1.744   6.402  20.571  0.00  0.00    +0.000 A 
ATOM      9  C   UNL     1       2.218   5.055  20.564  0.00  0.00    +0.000 A 
ATOM     10  C   UNL     1       2.057   3.955  21.434  0.00  0.00    +0.000 A 
ATOM     11  C   UNL     1       2.667   2.733  21.136  0.00  0.00    +0.000 A 
ATOM     12  C   UNL     1       3.432   2.586  19.986  0.00  0.00    +0.000 A 
ATOM     13  C   UNL     1       3.611   3.660  19.109  0.00  0.00    +0.000 A 
ATOM     14  C   UNL     1       3.003   4.892  19.419  0.00  0.00    +0.000 A 
ATOM     15  N   UNL     1       3.018   6.110  18.747  0.00  0.00    +0.000 N 
ATOM     16  C   UNL     1       2.241   7.035  19.436  0.00  0.00    +0.000 A 
ATOM     17  C   UNL     1       1.902   8.378  19.231  0.00  0.00    +0.000 A 
ATOM     18  C   UNL     1       1.133   9.066  20.173  0.00  0.00    +0.000 A 
ENDROOT
BRANCH   1  19
ATOM     19  N   UNL     1       1.406  11.163  18.932  0.00  0.00    +0.000 N 
ATOM     20  H   UNL     1       1.178  10.694  18.056  0.00  0.00    +0.000 HD
BRANCH  19  21
ATOM     21  C   UNL     1       1.333  12.627  18.824  0.00  0.00    +0.000 C 
BRANCH  21  22
ATOM     22  C   UNL     1      -0.147  13.026  18.876  0.00  0.00    +0.000 C 
BRANCH  22  23
ATOM     23  C   UNL     1      -1.030  12.405  17.783  0.00  0.00    +0.000 C 
BRANCH  23  24
ATOM     24  N   UNL     1      -1.880  11.281  18.214  0.00  0.00    +0.000 NA
BRANCH  24  26
ATOM     25  C   UNL     1      -3.470  12.378  19.828  0.00  0.00    +0.000 C 
ATOM     26  C   UNL     1      -3.269  11.694  18.481  0.00  0.00    +0.000 C 
ENDBRANCH  24  26
BRANCH  24  27
ATOM     27  C   UNL     1      -1.768  10.134  17.292  0.00  0.00    +0.000 C 
ATOM     28  C   UNL     1      -2.569  10.208  15.994  0.00  0.00    +0.000 C 
ENDBRANCH  24  27
ENDBRANCH  23  24
ENDBRANCH  22  23
ENDBRANCH  21  22
ENDBRANCH  19  21
ENDBRANCH   1  19
BRANCH  15  29
ATOM     29  C   UNL     1       3.724   6.288  17.470  0.00  0.00    +0.000 C 
BRANCH  29  30
ATOM     30  C   UNL     1       5.008   7.110  17.557  0.00  0.00    +0.000 C 
BRANCH  30  31
ATOM     31  N   UNL     1       6.165   6.752  16.710  0.00  0.00    +0.000 NA
ATOM     32  C   UNL     1       6.214   5.263  16.598  0.00  0.00    +0.000 C 
ATOM     33  C   UNL     1       6.586   4.550  17.916  0.00  0.00    +0.000 C 
ATOM     34  O   UNL     1       7.830   5.023  18.447  0.00  0.00    +0.000 OA
ATOM     35  C   UNL     1       7.831   6.447  18.612  0.00  0.00    +0.000 C 
ATOM     36  C   UNL     1       7.460   7.171  17.302  0.00  0.00    +0.000 C 
ENDBRANCH  30  31
ENDBRANCH  29  30
ENDBRANCH  15  29
TORSDOF 10
ENDMDL
MODEL 5
REMARK VINA RESULT:      -7.7      1.002      1.529
REMARK  Name = 
REMARK  12 active torsions:
REMARK  status: ('A' for Active; 'I' for Inactive)
REMARK    1  A    between atoms: C_1  and  C_2
REMARK    2  A    between atoms: C_2  and  N_3
REMARK    3  A    between atoms: N_3  and  C_4
REMARK    4  A    between atoms: N_3  and  C_6
REMARK    5  A    between atoms: C_4  and  C_5
REMARK    6  A    between atoms: C_6  and  C_7
REMARK    7  A    between atoms: C_7  and  C_8
REMARK    8  A    between atoms: C_8  and  N_9
REMARK    9  A    between atoms: N_9  and  C_10
REMARK   10  A    between atoms: N_24  and  C_25
REMARK   11  A    between atoms: C_25  and  C_26
REMARK   12  A    between atoms: C_26  and  N_27
REMARK                            x       y       z     vdW  Elec       q    Type
REMARK                         _______ _______ _______ _____ _____    ______ ____
ROOT
ATOM      1  C   UNL     1       0.970  10.460  19.840  0.00  0.00    +0.000 A 
ATOM      2  C   UNL     1       0.167  11.111  20.771  0.00  0.00    +0.000 A 
ATOM      3  C   UNL     1      -0.342  10.405  21.856  0.00  0.00    +0.000 A 
ATOM      4 CL   UNL     1      -1.346  11.218  22.995  0.00  0.00    +0.000 Cl
ATOM      5  C   UNL     1      -0.050   9.050  22.037  0.00  0.00    +0.000 A 
ATOM      6  C   UNL     1       0.735   8.352  21.139  0.00  0.00    +0.000 A 
ATOM      7  N   UNL     1       0.994   7.056  21.383  0.00  0.00    +0.000 NA
ATOM      8  C   UNL     1       1.789   6.400  20.496  0.00  0.00    +0.000 A 
ATOM      9  C   UNL     1       2.245   5.046  20.529  0.00  0.00    +0.000 A 
ATOM     10  C   UNL     1       2.065   3.973  21.428  0.00  0.00    +0.000 A 
ATOM     11  C   UNL     1       2.660   2.736  21.166  0.00  0.00    +0.000 A 
ATOM     12  C   UNL     1       3.428   2.547  20.025  0.00  0.00    +0.000 A 
ATOM     13  C   UNL     1       3.626   3.594  19.119  0.00  0.00    +0.000 A 
ATOM     14  C   UNL     1       3.033   4.842  19.392  0.00  0.00    +0.000 A 
ATOM     15  N   UNL     1       3.069   6.041  18.687  0.00  0.00    +0.000 N 
ATOM     16  C   UNL     1       2.300   6.994  19.347  0.00  0.00    +0.000 A 
ATOM     17  C   UNL     1       1.981   8.336  19.104  0.00  0.00    +0.000 A 
ATOM     18  C   UNL     1       1.216   9.060  20.023  0.00  0.00    +0.000 A 
ENDROOT
BRANCH   1  19
ATOM     19  N   UNL     1       1.524  11.118  18.726  0.00  0.00    +0.000 N 
ATOM     20  H   UNL     1       0.919  11.029  17.911  0.00  0.00    +0.000 HD
BRANCH  19  21
ATOM     21  C   UNL     1       2.135  12.450  18.831  0.00  0.00    +0.000 C 
BRANCH  21  22
ATOM     22  C   UNL     1       1.087  13.481  18.393  0.00  0.00    +0.000 C 
BRANCH  22  23
ATOM     23  C   UNL     1       0.805  14.598  19.409  0.00  0.00    +0.000 C 
BRANCH  23  24
ATOM     24  N   UNL     1       1.879  14.858  20.384  0.00  0.00    +0.000 NA
BRANCH  24  26
ATOM     25  C   UNL     1       1.818  17.082  19.206  0.00  0.00    +0.000 C 
ATOM     26  C   UNL     1       2.569  16.136  20.136  0.00  0.00    +0.000 C 
ENDBRANCH  24  26
BRANCH  24  27
ATOM     27  C   UNL     1       1.401  14.701  21.771  0.00  0.00    +0.000 C 
ATOM     28  C   UNL     1      -0.110  14.738  21.992  0.00  0.00    +0.000 C 
ENDBRANCH  24  27
ENDBRANCH  23  24
ENDBRANCH  22  23
ENDBRANCH  21  22
ENDBRANCH  19  21
ENDBRANCH   1  19
BRANCH  15  29
ATOM     29  C   UNL     1       3.784   6.174  17.411  0.00  0.00    +0.000 C 
BRANCH  29  30
ATOM     30  C   UNL     1       5.042   7.038  17.467  0.00  0.00    +0.000 C 
BRANCH  30  31
ATOM     31  N   UNL     1       6.220   6.667  16.657  0.00  0.00    +0.000 NA
ATOM     32  C   UNL     1       6.297   5.176  16.604  0.00  0.00    +0.000 C 
ATOM     33  C   UNL     1       6.654   4.521  17.956  0.00  0.00    +0.000 C 
ATOM     34  O   UNL     1       7.879   5.036  18.492  0.00  0.00    +0.000 OA
ATOM     35  C   UNL     1       7.854   6.465  18.601  0.00  0.00    +0.000 C 
ATOM     36  C   UNL     1       7.497   7.132  17.256  0.00  0.00    +0.000 C 
ENDBRANCH  30  31
ENDBRANCH  29  30
ENDBRANCH  15  29
TORSDOF 10
ENDMDL
MODEL 6
REMARK VINA RESULT:      -7.7      2.363      3.679
REMARK  Name = 
REMARK  12 active torsions:
REMARK  status: ('A' for Active; 'I' for Inactive)
REMARK    1  A    between atoms: C_1  and  C_2
REMARK    2  A    between atoms: C_2  and  N_3
REMARK    3  A    between atoms: N_3  and  C_4
REMARK    4  A    between atoms: N_3  and  C_6
REMARK    5  A    between atoms: C_4  and  C_5
REMARK    6  A    between atoms: C_6  and  C_7
REMARK    7  A    between atoms: C_7  and  C_8
REMARK    8  A    between atoms: C_8  and  N_9
REMARK    9  A    between atoms: N_9  and  C_10
REMARK   10  A    between atoms: N_24  and  C_25
REMARK   11  A    between atoms: C_25  and  C_26
REMARK   12  A    between atoms: C_26  and  N_27
REMARK                            x       y       z     vdW  Elec       q    Type
REMARK                         _______ _______ _______ _____ _____    ______ ____
ROOT
ATOM      1  C   UNL     1       0.533  10.865  20.174  0.00  0.00    +0.000 A 
ATOM      2  C   UNL     1      -0.292  11.359  21.178  0.00  0.00    +0.000 A 
ATOM      3  C   UNL     1      -0.708  10.517  22.205  0.00  0.00    +0.000 A 
ATOM      4 CL   UNL     1      -1.740  11.136  23.437  0.00  0.00    +0.000 Cl
ATOM      5  C   UNL     1      -0.300   9.181  22.254  0.00  0.00    +0.000 A 
ATOM      6  C   UNL     1       0.513   8.636  21.278  0.00  0.00    +0.000 A 
ATOM      7  N   UNL     1       0.885   7.350  21.396  0.00  0.00    +0.000 NA
ATOM      8  C   UNL     1       1.705   6.847  20.435  0.00  0.00    +0.000 A 
ATOM      9  C   UNL     1       2.272   5.539  20.332  0.00  0.00    +0.000 A 
ATOM     10  C   UNL     1       2.208   4.378  21.132  0.00  0.00    +0.000 A 
ATOM     11  C   UNL     1       2.895   3.225  20.745  0.00  0.00    +0.000 A 
ATOM     12  C   UNL     1       3.641   3.205  19.574  0.00  0.00    +0.000 A 
ATOM     13  C   UNL     1       3.725   4.342  18.764  0.00  0.00    +0.000 A 
ATOM     14  C   UNL     1       3.039   5.506  19.164  0.00  0.00    +0.000 A 
ATOM     15  N   UNL     1       2.954   6.761  18.572  0.00  0.00    +0.000 N 
ATOM     16  C   UNL     1       2.129   7.583  19.334  0.00  0.00    +0.000 A 
ATOM     17  C   UNL     1       1.693   8.909  19.222  0.00  0.00    +0.000 A 
ATOM     18  C   UNL     1       0.900   9.480  20.221  0.00  0.00    +0.000 A 
ENDROOT
BRANCH   1  19
ATOM     19  N   UNL     1       0.997  11.665  19.112  0.00  0.00    +0.000 N 
ATOM     20  H   UNL     1       1.414  11.093  18.379  0.00  0.00    +0.000 HD
BRANCH  19  21
ATOM     21  C   UNL     1       0.207  12.782  18.576  0.00  0.00    +0.000 C 
BRANCH  21  22
ATOM     22  C   UNL     1      -0.873  12.193  17.659  0.00  0.00    +0.000 C 
BRANCH  22  23
ATOM     23  C   UNL     1      -2.223  11.913  18.335  0.00  0.00    +0.000 C 
BRANCH  23  24
ATOM     24  N   UNL     1      -3.226  11.232  17.498  0.00  0.00    +0.000 NA
BRANCH  24  26
ATOM     25  C   UNL     1      -5.637  10.864  18.121  0.00  0.00    +0.000 C 
ATOM     26  C   UNL     1      -4.566  11.829  17.625  0.00  0.00    +0.000 C 
ENDBRANCH  24  26
BRANCH  24  27
ATOM     27  C   UNL     1      -2.765  11.098  16.102  0.00  0.00    +0.000 C 
ATOM     28  C   UNL     1      -2.988   9.747  15.425  0.00  0.00    +0.000 C 
ENDBRANCH  24  27
ENDBRANCH  23  24
ENDBRANCH  22  23
ENDBRANCH  21  22
ENDBRANCH  19  21
ENDBRANCH   1  19
BRANCH  15  29
ATOM     29  C   UNL     1       3.616   7.069  17.297  0.00  0.00    +0.000 C 
BRANCH  29  30
ATOM     30  C   UNL     1       4.695   6.072  16.878  0.00  0.00    +0.000 C 
BRANCH  30  31
ATOM     31  N   UNL     1       5.975   6.568  16.331  0.00  0.00    +0.000 NA
ATOM     32  C   UNL     1       6.487   5.557  15.358  0.00  0.00    +0.000 C 
ATOM     33  C   UNL     1       6.943   4.235  16.012  0.00  0.00    +0.000 C 
ATOM     34  O   UNL     1       7.930   4.453  17.027  0.00  0.00    +0.000 OA
ATOM     35  C   UNL     1       7.482   5.391  18.014  0.00  0.00    +0.000 C 
ATOM     36  C   UNL     1       7.023   6.717  17.372  0.00  0.00    +0.000 C 
ENDBRANCH  30  31
ENDBRANCH  29  30
ENDBRANCH  15  29
TORSDOF 10
ENDMDL
MODEL 7
REMARK VINA RESULT:      -7.5      1.324      1.799
REMARK  Name = 
REMARK  12 active torsions:
REMARK  status: ('A' for Active; 'I' for Inactive)
REMARK    1  A    between atoms: C_1  and  C_2
REMARK    2  A    between atoms: C_2  and  N_3
REMARK    3  A    between atoms: N_3  and  C_4
REMARK    4  A    between atoms: N_3  and  C_6
REMARK    5  A    between atoms: C_4  and  C_5
REMARK    6  A    between atoms: C_6  and  C_7
REMARK    7  A    between atoms: C_7  and  C_8
REMARK    8  A    between atoms: C_8  and  N_9
REMARK    9  A    between atoms: N_9  and  C_10
REMARK   10  A    between atoms: N_24  and  C_25
REMARK   11  A    between atoms: C_25  and  C_26
REMARK   12  A    between atoms: C_26  and  N_27
REMARK                            x       y       z     vdW  Elec       q    Type
REMARK                         _______ _______ _______ _____ _____    ______ ____
ROOT
ATOM      1  C   UNL     1       0.785  10.726  19.946  0.00  0.00    +0.000 A 
ATOM      2  C   UNL     1      -0.032  11.332  20.895  0.00  0.00    +0.000 A 
ATOM      3  C   UNL     1      -0.526  10.583  21.959  0.00  0.00    +0.000 A 
ATOM      4 CL   UNL     1      -1.547  11.340  23.121  0.00  0.00    +0.000 Cl
ATOM      5  C   UNL     1      -0.207   9.229  22.099  0.00  0.00    +0.000 A 
ATOM      6  C   UNL     1       0.594   8.576  21.181  0.00  0.00    +0.000 A 
ATOM      7  N   UNL     1       0.879   7.279  21.386  0.00  0.00    +0.000 NA
ATOM      8  C   UNL     1       1.688   6.666  20.481  0.00  0.00    +0.000 A 
ATOM      9  C   UNL     1       2.172   5.322  20.473  0.00  0.00    +0.000 A 
ATOM     10  C   UNL     1       2.014   4.219  21.339  0.00  0.00    +0.000 A 
ATOM     11  C   UNL     1       2.635   3.003  21.041  0.00  0.00    +0.000 A 
ATOM     12  C   UNL     1       3.407   2.864  19.895  0.00  0.00    +0.000 A 
ATOM     13  C   UNL     1       3.584   3.942  19.021  0.00  0.00    +0.000 A 
ATOM     14  C   UNL     1       2.965   5.169  19.331  0.00  0.00    +0.000 A 
ATOM     15  N   UNL     1       2.975   6.389  18.663  0.00  0.00    +0.000 N 
ATOM     16  C   UNL     1       2.187   7.305  19.350  0.00  0.00    +0.000 A 
ATOM     17  C   UNL     1       1.839   8.647  19.147  0.00  0.00    +0.000 A 
ATOM     18  C   UNL     1       1.060   9.327  20.087  0.00  0.00    +0.000 A 
ENDROOT
BRANCH   1  19
ATOM     19  N   UNL     1       1.325  11.429  18.852  0.00  0.00    +0.000 N 
ATOM     20  H   UNL     1       1.240  10.887  17.993  0.00  0.00    +0.000 HD
BRANCH  19  21
ATOM     21  C   UNL     1       1.072  12.861  18.644  0.00  0.00    +0.000 C 
BRANCH  21  22
ATOM     22  C   UNL     1       2.425  13.546  18.415  0.00  0.00    +0.000 C 
BRANCH  22  23
ATOM     23  C   UNL     1       3.119  14.063  19.684  0.00  0.00    +0.000 C 
BRANCH  23  24
ATOM     24  N   UNL     1       4.120  15.125  19.475  0.00  0.00    +0.000 NA
BRANCH  24  26
ATOM     25  C   UNL     1       4.775  15.066  21.905  0.00  0.00    +0.000 C 
ATOM     26  C   UNL     1       5.224  15.059  20.448  0.00  0.00    +0.000 C 
ENDBRANCH  24  26
BRANCH  24  27
ATOM     27  C   UNL     1       4.569  15.177  18.070  0.00  0.00    +0.000 C 
ATOM     28  C   UNL     1       5.965  14.637  17.768  0.00  0.00    +0.000 C 
ENDBRANCH  24  27
ENDBRANCH  23  24
ENDBRANCH  22  23
ENDBRANCH  21  22
ENDBRANCH  19  21
ENDBRANCH   1  19
BRANCH  15  29
ATOM     29  C   UNL     1       3.687   6.575  17.391  0.00  0.00    +0.000 C 
BRANCH  29  30
ATOM     30  C   UNL     1       5.202   6.722  17.520  0.00  0.00    +0.000 C 
BRANCH  30  31
ATOM     31  N   UNL     1       6.047   6.676  16.308  0.00  0.00    +0.000 NA
ATOM     32  C   UNL     1       5.356   5.825  15.293  0.00  0.00    +0.000 C 
ATOM     33  C   UNL     1       5.300   4.328  15.667  0.00  0.00    +0.000 C 
ATOM     34  O   UNL     1       6.604   3.791  15.922  0.00  0.00    +0.000 OA
ATOM     35  C   UNL     1       7.306   4.547  16.918  0.00  0.00    +0.000 C 
ATOM     36  C   UNL     1       7.368   6.045  16.556  0.00  0.00    +0.000 C 
ENDBRANCH  30  31
ENDBRANCH  29  30
ENDBRANCH  15  29
TORSDOF 10
ENDMDL
MODEL 8
REMARK VINA RESULT:      -7.5      2.811      7.853
REMARK  Name = 
REMARK  12 active torsions:
REMARK  status: ('A' for Active; 'I' for Inactive)
REMARK    1  A    between atoms: C_1  and  C_2
REMARK    2  A    between atoms: C_2  and  N_3
REMARK    3  A    between atoms: N_3  and  C_4
REMARK    4  A    between atoms: N_3  and  C_6
REMARK    5  A    between atoms: C_4  and  C_5
REMARK    6  A    between atoms: C_6  and  C_7
REMARK    7  A    between atoms: C_7  and  C_8
REMARK    8  A    between atoms: C_8  and  N_9
REMARK    9  A    between atoms: N_9  and  C_10
REMARK   10  A    between atoms: N_24  and  C_25
REMARK   11  A    between atoms: C_25  and  C_26
REMARK   12  A    between atoms: C_26  and  N_27
REMARK                            x       y       z     vdW  Elec       q    Type
REMARK                         _______ _______ _______ _____ _____    ______ ____
ROOT
ATOM      1  C   UNL     1       3.205   5.685  18.539  0.00  0.00    +0.000 A 
ATOM      2  C   UNL     1       3.439   4.402  19.023  0.00  0.00    +0.000 A 
ATOM      3  C   UNL     1       2.953   4.039  20.275  0.00  0.00    +0.000 A 
ATOM      4 CL   UNL     1       3.260   2.452  20.870  0.00  0.00    +0.000 Cl
ATOM      5  C   UNL     1       2.221   4.938  21.055  0.00  0.00    +0.000 A 
ATOM      6  C   UNL     1       1.966   6.227  20.626  0.00  0.00    +0.000 A 
ATOM      7  N   UNL     1       1.237   7.034  21.416  0.00  0.00    +0.000 NA
ATOM      8  C   UNL     1       0.981   8.289  20.959  0.00  0.00    +0.000 A 
ATOM      9  C   UNL     1       0.216   9.329  21.571  0.00  0.00    +0.000 A 
ATOM     10  C   UNL     1      -0.512   9.431  22.776  0.00  0.00    +0.000 A 
ATOM     11  C   UNL     1      -1.170  10.621  23.097  0.00  0.00    +0.000 A 
ATOM     12  C   UNL     1      -1.113  11.714  22.241  0.00  0.00    +0.000 A 
ATOM     13  C   UNL     1      -0.402  11.640  21.039  0.00  0.00    +0.000 A 
ATOM     14  C   UNL     1       0.251  10.434  20.715  0.00  0.00    +0.000 A 
ATOM     15  N   UNL     1       1.008  10.078  19.604  0.00  0.00    +0.000 N 
ATOM     16  C   UNL     1       1.470   8.775  19.751  0.00  0.00    +0.000 A 
ATOM     17  C   UNL     1       2.257   7.919  18.969  0.00  0.00    +0.000 A 
ATOM     18  C   UNL     1       2.491   6.603  19.377  0.00  0.00    +0.000 A 
ENDROOT
BRANCH   1  19
ATOM     19  N   UNL     1       3.660   6.114  17.277  0.00  0.00    +0.000 N 
ATOM     20  H   UNL     1       4.031   7.061  17.326  0.00  0.00    +0.000 HD
BRANCH  19  21
ATOM     21  C   UNL     1       4.450   5.242  16.397  0.00  0.00    +0.000 C 
BRANCH  21  22
ATOM     22  C   UNL     1       5.471   6.122  15.663  0.00  0.00    +0.000 C 
BRANCH  22  23
ATOM     23  C   UNL     1       6.867   6.173  16.302  0.00  0.00    +0.000 C 
BRANCH  23  24
ATOM     24  N   UNL     1       6.954   6.891  17.586  0.00  0.00    +0.000 NA
BRANCH  24  26
ATOM     25  C   UNL     1       7.894   4.646  18.227  0.00  0.00    +0.000 C 
ATOM     26  C   UNL     1       7.547   6.067  18.654  0.00  0.00    +0.000 C 
ENDBRANCH  24  26
BRANCH  24  27
ATOM     27  C   UNL     1       7.597   8.209  17.427  0.00  0.00    +0.000 C 
ATOM     28  C   UNL     1       8.537   8.661  18.544  0.00  0.00    +0.000 C 
ENDBRANCH  24  27
ENDBRANCH  23  24
ENDBRANCH  22  23
ENDBRANCH  21  22
ENDBRANCH  19  21
ENDBRANCH   1  19
BRANCH  15  29
ATOM     29  C   UNL     1       1.283  11.023  18.513  0.00  0.00    +0.000 C 
BRANCH  29  30
ATOM     30  C   UNL     1       2.296  12.115  18.850  0.00  0.00    +0.000 C 
BRANCH  30  31
ATOM     31  N   UNL     1       1.848  13.520  18.956  0.00  0.00    +0.000 NA
ATOM     32  C   UNL     1       2.690  14.346  18.039  0.00  0.00    +0.000 C 
ATOM     33  C   UNL     1       4.161  14.474  18.488  0.00  0.00    +0.000 C 
ATOM     34  O   UNL     1       4.271  14.991  19.820  0.00  0.00    +0.000 OA
ATOM     35  C   UNL     1       3.510  14.216  20.756  0.00  0.00    +0.000 C 
ATOM     36  C   UNL     1       2.038  14.079  20.318  0.00  0.00    +0.000 C 
ENDBRANCH  30  31
ENDBRANCH  29  30
ENDBRANCH  15  29
TORSDOF 10
ENDMDL
MODEL 9
REMARK VINA RESULT:      -7.5      1.079      1.649
REMARK  Name = 
REMARK  12 active torsions:
REMARK  status: ('A' for Active; 'I' for Inactive)
REMARK    1  A    between atoms: C_1  and  C_2
REMARK    2  A    between atoms: C_2  and  N_3
REMARK    3  A    between atoms: N_3  and  C_4
REMARK    4  A    between atoms: N_3  and  C_6
REMARK    5  A    between atoms: C_4  and  C_5
REMARK    6  A    between atoms: C_6  and  C_7
REMARK    7  A    between atoms: C_7  and  C_8
REMARK    8  A    between atoms: C_8  and  N_9
REMARK    9  A    between atoms: N_9  and  C_10
REMARK   10  A    between atoms: N_24  and  C_25
REMARK   11  A    between atoms: C_25  and  C_26
REMARK   12  A    between atoms: C_26  and  N_27
REMARK                            x       y       z     vdW  Elec       q    Type
REMARK                         _______ _______ _______ _____ _____    ______ ____
ROOT
ATOM      1  C   UNL     1       0.801  10.592  20.063  0.00  0.00    +0.000 A 
ATOM      2  C   UNL     1      -0.009  11.187  21.025  0.00  0.00    +0.000 A 
ATOM      3  C   UNL     1      -0.497  10.425  22.082  0.00  0.00    +0.000 A 
ATOM      4 CL   UNL     1      -1.510  11.168  23.260  0.00  0.00    +0.000 Cl
ATOM      5  C   UNL     1      -0.178   9.069  22.202  0.00  0.00    +0.000 A 
ATOM      6  C   UNL     1       0.615   8.426  21.271  0.00  0.00    +0.000 A 
ATOM      7  N   UNL     1       0.900   7.126  21.458  0.00  0.00    +0.000 NA
ATOM      8  C   UNL     1       1.703   6.525  20.539  0.00  0.00    +0.000 A 
ATOM      9  C   UNL     1       2.185   5.180  20.511  0.00  0.00    +0.000 A 
ATOM     10  C   UNL     1       2.031   4.066  21.363  0.00  0.00    +0.000 A 
ATOM     11  C   UNL     1       2.648   2.853  21.046  0.00  0.00    +0.000 A 
ATOM     12  C   UNL     1       3.413   2.728  19.893  0.00  0.00    +0.000 A 
ATOM     13  C   UNL     1       3.585   3.817  19.032  0.00  0.00    +0.000 A 
ATOM     14  C   UNL     1       2.970   5.041  19.362  0.00  0.00    +0.000 A 
ATOM     15  N   UNL     1       2.977   6.269  18.709  0.00  0.00    +0.000 N 
ATOM     16  C   UNL     1       2.195   7.178  19.414  0.00  0.00    +0.000 A 
ATOM     17  C   UNL     1       1.848   8.522  19.230  0.00  0.00    +0.000 A 
ATOM     18  C   UNL     1       1.075   9.191  20.184  0.00  0.00    +0.000 A 
ENDROOT
BRANCH   1  19
ATOM     19  N   UNL     1       1.335  11.309  18.975  0.00  0.00    +0.000 N 
ATOM     20  H   UNL     1       0.758  11.192  18.143  0.00  0.00    +0.000 HD
BRANCH  19  21
ATOM     21  C   UNL     1       1.848  12.678  19.119  0.00  0.00    +0.000 C 
BRANCH  21  22
ATOM     22  C   UNL     1       0.767  13.638  18.607  0.00  0.00    +0.000 C 
BRANCH  22  23
ATOM     23  C   UNL     1       0.807  15.049  19.213  0.00  0.00    +0.000 C 
BRANCH  23  24
ATOM     24  N   UNL     1       1.685  16.013  18.525  0.00  0.00    +0.000 NA
BRANCH  24  26
ATOM     25  C   UNL     1      -0.441  17.220  17.927  0.00  0.00    +0.000 C 
ATOM     26  C   UNL     1       1.032  17.315  18.306  0.00  0.00    +0.000 C 
ENDBRANCH  24  26
BRANCH  24  27
ATOM     27  C   UNL     1       3.001  16.113  19.185  0.00  0.00    +0.000 C 
ATOM     28  C   UNL     1       4.188  16.507  18.308  0.00  0.00    +0.000 C 
ENDBRANCH  24  27
ENDBRANCH  23  24
ENDBRANCH  22  23
ENDBRANCH  21  22
ENDBRANCH  19  21
ENDBRANCH   1  19
BRANCH  15  29
ATOM     29  C   UNL     1       3.682   6.471  17.436  0.00  0.00    +0.000 C 
BRANCH  29  30
ATOM     30  C   UNL     1       5.178   6.749  17.567  0.00  0.00    +0.000 C 
BRANCH  30  31
ATOM     31  N   UNL     1       6.037   6.711  16.366  0.00  0.00    +0.000 NA
ATOM     32  C   UNL     1       5.359   5.865  15.337  0.00  0.00    +0.000 C 
ATOM     33  C   UNL     1       5.301   4.366  15.702  0.00  0.00    +0.000 C 
ATOM     34  O   UNL     1       6.602   3.830  15.968  0.00  0.00    +0.000 OA
ATOM     35  C   UNL     1       7.291   4.580  16.977  0.00  0.00    +0.000 C 
ATOM     36  C   UNL     1       7.356   6.080  16.625  0.00  0.00    +0.000 C 
ENDBRANCH  30  31
ENDBRANCH  29  30
ENDBRANCH  15  29
TORSDOF 10
ENDMDL
