MODEL 1
REMARK VINA RESULT:      -8.2      0.000      0.000
REMARK  Name = 
REMARK  8 active torsions:
REMARK  status: ('A' for Active; 'I' for Inactive)
REMARK    1  A    between atoms: C_1  and  C_2
REMARK    2  A    between atoms: C_2  and  O_3
REMARK    3  A    between atoms: O_3  and  C_4
REMARK    4  A    between atoms: C_4  and  C_6
REMARK    5  A    between atoms: C_6  and  N_7
REMARK    6  A    between atoms: C_14  and  C_15
REMARK    7  A    between atoms: N_17  and  C_18
REMARK    8  A    between atoms: C_18  and  C_19
REMARK                            x       y       z     vdW  Elec       q    Type
REMARK                         _______ _______ _______ _____ _____    ______ ____
ROOT
ATOM      1  N   UNL     1       4.998   4.692  17.115  0.00  0.00    +0.000 N 
ATOM      2  C   UNL     1       4.427   3.392  16.773  0.00  0.00    +0.000 C 
ATOM      3  C   UNL     1       3.260   3.257  17.729  0.00  0.00    +0.000 C 
ATOM      4  C   UNL     1       2.757   1.994  18.339  0.00  0.00    +0.000 C 
ATOM      5  C   UNL     1       1.540   2.315  18.819  0.00  0.00    +0.000 C 
ATOM      6  C   UNL     1       1.244   3.741  18.406  0.00  0.00    +0.000 C 
ATOM      7  O   UNL     1       1.999   3.707  17.140  0.00  0.00    +0.000 OA
ATOM      8  C   UNL     1       2.085   4.871  19.008  0.00  0.00    +0.000 C 
ATOM      9  C   UNL     1       3.491   4.284  18.859  0.00  0.00    +0.000 C 
ATOM     10  C   UNL     1       4.454   5.247  18.261  0.00  0.00    +0.000 C 
ATOM     11  O   UNL     1       4.669   6.367  18.707  0.00  0.00    +0.000 OA
ENDROOT
BRANCH   8  12
ATOM     12  C   UNL     1       1.833   5.429  20.384  0.00  0.00    +0.000 C 
ATOM     13  O   UNL     1       1.767   4.738  21.393  0.00  0.00    +0.000 OA
ATOM     14  N   UNL     1       1.712   6.815  20.362  0.00  0.00    +0.000 N 
ATOM     15  H   UNL     1       2.006   7.303  19.518  0.00  0.00    +0.000 HD
BRANCH  14  16
ATOM     16  C   UNL     1       1.648   7.624  21.560  0.00  0.00    +0.000 C 
BRANCH  16  17
ATOM     17  C   UNL     1       0.748   8.839  21.419  0.00  0.00    +0.000 A 
ATOM     18  C   UNL     1       0.145   9.401  22.558  0.00  0.00    +0.000 A 
ATOM     19  C   UNL     1      -0.620  10.572  22.461  0.00  0.00    +0.000 A 
ATOM     20  C   UNL     1      -0.792  11.184  21.224  0.00  0.00    +0.000 A 
ATOM     21  F   UNL     1      -1.511  12.310  21.137  0.00  0.00    +0.000 F 
ATOM     22  C   UNL     1      -0.230  10.628  20.081  0.00  0.00    +0.000 A 
ATOM     23  C   UNL     1       0.539   9.459  20.175  0.00  0.00    +0.000 A 
ENDBRANCH  16  17
ENDBRANCH  14  16
ENDBRANCH   8  12
BRANCH   1  24
ATOM     24  C   UNL     1       5.647   5.556  16.139  0.00  0.00    +0.000 C 
BRANCH  24  25
ATOM     25  C   UNL     1       7.178   5.593  16.252  0.00  0.00    +0.000 C 
ATOM     26  O   UNL     1       7.872   4.592  16.230  0.00  0.00    +0.000 OA
BRANCH  25  27
ATOM     27  O   UNL     1       7.635   6.860  16.460  0.00  0.00    +0.000 OA
BRANCH  27  29
ATOM     28  C   UNL     1       8.079   8.768  17.832  0.00  0.00    +0.000 C 
ATOM     29  C   UNL     1       7.731   7.290  17.824  0.00  0.00    +0.000 C 
ENDBRANCH  27  29
ENDBRANCH  25  27
ENDBRANCH  24  25
ENDBRANCH   1  24
TORSDOF 7
ENDMDL
MODEL 2
REMARK VINA RESULT:      -8.1      1.617      2.586
REMARK  Name = 
REMARK  8 active torsions:
REMARK  status: ('A' for Active; 'I' for Inactive)
REMARK    1  A    between atoms: C_1  and  C_2
REMARK    2  A    between atoms: C_2  and  O_3
REMARK    3  A    between atoms: O_3  and  C_4
REMARK    4  A    between atoms: C_4  and  C_6
REMARK    5  A    between atoms: C_6  and  N_7
REMARK    6  A    between atoms: C_14  and  C_15
REMARK    7  A    between atoms: N_17  and  C_18
REMARK    8  A    between atoms: C_18  and  C_19
REMARK                            x       y       z     vdW  Elec       q    Type
REMARK                         _______ _______ _______ _____ _____    ______ ____
ROOT
ATOM      1  N   UNL     1       5.019   4.763  16.525  0.00  0.00    +0.000 N 
ATOM      2  C   UNL     1       4.689   3.341  16.491  0.00  0.00    +0.000 C 
ATOM      3  C   UNL     1       3.619   3.201  17.553  0.00  0.00    +0.000 C 
ATOM      4  C   UNL     1       3.397   2.022  18.437  0.00  0.00    +0.000 C 
ATOM      5  C   UNL     1       2.167   2.214  18.950  0.00  0.00    +0.000 C 
ATOM      6  C   UNL     1       1.584   3.449  18.298  0.00  0.00    +0.000 C 
ATOM      7  O   UNL     1       2.268   3.291  17.001  0.00  0.00    +0.000 OA
ATOM      8  C   UNL     1       2.223   4.810  18.595  0.00  0.00    +0.000 C 
ATOM      9  C   UNL     1       3.705   4.463  18.439  0.00  0.00    +0.000 C 
ATOM     10  C   UNL     1       4.436   5.437  17.585  0.00  0.00    +0.000 C 
ATOM     11  O   UNL     1       4.456   6.645  17.787  0.00  0.00    +0.000 OA
ENDROOT
BRANCH   8  12
ATOM     12  C   UNL     1       1.938   5.586  19.855  0.00  0.00    +0.000 C 
ATOM     13  O   UNL     1       1.776   5.061  20.950  0.00  0.00    +0.000 OA
ATOM     14  N   UNL     1       1.909   6.956  19.619  0.00  0.00    +0.000 N 
ATOM     15  H   UNL     1       2.277   7.292  18.730  0.00  0.00    +0.000 HD
BRANCH  14  16
ATOM     16  C   UNL     1       1.837   7.941  20.676  0.00  0.00    +0.000 C 
BRANCH  16  17
ATOM     17  C   UNL     1       0.974   9.140  20.325  0.00  0.00    +0.000 A 
ATOM     18  C   UNL     1       0.926   9.607  19.000  0.00  0.00    +0.000 A 
ATOM     19  C   UNL     1       0.072  10.658  18.640  0.00  0.00    +0.000 A 
ATOM     20  C   UNL     1      -0.735  11.254  19.604  0.00  0.00    +0.000 A 
ATOM     21  F   UNL     1      -1.561  12.247  19.254  0.00  0.00    +0.000 F 
ATOM     22  C   UNL     1      -0.681  10.827  20.925  0.00  0.00    +0.000 A 
ATOM     23  C   UNL     1       0.170   9.774  21.289  0.00  0.00    +0.000 A 
ENDBRANCH  16  17
ENDBRANCH  14  16
ENDBRANCH   8  12
BRANCH   1  24
ATOM     24  C   UNL     1       5.440   5.510  15.347  0.00  0.00    +0.000 C 
BRANCH  24  25
ATOM     25  C   UNL     1       6.627   4.883  14.599  0.00  0.00    +0.000 C 
ATOM     26  O   UNL     1       7.723   5.407  14.532  0.00  0.00    +0.000 OA
BRANCH  25  27
ATOM     27  O   UNL     1       6.268   3.730  13.968  0.00  0.00    +0.000 OA
BRANCH  27  29
ATOM     28  C   UNL     1       5.216   3.158  11.898  0.00  0.00    +0.000 C 
ATOM     29  C   UNL     1       6.482   3.683  12.551  0.00  0.00    +0.000 C 
ENDBRANCH  27  29
ENDBRANCH  25  27
ENDBRANCH  24  25
ENDBRANCH   1  24
TORSDOF 7
ENDMDL
MODEL 3
REMARK VINA RESULT:      -8.0      1.194      1.969
REMARK  Name = 
REMARK  8 active torsions:
REMARK  status: ('A' for Active; 'I' for Inactive)
REMARK    1  A    between atoms: C_1  and  C_2
REMARK    2  A    between atoms: C_2  and  O_3
REMARK    3  A    between atoms: O_3  and  C_4
REMARK    4  A    between atoms: C_4  and  C_6
REMARK    5  A    between atoms: C_6  and  N_7
REMARK    6  A    between atoms: C_14  and  C_15
REMARK    7  A    between atoms: N_17  and  C_18
REMARK    8  A    between atoms: C_18  and  C_19
REMARK                            x       y       z     vdW  Elec       q    Type
REMARK                         _______ _______ _______ _____ _____    ______ ____
ROOT
ATOM      1  N   UNL     1       4.943   4.549  16.989  0.00  0.00    +0.000 N 
ATOM      2  C   UNL     1       4.290   3.279  16.683  0.00  0.00    +0.000 C 
ATOM      3  C   UNL     1       3.168   3.205  17.697  0.00  0.00    +0.000 C 
ATOM      4  C   UNL     1       2.633   1.970  18.338  0.00  0.00    +0.000 C 
ATOM      5  C   UNL     1       1.460   2.353  18.877  0.00  0.00    +0.000 C 
ATOM      6  C   UNL     1       1.216   3.791  18.472  0.00  0.00    +0.000 C 
ATOM      7  O   UNL     1       1.903   3.717  17.171  0.00  0.00    +0.000 OA
ATOM      8  C   UNL     1       2.142   4.879  19.026  0.00  0.00    +0.000 C 
ATOM      9  C   UNL     1       3.507   4.222  18.809  0.00  0.00    +0.000 C 
ATOM     10  C   UNL     1       4.486   5.133  18.159  0.00  0.00    +0.000 C 
ATOM     11  O   UNL     1       4.779   6.242  18.588  0.00  0.00    +0.000 OA
ENDROOT
BRANCH   8  12
ATOM     12  C   UNL     1       1.988   5.452  20.411  0.00  0.00    +0.000 C 
ATOM     13  O   UNL     1       2.118   4.792  21.435  0.00  0.00    +0.000 OA
ATOM     14  N   UNL     1       1.708   6.814  20.375  0.00  0.00    +0.000 N 
ATOM     15  H   UNL     1       1.846   7.303  19.491  0.00  0.00    +0.000 HD
BRANCH  14  16
ATOM     16  C   UNL     1       1.691   7.651  21.554  0.00  0.00    +0.000 C 
BRANCH  16  17
ATOM     17  C   UNL     1       0.748   8.835  21.440  0.00  0.00    +0.000 A 
ATOM     18  C   UNL     1       0.250   9.451  22.602  0.00  0.00    +0.000 A 
ATOM     19  C   UNL     1      -0.554  10.597  22.519  0.00  0.00    +0.000 A 
ATOM     20  C   UNL     1      -0.871  11.129  21.273  0.00  0.00    +0.000 A 
ATOM     21  F   UNL     1      -1.627  12.232  21.199  0.00  0.00    +0.000 F 
ATOM     22  C   UNL     1      -0.415  10.519  20.112  0.00  0.00    +0.000 A 
ATOM     23  C   UNL     1       0.392   9.375  20.191  0.00  0.00    +0.000 A 
ENDBRANCH  16  17
ENDBRANCH  14  16
ENDBRANCH   8  12
BRANCH   1  24
ATOM     24  C   UNL     1       5.584   5.377  15.978  0.00  0.00    +0.000 C 
BRANCH  24  25
ATOM     25  C   UNL     1       6.928   4.828  15.475  0.00  0.00    +0.000 C 
ATOM     26  O   UNL     1       7.865   4.584  16.213  0.00  0.00    +0.000 OA
BRANCH  25  27
ATOM     27  O   UNL     1       6.953   4.731  14.117  0.00  0.00    +0.000 OA
BRANCH  27  29
ATOM     28  C   UNL     1       6.450   3.442  12.166  0.00  0.00    +0.000 C 
ATOM     29  C   UNL     1       5.938   3.917  13.515  0.00  0.00    +0.000 C 
ENDBRANCH  27  29
ENDBRANCH  25  27
ENDBRANCH  24  25
ENDBRANCH   1  24
TORSDOF 7
ENDMDL
MODEL 4
REMARK VINA RESULT:      -7.9      2.326      3.255
REMARK  Name = 
REMARK  8 active torsions:
REMARK  status: ('A' for Active; 'I' for Inactive)
REMARK    1  A    between atoms: C_1  and  C_2
REMARK    2  A    between atoms: C_2  and  O_3
REMARK    3  A    between atoms: O_3  and  C_4
REMARK    4  A    between atoms: C_4  and  C_6
REMARK    5  A    between atoms: C_6  and  N_7
REMARK    6  A    between atoms: C_14  and  C_15
REMARK    7  A    between atoms: N_17  and  C_18
REMARK    8  A    between atoms: C_18  and  C_19
REMARK                            x       y       z     vdW  Elec       q    Type
REMARK                         _______ _______ _______ _____ _____    ______ ____
ROOT
ATOM      1  N   UNL     1       5.151   5.422  16.340  0.00  0.00    +0.000 N 
ATOM      2  C   UNL     1       5.003   4.148  17.038  0.00  0.00    +0.000 C 
ATOM      3  C   UNL     1       3.984   4.451  18.116  0.00  0.00    +0.000 C 
ATOM      4  C   UNL     1       3.933   3.854  19.480  0.00  0.00    +0.000 C 
ATOM      5  C   UNL     1       2.701   4.155  19.933  0.00  0.00    +0.000 C 
ATOM      6  C   UNL     1       1.952   4.837  18.808  0.00  0.00    +0.000 C 
ATOM      7  O   UNL     1       2.619   4.121  17.706  0.00  0.00    +0.000 OA
ATOM      8  C   UNL     1       2.421   6.220  18.344  0.00  0.00    +0.000 C 
ATOM      9  C   UNL     1       3.931   5.988  18.257  0.00  0.00    +0.000 C 
ATOM     10  C   UNL     1       4.513   6.474  16.977  0.00  0.00    +0.000 C 
ATOM     11  O   UNL     1       4.385   7.617  16.556  0.00  0.00    +0.000 OA
ENDROOT
BRANCH   8  12
ATOM     12  C   UNL     1       2.070   7.488  19.079  0.00  0.00    +0.000 C 
ATOM     13  O   UNL     1       2.093   7.591  20.299  0.00  0.00    +0.000 OA
ATOM     14  N   UNL     1       1.747   8.517  18.201  0.00  0.00    +0.000 N 
ATOM     15  H   UNL     1       1.977   8.391  17.217  0.00  0.00    +0.000 HD
BRANCH  14  16
ATOM     16  C   UNL     1       1.547   9.886  18.624  0.00  0.00    +0.000 C 
BRANCH  16  17
ATOM     17  C   UNL     1       0.095  10.325  18.582  0.00  0.00    +0.000 A 
ATOM     18  C   UNL     1      -0.358  11.338  19.446  0.00  0.00    +0.000 A 
ATOM     19  C   UNL     1      -1.673  11.816  19.364  0.00  0.00    +0.000 A 
ATOM     20  C   UNL     1      -2.546  11.279  18.423  0.00  0.00    +0.000 A 
ATOM     21  F   UNL     1      -3.797  11.749  18.339  0.00  0.00    +0.000 F 
ATOM     22  C   UNL     1      -2.128  10.258  17.580  0.00  0.00    +0.000 A 
ATOM     23  C   UNL     1      -0.813   9.779  17.656  0.00  0.00    +0.000 A 
ENDBRANCH  16  17
ENDBRANCH  14  16
ENDBRANCH   8  12
BRANCH   1  24
ATOM     24  C   UNL     1       5.447   5.520  14.918  0.00  0.00    +0.000 C 
BRANCH  24  25
ATOM     25  C   UNL     1       6.722   4.777  14.490  0.00  0.00    +0.000 C 
ATOM     26  O   UNL     1       7.840   5.236  14.634  0.00  0.00    +0.000 OA
BRANCH  25  27
ATOM     27  O   UNL     1       6.430   3.600  13.868  0.00  0.00    +0.000 OA
BRANCH  27  29
ATOM     28  C   UNL     1       5.130   3.187  11.904  0.00  0.00    +0.000 C 
ATOM     29  C   UNL     1       6.490   3.603  12.435  0.00  0.00    +0.000 C 
ENDBRANCH  27  29
ENDBRANCH  25  27
ENDBRANCH  24  25
ENDBRANCH   1  24
TORSDOF 7
ENDMDL
MODEL 5
REMARK VINA RESULT:      -7.8      1.831      2.255
REMARK  Name = 
REMARK  8 active torsions:
REMARK  status: ('A' for Active; 'I' for Inactive)
REMARK    1  A    between atoms: C_1  and  C_2
REMARK    2  A    between atoms: C_2  and  O_3
REMARK    3  A    between atoms: O_3  and  C_4
REMARK    4  A    between atoms: C_4  and  C_6
REMARK    5  A    between atoms: C_6  and  N_7
REMARK    6  A    between atoms: C_14  and  C_15
REMARK    7  A    between atoms: N_17  and  C_18
REMARK    8  A    between atoms: C_18  and  C_19
REMARK                            x       y       z     vdW  Elec       q    Type
REMARK                         _______ _______ _______ _____ _____    ______ ____
ROOT
ATOM      1  N   UNL     1       5.055   4.782  17.994  0.00  0.00    +0.000 N 
ATOM      2  C   UNL     1       4.636   3.576  18.702  0.00  0.00    +0.000 C 
ATOM      3  C   UNL     1       3.430   4.033  19.496  0.00  0.00    +0.000 C 
ATOM      4  C   UNL     1       3.015   3.540  20.839  0.00  0.00    +0.000 C 
ATOM      5  C   UNL     1       1.745   3.967  20.976  0.00  0.00    +0.000 C 
ATOM      6  C   UNL     1       1.338   4.623  19.674  0.00  0.00    +0.000 C 
ATOM      7  O   UNL     1       2.171   3.782  18.796  0.00  0.00    +0.000 OA
ATOM      8  C   UNL     1       2.025   5.929  19.262  0.00  0.00    +0.000 C 
ATOM      9  C   UNL     1       3.488   5.576  19.541  0.00  0.00    +0.000 C 
ATOM     10  C   UNL     1       4.389   5.923  18.409  0.00  0.00    +0.000 C 
ATOM     11  O   UNL     1       4.465   7.039  17.912  0.00  0.00    +0.000 OA
ENDROOT
BRANCH   8  12
ATOM     12  C   UNL     1       1.633   7.269  19.828  0.00  0.00    +0.000 C 
ATOM     13  O   UNL     1       1.392   7.458  21.014  0.00  0.00    +0.000 OA
ATOM     14  N   UNL     1       1.608   8.254  18.846  0.00  0.00    +0.000 N 
ATOM     15  H   UNL     1       2.041   8.040  17.949  0.00  0.00    +0.000 HD
BRANCH  14  16
ATOM     16  C   UNL     1       1.443   9.661  19.139  0.00  0.00    +0.000 C 
BRANCH  16  17
ATOM     17  C   UNL     1       0.053  10.184  18.821  0.00  0.00    +0.000 A 
ATOM     18  C   UNL     1      -0.516  11.194  19.618  0.00  0.00    +0.000 A 
ATOM     19  C   UNL     1      -1.761  11.749  19.292  0.00  0.00    +0.000 A 
ATOM     20  C   UNL     1      -2.449  11.293  18.172  0.00  0.00    +0.000 A 
ATOM     21  F   UNL     1      -3.631  11.835  17.855  0.00  0.00    +0.000 F 
ATOM     22  C   UNL     1      -1.918  10.275  17.389  0.00  0.00    +0.000 A 
ATOM     23  C   UNL     1      -0.671   9.719  17.710  0.00  0.00    +0.000 A 
ENDBRANCH  16  17
ENDBRANCH  14  16
ENDBRANCH   8  12
BRANCH   1  24
ATOM     24  C   UNL     1       5.677   4.756  16.677  0.00  0.00    +0.000 C 
BRANCH  24  25
ATOM     25  C   UNL     1       7.185   5.046  16.689  0.00  0.00    +0.000 C 
ATOM     26  O   UNL     1       8.029   4.178  16.812  0.00  0.00    +0.000 OA
BRANCH  25  27
ATOM     27  O   UNL     1       7.438   6.384  16.627  0.00  0.00    +0.000 OA
BRANCH  27  29
ATOM     28  C   UNL     1       7.839   8.519  17.627  0.00  0.00    +0.000 C 
ATOM     29  C   UNL     1       7.829   7.017  17.853  0.00  0.00    +0.000 C 
ENDBRANCH  27  29
ENDBRANCH  25  27
ENDBRANCH  24  25
ENDBRANCH   1  24
TORSDOF 7
ENDMDL
MODEL 6
REMARK VINA RESULT:      -7.7      0.816      1.248
REMARK  Name = 
REMARK  8 active torsions:
REMARK  status: ('A' for Active; 'I' for Inactive)
REMARK    1  A    between atoms: C_1  and  C_2
REMARK    2  A    between atoms: C_2  and  O_3
REMARK    3  A    between atoms: O_3  and  C_4
REMARK    4  A    between atoms: C_4  and  C_6
REMARK    5  A    between atoms: C_6  and  N_7
REMARK    6  A    between atoms: C_14  and  C_15
REMARK    7  A    between atoms: N_17  and  C_18
REMARK    8  A    between atoms: C_18  and  C_19
REMARK                            x       y       z     vdW  Elec       q    Type
REMARK                         _______ _______ _______ _____ _____    ______ ____
ROOT
ATOM      1  N   UNL     1       5.747   4.270  17.948  0.00  0.00    +0.000 N 
ATOM      2  C   UNL     1       5.006   3.207  17.275  0.00  0.00    +0.000 C 
ATOM      3  C   UNL     1       3.602   3.352  17.825  0.00  0.00    +0.000 C 
ATOM      4  C   UNL     1       2.632   2.250  18.079  0.00  0.00    +0.000 C 
ATOM      5  C   UNL     1       1.448   2.873  18.228  0.00  0.00    +0.000 C 
ATOM      6  C   UNL     1       1.665   4.346  17.954  0.00  0.00    +0.000 C 
ATOM      7  O   UNL     1       2.748   4.173  16.969  0.00  0.00    +0.000 OA
ATOM      8  C   UNL     1       2.528   5.156  18.927  0.00  0.00    +0.000 C 
ATOM      9  C   UNL     1       3.714   4.205  19.107  0.00  0.00    +0.000 C 
ATOM     10  C   UNL     1       5.026   4.889  18.956  0.00  0.00    +0.000 C 
ATOM     11  O   UNL     1       5.363   5.875  19.599  0.00  0.00    +0.000 OA
ENDROOT
BRANCH   8  12
ATOM     12  C   UNL     1       2.002   5.683  20.237  0.00  0.00    +0.000 C 
ATOM     13  O   UNL     1       1.638   4.962  21.159  0.00  0.00    +0.000 OA
ATOM     14  N   UNL     1       2.010   7.073  20.272  0.00  0.00    +0.000 N 
ATOM     15  H   UNL     1       2.539   7.562  19.551  0.00  0.00    +0.000 HD
BRANCH  14  16
ATOM     16  C   UNL     1       1.731   7.838  21.468  0.00  0.00    +0.000 C 
BRANCH  16  17
ATOM     17  C   UNL     1       0.873   9.064  21.213  0.00  0.00    +0.000 A 
ATOM     18  C   UNL     1       0.667   9.516  19.897  0.00  0.00    +0.000 A 
ATOM     19  C   UNL     1      -0.189  10.594  19.634  0.00  0.00    +0.000 A 
ATOM     20  C   UNL     1      -0.839  11.232  20.686  0.00  0.00    +0.000 A 
ATOM     21  F   UNL     1      -1.667  12.253  20.430  0.00  0.00    +0.000 F 
ATOM     22  C   UNL     1      -0.626  10.821  21.996  0.00  0.00    +0.000 A 
ATOM     23  C   UNL     1       0.227   9.740  22.262  0.00  0.00    +0.000 A 
ENDBRANCH  16  17
ENDBRANCH  14  16
ENDBRANCH   8  12
BRANCH   1  24
ATOM     24  C   UNL     1       6.866   4.970  17.334  0.00  0.00    +0.000 C 
BRANCH  24  25
ATOM     25  C   UNL     1       6.453   6.003  16.274  0.00  0.00    +0.000 C 
ATOM     26  O   UNL     1       5.967   5.697  15.200  0.00  0.00    +0.000 OA
BRANCH  25  27
ATOM     27  O   UNL     1       6.775   7.270  16.657  0.00  0.00    +0.000 OA
BRANCH  27  29
ATOM     28  C   UNL     1       8.054   8.861  17.902  0.00  0.00    +0.000 C 
ATOM     29  C   UNL     1       7.697   7.394  17.748  0.00  0.00    +0.000 C 
ENDBRANCH  27  29
ENDBRANCH  25  27
ENDBRANCH  24  25
ENDBRANCH   1  24
TORSDOF 7
ENDMDL
MODEL 7
REMARK VINA RESULT:      -7.6      1.985      2.372
REMARK  Name = 
REMARK  8 active torsions:
REMARK  status: ('A' for Active; 'I' for Inactive)
REMARK    1  A    between atoms: C_1  and  C_2
REMARK    2  A    between atoms: C_2  and  O_3
REMARK    3  A    between atoms: O_3  and  C_4
REMARK    4  A    between atoms: C_4  and  C_6
REMARK    5  A    between atoms: C_6  and  N_7
REMARK    6  A    between atoms: C_14  and  C_15
REMARK    7  A    between atoms: N_17  and  C_18
REMARK    8  A    between atoms: C_18  and  C_19
REMARK                            x       y       z     vdW  Elec       q    Type
REMARK                         _______ _______ _______ _____ _____    ______ ____
ROOT
ATOM      1  N   UNL     1       5.034   4.558  17.517  0.00  0.00    +0.000 N 
ATOM      2  C   UNL     1       4.550   3.479  18.374  0.00  0.00    +0.000 C 
ATOM      3  C   UNL     1       3.419   4.124  19.148  0.00  0.00    +0.000 C 
ATOM      4  C   UNL     1       3.023   3.824  20.553  0.00  0.00    +0.000 C 
ATOM      5  C   UNL     1       1.799   4.369  20.680  0.00  0.00    +0.000 C 
ATOM      6  C   UNL     1       1.391   4.905  19.325  0.00  0.00    +0.000 C 
ATOM      7  O   UNL     1       2.115   3.902  18.525  0.00  0.00    +0.000 OA
ATOM      8  C   UNL     1       2.162   6.093  18.740  0.00  0.00    +0.000 C 
ATOM      9  C   UNL     1       3.602   5.652  19.011  0.00  0.00    +0.000 C 
ATOM     10  C   UNL     1       4.479   5.790  17.817  0.00  0.00    +0.000 C 
ATOM     11  O   UNL     1       4.623   6.832  17.191  0.00  0.00    +0.000 OA
ENDROOT
BRANCH   8  12
ATOM     12  C   UNL     1       1.903   7.517  19.158  0.00  0.00    +0.000 C 
ATOM     13  O   UNL     1       1.788   7.869  20.326  0.00  0.00    +0.000 OA
ATOM     14  N   UNL     1       1.841   8.371  18.062  0.00  0.00    +0.000 N 
ATOM     15  H   UNL     1       2.173   8.018  17.166  0.00  0.00    +0.000 HD
BRANCH  14  16
ATOM     16  C   UNL     1       1.784   9.812  18.182  0.00  0.00    +0.000 C 
BRANCH  16  17
ATOM     17  C   UNL     1       0.394  10.338  18.489  0.00  0.00    +0.000 A 
ATOM     18  C   UNL     1       0.211  11.279  19.518  0.00  0.00    +0.000 A 
ATOM     19  C   UNL     1      -1.051  11.840  19.761  0.00  0.00    +0.000 A 
ATOM     20  C   UNL     1      -2.138  11.458  18.981  0.00  0.00    +0.000 A 
ATOM     21  F   UNL     1      -3.338  12.007  19.207  0.00  0.00    +0.000 F 
ATOM     22  C   UNL     1      -1.985  10.508  17.980  0.00  0.00    +0.000 A 
ATOM     23  C   UNL     1      -0.724   9.947  17.731  0.00  0.00    +0.000 A 
ENDBRANCH  16  17
ENDBRANCH  14  16
ENDBRANCH   8  12
BRANCH   1  24
ATOM     24  C   UNL     1       5.595   4.329  16.192  0.00  0.00    +0.000 C 
BRANCH  24  25
ATOM     25  C   UNL     1       7.027   4.855  16.018  0.00  0.00    +0.000 C 
ATOM     26  O   UNL     1       7.484   5.199  14.942  0.00  0.00    +0.000 OA
BRANCH  25  27
ATOM     27  O   UNL     1       7.724   4.808  17.187  0.00  0.00    +0.000 OA
BRANCH  27  29
ATOM     28  C   UNL     1       7.867   5.738  19.385  0.00  0.00    +0.000 C 
ATOM     29  C   UNL     1       7.865   6.045  17.898  0.00  0.00    +0.000 C 
ENDBRANCH  27  29
ENDBRANCH  25  27
ENDBRANCH  24  25
ENDBRANCH   1  24
TORSDOF 7
ENDMDL
MODEL 8
REMARK VINA RESULT:      -7.6      2.250      3.093
REMARK  Name = 
REMARK  8 active torsions:
REMARK  status: ('A' for Active; 'I' for Inactive)
REMARK    1  A    between atoms: C_1  and  C_2
REMARK    2  A    between atoms: C_2  and  O_3
REMARK    3  A    between atoms: O_3  and  C_4
REMARK    4  A    between atoms: C_4  and  C_6
REMARK    5  A    between atoms: C_6  and  N_7
REMARK    6  A    between atoms: C_14  and  C_15
REMARK    7  A    between atoms: N_17  and  C_18
REMARK    8  A    between atoms: C_18  and  C_19
REMARK                            x       y       z     vdW  Elec       q    Type
REMARK                         _______ _______ _______ _____ _____    ______ ____
ROOT
ATOM      1  N   UNL     1       5.835   4.785  17.596  0.00  0.00    +0.000 N 
ATOM      2  C   UNL     1       5.077   3.579  17.919  0.00  0.00    +0.000 C 
ATOM      3  C   UNL     1       3.740   4.116  18.384  0.00  0.00    +0.000 C 
ATOM      4  C   UNL     1       2.862   3.522  19.431  0.00  0.00    +0.000 C 
ATOM      5  C   UNL     1       1.672   4.128  19.255  0.00  0.00    +0.000 C 
ATOM      6  C   UNL     1       1.782   5.009  18.030  0.00  0.00    +0.000 C 
ATOM      7  O   UNL     1       2.753   4.168  17.307  0.00  0.00    +0.000 OA
ATOM      8  C   UNL     1       2.707   6.229  18.081  0.00  0.00    +0.000 C 
ATOM      9  C   UNL     1       3.953   5.609  18.718  0.00  0.00    +0.000 C 
ATOM     10  C   UNL     1       5.203   5.953  17.988  0.00  0.00    +0.000 C 
ATOM     11  O   UNL     1       5.560   7.098  17.743  0.00  0.00    +0.000 OA
ENDROOT
BRANCH   8  12
ATOM     12  C   UNL     1       2.308   7.528  18.733  0.00  0.00    +0.000 C 
ATOM     13  O   UNL     1       2.184   7.667  19.944  0.00  0.00    +0.000 OA
ATOM     14  N   UNL     1       2.126   8.538  17.795  0.00  0.00    +0.000 N 
ATOM     15  H   UNL     1       2.471   8.377  16.850  0.00  0.00    +0.000 HD
BRANCH  14  16
ATOM     16  C   UNL     1       1.918   9.924  18.154  0.00  0.00    +0.000 C 
BRANCH  16  17
ATOM     17  C   UNL     1       0.457  10.282  18.360  0.00  0.00    +0.000 A 
ATOM     18  C   UNL     1       0.100  11.254  19.311  0.00  0.00    +0.000 A 
ATOM     19  C   UNL     1      -1.234  11.659  19.458  0.00  0.00    +0.000 A 
ATOM     20  C   UNL     1      -2.221  11.089  18.659  0.00  0.00    +0.000 A 
ATOM     21  F   UNL     1      -3.492  11.488  18.792  0.00  0.00    +0.000 F 
ATOM     22  C   UNL     1      -1.893  10.105  17.734  0.00  0.00    +0.000 A 
ATOM     23  C   UNL     1      -0.560   9.700  17.583  0.00  0.00    +0.000 A 
ENDBRANCH  16  17
ENDBRANCH  14  16
ENDBRANCH   8  12
BRANCH   1  24
ATOM     24  C   UNL     1       6.839   4.834  16.542  0.00  0.00    +0.000 C 
BRANCH  24  25
ATOM     25  C   UNL     1       6.257   4.944  15.125  0.00  0.00    +0.000 C 
ATOM     26  O   UNL     1       5.608   5.901  14.744  0.00  0.00    +0.000 OA
BRANCH  25  27
ATOM     27  O   UNL     1       6.491   3.815  14.398  0.00  0.00    +0.000 OA
BRANCH  27  29
ATOM     28  C   UNL     1       6.812   3.578  12.040  0.00  0.00    +0.000 C 
ATOM     29  C   UNL     1       5.787   3.699  13.154  0.00  0.00    +0.000 C 
ENDBRANCH  27  29
ENDBRANCH  25  27
ENDBRANCH  24  25
ENDBRANCH   1  24
TORSDOF 7
ENDMDL
MODEL 9
REMARK VINA RESULT:      -7.5      2.283      3.339
REMARK  Name = 
REMARK  8 active torsions:
REMARK  status: ('A' for Active; 'I' for Inactive)
REMARK    1  A    between atoms: C_1  and  C_2
REMARK    2  A    between atoms: C_2  and  O_3
REMARK    3  A    between atoms: O_3  and  C_4
REMARK    4  A    between atoms: C_4  and  C_6
REMARK    5  A    between atoms: C_6  and  N_7
REMARK    6  A    between atoms: C_14  and  C_15
REMARK    7  A    between atoms: N_17  and  C_18
REMARK    8  A    between atoms: C_18  and  C_19
REMARK                            x       y       z     vdW  Elec       q    Type
REMARK                         _______ _______ _______ _____ _____    ______ ____
ROOT
ATOM      1  N   UNL     1       5.022   4.542  17.273  0.00  0.00    +0.000 N 
ATOM      2  C   UNL     1       4.454   3.764  18.370  0.00  0.00    +0.000 C 
ATOM      3  C   UNL     1       3.430   4.703  18.975  0.00  0.00    +0.000 C 
ATOM      4  C   UNL     1       3.056   4.796  20.414  0.00  0.00    +0.000 C 
ATOM      5  C   UNL     1       1.904   5.494  20.417  0.00  0.00    +0.000 C 
ATOM      6  C   UNL     1       1.508   5.733  18.975  0.00  0.00    +0.000 C 
ATOM      7  O   UNL     1       2.088   4.490  18.436  0.00  0.00    +0.000 OA
ATOM      8  C   UNL     1       2.384   6.648  18.113  0.00  0.00    +0.000 C 
ATOM      9  C   UNL     1       3.775   6.121  18.470  0.00  0.00    +0.000 C 
ATOM     10  C   UNL     1       4.618   5.866  17.270  0.00  0.00    +0.000 C 
ATOM     11  O   UNL     1       4.852   6.703  16.408  0.00  0.00    +0.000 OA
ENDROOT
BRANCH   8  12
ATOM     12  C   UNL     1       2.299   8.151  18.175  0.00  0.00    +0.000 C 
ATOM     13  O   UNL     1       2.793   8.892  17.334  0.00  0.00    +0.000 OA
ATOM     14  N   UNL     1       1.574   8.579  19.282  0.00  0.00    +0.000 N 
ATOM     15  H   UNL     1       1.022   7.885  19.784  0.00  0.00    +0.000 HD
BRANCH  14  16
ATOM     16  C   UNL     1       1.184   9.956  19.490  0.00  0.00    +0.000 C 
BRANCH  16  17
ATOM     17  C   UNL     1      -0.195  10.281  18.945  0.00  0.00    +0.000 A 
ATOM     18  C   UNL     1      -1.015  11.207  19.615  0.00  0.00    +0.000 A 
ATOM     19  C   UNL     1      -2.256  11.583  19.083  0.00  0.00    +0.000 A 
ATOM     20  C   UNL     1      -2.688  11.032  17.881  0.00  0.00    +0.000 A 
ATOM     21  F   UNL     1      -3.867  11.406  17.368  0.00  0.00    +0.000 F 
ATOM     22  C   UNL     1      -1.907  10.094  17.218  0.00  0.00    +0.000 A 
ATOM     23  C   UNL     1      -0.664   9.717  17.745  0.00  0.00    +0.000 A 
ENDBRANCH  16  17
ENDBRANCH  14  16
ENDBRANCH   8  12
BRANCH   1  24
ATOM     24  C   UNL     1       5.505   3.938  16.038  0.00  0.00    +0.000 C 
BRANCH  24  25
ATOM     25  C   UNL     1       6.910   4.398  15.623  0.00  0.00    +0.000 C 
ATOM     26  O   UNL     1       7.829   4.526  16.412  0.00  0.00    +0.000 OA
BRANCH  25  27
ATOM     27  O   UNL     1       6.964   4.714  14.299  0.00  0.00    +0.000 OA
BRANCH  27  29
ATOM     28  C   UNL     1       6.963   3.833  12.075  0.00  0.00    +0.000 C 
ATOM     29  C   UNL     1       6.236   3.858  13.408  0.00  0.00    +0.000 C 
ENDBRANCH  27  29
ENDBRANCH  25  27
ENDBRANCH  24  25
ENDBRANCH   1  24
TORSDOF 7
ENDMDL
