MODEL 1
REMARK VINA RESULT:      -8.5      0.000      0.000
REMARK  Name = 
REMARK  8 active torsions:
REMARK  status: ('A' for Active; 'I' for Inactive)
REMARK    1  A    between atoms: C_1  and  C_2
REMARK    2  A    between atoms: C_4  and  C_5
REMARK    3  A    between atoms: C_6  and  C_7
REMARK    4  A    between atoms: C_8  and  O_9
REMARK    5  A    between atoms: O_9  and  C_10
REMARK    6  A    between atoms: C_13  and  C_14
REMARK    7  A    between atoms: C_19  and  C_20
REMARK    8  A    between atoms: N_22  and  C_23
REMARK                            x       y       z     vdW  Elec       q    Type
REMARK                         _______ _______ _______ _____ _____    ______ ____
ROOT
ATOM      1  C   UNL     1       5.657   4.753  17.702  0.00  0.00    +0.000 A 
ATOM      2  C   UNL     1       4.960   3.861  16.857  0.00  0.00    +0.000 A 
ATOM      3  C   UNL     1       5.295   3.703  15.511  0.00  0.00    +0.000 A 
ATOM      4  C   UNL     1       6.278   4.502  14.938  0.00  0.00    +0.000 A 
ATOM      5  C   UNL     1       6.910   5.457  15.749  0.00  0.00    +0.000 A 
ATOM      6  C   UNL     1       6.614   5.608  17.130  0.00  0.00    +0.000 A 
ENDROOT
BRANCH   4   7
ATOM      7  C   UNL     1       6.628   4.391  13.475  0.00  0.00    +0.000 C 
ATOM      8  F   UNL     1       7.517   5.337  13.061  0.00  0.00    +0.000 F 
ATOM      9  F   UNL     1       7.193   3.191  13.169  0.00  0.00    +0.000 F 
ATOM     10  F   UNL     1       5.544   4.519  12.663  0.00  0.00    +0.000 F 
ENDBRANCH   4   7
BRANCH   6  11
ATOM     11  C   UNL     1       7.366   6.716  17.811  0.00  0.00    +0.000 C 
ATOM     12  O   UNL     1       8.041   6.407  18.792  0.00  0.00    +0.000 OA
ATOM     13  N   UNL     1       7.288   8.004  17.309  0.00  0.00    +0.000 N 
ATOM     14  H   UNL     1       6.664   8.146  16.521  0.00  0.00    +0.000 HD
BRANCH  13  15
ATOM     15  C   UNL     1       7.942   9.127  17.805  0.00  0.00    +0.000 A 
ATOM     16  C   UNL     1       8.791   8.922  18.970  0.00  0.00    +0.000 A 
ATOM     17  C   UNL     1       9.493   9.938  19.491  0.00  0.00    +0.000 A 
ATOM     18  N   UNL     1       9.400  11.193  18.949  0.00  0.00    +0.000 N 
ATOM     19  C   UNL     1       8.605  11.503  17.881  0.00  0.00    +0.000 A 
ATOM     20  O   UNL     1       8.525  12.639  17.424  0.00  0.00    +0.000 OA
ATOM     21  C   UNL     1       7.834  10.370  17.296  0.00  0.00    +0.000 A 
ATOM     22  H   UNL     1       9.932  11.964  19.336  0.00  0.00    +0.000 HD
ENDBRANCH  13  15
ENDBRANCH   6  11
BRANCH   1  23
ATOM     23  O   UNL     1       5.405   4.802  19.068  0.00  0.00    +0.000 OA
BRANCH  23  31
ATOM     24  C   UNL     1       1.711   7.841  20.192  0.00  0.00    +0.000 C 
ATOM     25  C   UNL     1       2.229   6.441  20.043  0.00  0.00    +0.000 A 
ATOM     26  C   UNL     1       1.566   5.359  20.624  0.00  0.00    +0.000 A 
ATOM     27  C   UNL     1       2.123   4.065  20.604  0.00  0.00    +0.000 A 
ATOM     28  C   UNL     1       1.310   2.938  21.185  0.00  0.00    +0.000 C 
ATOM     29  C   UNL     1       3.419   3.872  20.069  0.00  0.00    +0.000 A 
ATOM     30  C   UNL     1       4.117   2.539  20.148  0.00  0.00    +0.000 C 
ATOM     31  C   UNL     1       4.093   4.975  19.503  0.00  0.00    +0.000 A 
ATOM     32  C   UNL     1       3.451   6.219  19.408  0.00  0.00    +0.000 A 
ENDBRANCH  23  31
ENDBRANCH   1  23
TORSDOF 5
ENDMDL
MODEL 2
REMARK VINA RESULT:      -8.5      6.455      9.423
REMARK  Name = 
REMARK  8 active torsions:
REMARK  status: ('A' for Active; 'I' for Inactive)
REMARK    1  A    between atoms: C_1  and  C_2
REMARK    2  A    between atoms: C_4  and  C_5
REMARK    3  A    between atoms: C_6  and  C_7
REMARK    4  A    between atoms: C_8  and  O_9
REMARK    5  A    between atoms: O_9  and  C_10
REMARK    6  A    between atoms: C_13  and  C_14
REMARK    7  A    between atoms: C_19  and  C_20
REMARK    8  A    between atoms: N_22  and  C_23
REMARK                            x       y       z     vdW  Elec       q    Type
REMARK                         _______ _______ _______ _____ _____    ______ ____
ROOT
ATOM      1  C   UNL     1       0.013  11.757  19.013  0.00  0.00    +0.000 A 
ATOM      2  C   UNL     1      -0.111  13.143  19.259  0.00  0.00    +0.000 A 
ATOM      3  C   UNL     1       0.902  14.046  18.933  0.00  0.00    +0.000 A 
ATOM      4  C   UNL     1       2.116  13.583  18.437  0.00  0.00    +0.000 A 
ATOM      5  C   UNL     1       2.281  12.199  18.279  0.00  0.00    +0.000 A 
ATOM      6  C   UNL     1       1.251  11.266  18.566  0.00  0.00    +0.000 A 
ENDROOT
BRANCH   4   7
ATOM      7  C   UNL     1       3.249  14.529  18.123  0.00  0.00    +0.000 C 
ATOM      8  F   UNL     1       3.455  15.463  19.093  0.00  0.00    +0.000 F 
ATOM      9  F   UNL     1       4.436  13.880  17.974  0.00  0.00    +0.000 F 
ATOM     10  F   UNL     1       3.049  15.227  16.973  0.00  0.00    +0.000 F 
ENDBRANCH   4   7
BRANCH   6  11
ATOM     11  C   UNL     1       1.642   9.827  18.375  0.00  0.00    +0.000 C 
ATOM     12  O   UNL     1       1.970   9.487  17.239  0.00  0.00    +0.000 OA
ATOM     13  N   UNL     1       1.637   8.968  19.460  0.00  0.00    +0.000 N 
ATOM     14  H   UNL     1       1.305   9.351  20.340  0.00  0.00    +0.000 HD
BRANCH  13  15
ATOM     15  C   UNL     1       1.997   7.625  19.455  0.00  0.00    +0.000 A 
ATOM     16  C   UNL     1       1.590   6.839  20.612  0.00  0.00    +0.000 A 
ATOM     17  C   UNL     1       1.855   5.527  20.675  0.00  0.00    +0.000 A 
ATOM     18  N   UNL     1       2.540   4.910  19.660  0.00  0.00    +0.000 N 
ATOM     19  C   UNL     1       3.001   5.560  18.549  0.00  0.00    +0.000 A 
ATOM     20  O   UNL     1       3.626   4.989  17.661  0.00  0.00    +0.000 OA
ATOM     21  C   UNL     1       2.695   7.016  18.475  0.00  0.00    +0.000 A 
ATOM     22  H   UNL     1       2.740   3.918  19.700  0.00  0.00    +0.000 HD
ENDBRANCH  13  15
ENDBRANCH   6  11
BRANCH   1  23
ATOM     23  O   UNL     1      -1.052  10.888  19.215  0.00  0.00    +0.000 OA
BRANCH  23  31
ATOM     24  C   UNL     1      -2.739  10.018  14.683  0.00  0.00    +0.000 C 
ATOM     25  C   UNL     1      -2.998  10.464  16.092  0.00  0.00    +0.000 A 
ATOM     26  C   UNL     1      -4.148  11.181  16.424  0.00  0.00    +0.000 A 
ATOM     27  C   UNL     1      -4.327  11.720  17.713  0.00  0.00    +0.000 A 
ATOM     28  C   UNL     1      -5.629  12.416  18.013  0.00  0.00    +0.000 C 
ATOM     29  C   UNL     1      -3.284  11.614  18.664  0.00  0.00    +0.000 A 
ATOM     30  C   UNL     1      -3.366  12.290  20.007  0.00  0.00    +0.000 C 
ATOM     31  C   UNL     1      -2.114  10.906  18.314  0.00  0.00    +0.000 A 
ATOM     32  C   UNL     1      -2.028  10.257  17.073  0.00  0.00    +0.000 A 
ENDBRANCH  23  31
ENDBRANCH   1  23
TORSDOF 5
ENDMDL
MODEL 3
REMARK VINA RESULT:      -8.3      6.462      9.382
REMARK  Name = 
REMARK  8 active torsions:
REMARK  status: ('A' for Active; 'I' for Inactive)
REMARK    1  A    between atoms: C_1  and  C_2
REMARK    2  A    between atoms: C_4  and  C_5
REMARK    3  A    between atoms: C_6  and  C_7
REMARK    4  A    between atoms: C_8  and  O_9
REMARK    5  A    between atoms: O_9  and  C_10
REMARK    6  A    between atoms: C_13  and  C_14
REMARK    7  A    between atoms: C_19  and  C_20
REMARK    8  A    between atoms: N_22  and  C_23
REMARK                            x       y       z     vdW  Elec       q    Type
REMARK                         _______ _______ _______ _____ _____    ______ ____
ROOT
ATOM      1  C   UNL     1      -0.217  11.599  18.921  0.00  0.00    +0.000 A 
ATOM      2  C   UNL     1      -0.370  13.004  18.896  0.00  0.00    +0.000 A 
ATOM      3  C   UNL     1       0.697  13.859  18.617  0.00  0.00    +0.000 A 
ATOM      4  C   UNL     1       1.979  13.345  18.448  0.00  0.00    +0.000 A 
ATOM      5  C   UNL     1       2.155  11.958  18.566  0.00  0.00    +0.000 A 
ATOM      6  C   UNL     1       1.078  11.066  18.809  0.00  0.00    +0.000 A 
ENDROOT
BRANCH   4   7
ATOM      7  C   UNL     1       3.161  14.247  18.197  0.00  0.00    +0.000 C 
ATOM      8  F   UNL     1       2.958  15.131  17.180  0.00  0.00    +0.000 F 
ATOM      9  F   UNL     1       3.476  15.000  19.286  0.00  0.00    +0.000 F 
ATOM     10  F   UNL     1       4.289  13.559  17.871  0.00  0.00    +0.000 F 
ENDBRANCH   4   7
BRANCH   6  11
ATOM     11  C   UNL     1       1.482   9.624  18.946  0.00  0.00    +0.000 C 
ATOM     12  O   UNL     1       1.206   9.069  20.009  0.00  0.00    +0.000 OA
ATOM     13  N   UNL     1       2.113   8.988  17.891  0.00  0.00    +0.000 N 
ATOM     14  H   UNL     1       2.328   9.561  17.080  0.00  0.00    +0.000 HD
BRANCH  13  15
ATOM     15  C   UNL     1       2.522   7.660  17.850  0.00  0.00    +0.000 A 
ATOM     16  C   UNL     1       3.911   7.419  17.482  0.00  0.00    +0.000 A 
ATOM     17  C   UNL     1       4.405   6.174  17.458  0.00  0.00    +0.000 A 
ATOM     18  N   UNL     1       3.601   5.104  17.752  0.00  0.00    +0.000 N 
ATOM     19  C   UNL     1       2.275   5.214  18.071  0.00  0.00    +0.000 A 
ATOM     20  O   UNL     1       1.571   4.240  18.314  0.00  0.00    +0.000 OA
ATOM     21  C   UNL     1       1.731   6.600  18.109  0.00  0.00    +0.000 A 
ATOM     22  H   UNL     1       3.970   4.161  17.739  0.00  0.00    +0.000 HD
ENDBRANCH  13  15
ENDBRANCH   6  11
BRANCH   1  23
ATOM     23  O   UNL     1      -1.311  10.755  19.064  0.00  0.00    +0.000 OA
BRANCH  23  31
ATOM     24  C   UNL     1      -2.719   9.922  14.430  0.00  0.00    +0.000 C 
ATOM     25  C   UNL     1      -3.062  10.363  15.823  0.00  0.00    +0.000 A 
ATOM     26  C   UNL     1      -4.225  11.088  16.086  0.00  0.00    +0.000 A 
ATOM     27  C   UNL     1      -4.479  11.622  17.365  0.00  0.00    +0.000 A 
ATOM     28  C   UNL     1      -5.791  12.327  17.588  0.00  0.00    +0.000 C 
ATOM     29  C   UNL     1      -3.498  11.502  18.378  0.00  0.00    +0.000 A 
ATOM     30  C   UNL     1      -3.658  12.172  19.718  0.00  0.00    +0.000 C 
ATOM     31  C   UNL     1      -2.315  10.786  18.099  0.00  0.00    +0.000 A 
ATOM     32  C   UNL     1      -2.156  10.143  16.861  0.00  0.00    +0.000 A 
ENDBRANCH  23  31
ENDBRANCH   1  23
TORSDOF 5
ENDMDL
MODEL 4
REMARK VINA RESULT:      -8.3      4.338      6.697
REMARK  Name = 
REMARK  8 active torsions:
REMARK  status: ('A' for Active; 'I' for Inactive)
REMARK    1  A    between atoms: C_1  and  C_2
REMARK    2  A    between atoms: C_4  and  C_5
REMARK    3  A    between atoms: C_6  and  C_7
REMARK    4  A    between atoms: C_8  and  O_9
REMARK    5  A    between atoms: O_9  and  C_10
REMARK    6  A    between atoms: C_13  and  C_14
REMARK    7  A    between atoms: C_19  and  C_20
REMARK    8  A    between atoms: N_22  and  C_23
REMARK                            x       y       z     vdW  Elec       q    Type
REMARK                         _______ _______ _______ _____ _____    ______ ____
ROOT
ATOM      1  C   UNL     1       2.277   6.602  19.694  0.00  0.00    +0.000 A 
ATOM      2  C   UNL     1       1.412   6.162  20.721  0.00  0.00    +0.000 A 
ATOM      3  C   UNL     1       1.420   4.845  21.182  0.00  0.00    +0.000 A 
ATOM      4  C   UNL     1       2.227   3.894  20.565  0.00  0.00    +0.000 A 
ATOM      5  C   UNL     1       3.019   4.303  19.481  0.00  0.00    +0.000 A 
ATOM      6  C   UNL     1       3.057   5.646  19.022  0.00  0.00    +0.000 A 
ENDROOT
BRANCH   4   7
ATOM      7  C   UNL     1       2.220   2.452  21.006  0.00  0.00    +0.000 C 
ATOM      8  F   UNL     1       1.876   1.587  20.012  0.00  0.00    +0.000 F 
ATOM      9  F   UNL     1       3.440   2.042  21.448  0.00  0.00    +0.000 F 
ATOM     10  F   UNL     1       1.347   2.216  22.022  0.00  0.00    +0.000 F 
ENDBRANCH   4   7
BRANCH   6  11
ATOM     11  C   UNL     1       3.934   5.869  17.821  0.00  0.00    +0.000 C 
ATOM     12  O   UNL     1       3.950   7.005  17.349  0.00  0.00    +0.000 OA
ATOM     13  N   UNL     1       4.685   4.820  17.320  0.00  0.00    +0.000 N 
ATOM     14  H   UNL     1       4.556   3.917  17.765  0.00  0.00    +0.000 HD
BRANCH  13  15
ATOM     15  C   UNL     1       5.561   4.871  16.241  0.00  0.00    +0.000 A 
ATOM     16  C   UNL     1       6.757   5.683  16.413  0.00  0.00    +0.000 A 
ATOM     17  C   UNL     1       7.678   5.757  15.442  0.00  0.00    +0.000 A 
ATOM     18  N   UNL     1       7.493   5.090  14.260  0.00  0.00    +0.000 N 
ATOM     19  C   UNL     1       6.390   4.332  13.979  0.00  0.00    +0.000 A 
ATOM     20  O   UNL     1       6.239   3.757  12.906  0.00  0.00    +0.000 OA
ATOM     21  C   UNL     1       5.373   4.241  15.064  0.00  0.00    +0.000 A 
ATOM     22  H   UNL     1       8.188   5.138  13.524  0.00  0.00    +0.000 HD
ENDBRANCH  13  15
ENDBRANCH   6  11
BRANCH   1  23
ATOM     23  O   UNL     1       2.356   7.943  19.338  0.00  0.00    +0.000 OA
BRANCH  23  31
ATOM     24  C   UNL     1      -0.018   9.524  23.339  0.00  0.00    +0.000 C 
ATOM     25  C   UNL     1       0.294   9.678  21.880  0.00  0.00    +0.000 A 
ATOM     26  C   UNL     1      -0.504  10.465  21.049  0.00  0.00    +0.000 A 
ATOM     27  C   UNL     1      -0.295  10.501  19.656  0.00  0.00    +0.000 A 
ATOM     28  C   UNL     1      -1.150  11.433  18.838  0.00  0.00    +0.000 C 
ATOM     29  C   UNL     1       0.679   9.654  19.075  0.00  0.00    +0.000 A 
ATOM     30  C   UNL     1       0.847   9.550  17.582  0.00  0.00    +0.000 C 
ATOM     31  C   UNL     1       1.468   8.845  19.919  0.00  0.00    +0.000 A 
ATOM     32  C   UNL     1       1.334   8.941  21.313  0.00  0.00    +0.000 A 
ENDBRANCH  23  31
ENDBRANCH   1  23
TORSDOF 5
ENDMDL
MODEL 5
REMARK VINA RESULT:      -8.2      0.771      1.358
REMARK  Name = 
REMARK  8 active torsions:
REMARK  status: ('A' for Active; 'I' for Inactive)
REMARK    1  A    between atoms: C_1  and  C_2
REMARK    2  A    between atoms: C_4  and  C_5
REMARK    3  A    between atoms: C_6  and  C_7
REMARK    4  A    between atoms: C_8  and  O_9
REMARK    5  A    between atoms: O_9  and  C_10
REMARK    6  A    between atoms: C_13  and  C_14
REMARK    7  A    between atoms: C_19  and  C_20
REMARK    8  A    between atoms: N_22  and  C_23
REMARK                            x       y       z     vdW  Elec       q    Type
REMARK                         _______ _______ _______ _____ _____    ______ ____
ROOT
ATOM      1  C   UNL     1       5.744   4.834  17.752  0.00  0.00    +0.000 A 
ATOM      2  C   UNL     1       5.058   3.946  16.892  0.00  0.00    +0.000 A 
ATOM      3  C   UNL     1       5.415   3.792  15.552  0.00  0.00    +0.000 A 
ATOM      4  C   UNL     1       6.409   4.591  14.997  0.00  0.00    +0.000 A 
ATOM      5  C   UNL     1       7.029   5.541  15.821  0.00  0.00    +0.000 A 
ATOM      6  C   UNL     1       6.711   5.688  17.197  0.00  0.00    +0.000 A 
ENDROOT
BRANCH   4   7
ATOM      7  C   UNL     1       6.781   4.484  13.540  0.00  0.00    +0.000 C 
ATOM      8  F   UNL     1       7.295   3.267  13.203  0.00  0.00    +0.000 F 
ATOM      9  F   UNL     1       5.713   4.676  12.718  0.00  0.00    +0.000 F 
ATOM     10  F   UNL     1       7.718   5.398  13.167  0.00  0.00    +0.000 F 
ENDBRANCH   4   7
BRANCH   6  11
ATOM     11  C   UNL     1       7.455   6.793  17.895  0.00  0.00    +0.000 C 
ATOM     12  O   UNL     1       8.107   6.481  18.890  0.00  0.00    +0.000 OA
ATOM     13  N   UNL     1       7.395   8.081  17.391  0.00  0.00    +0.000 N 
ATOM     14  H   UNL     1       6.788   8.226  16.589  0.00  0.00    +0.000 HD
BRANCH  13  15
ATOM     15  C   UNL     1       8.044   9.200  17.900  0.00  0.00    +0.000 A 
ATOM     16  C   UNL     1       7.761  10.469  17.244  0.00  0.00    +0.000 A 
ATOM     17  C   UNL     1       8.307  11.608  17.692  0.00  0.00    +0.000 A 
ATOM     18  N   UNL     1       9.166  11.589  18.760  0.00  0.00    +0.000 N 
ATOM     19  C   UNL     1       9.530  10.450  19.424  0.00  0.00    +0.000 A 
ATOM     20  O   UNL     1      10.313  10.457  20.367  0.00  0.00    +0.000 OA
ATOM     21  C   UNL     1       8.912   9.187  18.931  0.00  0.00    +0.000 A 
ATOM     22  H   UNL     1       9.579  12.447  19.107  0.00  0.00    +0.000 HD
ENDBRANCH  13  15
ENDBRANCH   6  11
BRANCH   1  23
ATOM     23  O   UNL     1       5.470   4.879  19.114  0.00  0.00    +0.000 OA
BRANCH  23  31
ATOM     24  C   UNL     1       1.688   7.829  20.181  0.00  0.00    +0.000 C 
ATOM     25  C   UNL     1       2.242   6.442  20.040  0.00  0.00    +0.000 A 
ATOM     26  C   UNL     1       1.596   5.344  20.610  0.00  0.00    +0.000 A 
ATOM     27  C   UNL     1       2.183   4.064  20.598  0.00  0.00    +0.000 A 
ATOM     28  C   UNL     1       1.388   2.917  21.167  0.00  0.00    +0.000 C 
ATOM     29  C   UNL     1       3.491   3.901  20.084  0.00  0.00    +0.000 A 
ATOM     30  C   UNL     1       4.219   2.586  20.173  0.00  0.00    +0.000 C 
ATOM     31  C   UNL     1       4.148   5.020  19.528  0.00  0.00    +0.000 A 
ATOM     32  C   UNL     1       3.478   6.249  19.423  0.00  0.00    +0.000 A 
ENDBRANCH  23  31
ENDBRANCH   1  23
TORSDOF 5
ENDMDL
MODEL 6
REMARK VINA RESULT:      -8.2      6.483      9.500
REMARK  Name = 
REMARK  8 active torsions:
REMARK  status: ('A' for Active; 'I' for Inactive)
REMARK    1  A    between atoms: C_1  and  C_2
REMARK    2  A    between atoms: C_4  and  C_5
REMARK    3  A    between atoms: C_6  and  C_7
REMARK    4  A    between atoms: C_8  and  O_9
REMARK    5  A    between atoms: O_9  and  C_10
REMARK    6  A    between atoms: C_13  and  C_14
REMARK    7  A    between atoms: C_19  and  C_20
REMARK    8  A    between atoms: N_22  and  C_23
REMARK                            x       y       z     vdW  Elec       q    Type
REMARK                         _______ _______ _______ _____ _____    ______ ____
ROOT
ATOM      1  C   UNL     1       0.094  11.923  19.087  0.00  0.00    +0.000 A 
ATOM      2  C   UNL     1       0.001  13.312  19.328  0.00  0.00    +0.000 A 
ATOM      3  C   UNL     1       1.009  14.198  18.945  0.00  0.00    +0.000 A 
ATOM      4  C   UNL     1       2.190  13.715  18.392  0.00  0.00    +0.000 A 
ATOM      5  C   UNL     1       2.328  12.327  18.237  0.00  0.00    +0.000 A 
ATOM      6  C   UNL     1       1.301  11.411  18.582  0.00  0.00    +0.000 A 
ENDROOT
BRANCH   4   7
ATOM      7  C   UNL     1       3.319  14.642  18.015  0.00  0.00    +0.000 C 
ATOM      8  F   UNL     1       3.510  15.650  18.911  0.00  0.00    +0.000 F 
ATOM      9  F   UNL     1       4.512  13.993  17.926  0.00  0.00    +0.000 F 
ATOM     10  F   UNL     1       3.124  15.247  16.812  0.00  0.00    +0.000 F 
ENDBRANCH   4   7
BRANCH   6  11
ATOM     11  C   UNL     1       1.661   9.965  18.382  0.00  0.00    +0.000 C 
ATOM     12  O   UNL     1       1.997   9.629  17.247  0.00  0.00    +0.000 OA
ATOM     13  N   UNL     1       1.621   9.096  19.459  0.00  0.00    +0.000 N 
ATOM     14  H   UNL     1       1.285   9.479  20.338  0.00  0.00    +0.000 HD
BRANCH  13  15
ATOM     15  C   UNL     1       1.950   7.745  19.445  0.00  0.00    +0.000 A 
ATOM     16  C   UNL     1       2.601   7.248  18.241  0.00  0.00    +0.000 A 
ATOM     17  C   UNL     1       2.993   5.969  18.155  0.00  0.00    +0.000 A 
ATOM     18  N   UNL     1       2.760   5.102  19.190  0.00  0.00    +0.000 N 
ATOM     19  C   UNL     1       2.122   5.454  20.348  0.00  0.00    +0.000 A 
ATOM     20  O   UNL     1       1.910   4.656  21.255  0.00  0.00    +0.000 OA
ATOM     21  C   UNL     1       1.698   6.879  20.447  0.00  0.00    +0.000 A 
ATOM     22  H   UNL     1       3.057   4.136  19.133  0.00  0.00    +0.000 HD
ENDBRANCH  13  15
ENDBRANCH   6  11
BRANCH   1  23
ATOM     23  O   UNL     1      -0.972  11.070  19.348  0.00  0.00    +0.000 OA
BRANCH  23  31
ATOM     24  C   UNL     1      -2.632  10.020  14.844  0.00  0.00    +0.000 C 
ATOM     25  C   UNL     1      -2.905  10.496  16.241  0.00  0.00    +0.000 A 
ATOM     26  C   UNL     1      -4.078  11.183  16.555  0.00  0.00    +0.000 A 
ATOM     27  C   UNL     1      -4.274  11.750  17.829  0.00  0.00    +0.000 A 
ATOM     28  C   UNL     1      -5.599  12.409  18.112  0.00  0.00    +0.000 C 
ATOM     29  C   UNL     1      -3.227  11.705  18.780  0.00  0.00    +0.000 A 
ATOM     30  C   UNL     1      -3.332  12.415  20.105  0.00  0.00    +0.000 C 
ATOM     31  C   UNL     1      -2.035  11.028  18.449  0.00  0.00    +0.000 A 
ATOM     32  C   UNL     1      -1.928  10.349  17.225  0.00  0.00    +0.000 A 
ENDBRANCH  23  31
ENDBRANCH   1  23
TORSDOF 5
ENDMDL
MODEL 7
REMARK VINA RESULT:      -8.2      4.190      6.515
REMARK  Name = 
REMARK  8 active torsions:
REMARK  status: ('A' for Active; 'I' for Inactive)
REMARK    1  A    between atoms: C_1  and  C_2
REMARK    2  A    between atoms: C_4  and  C_5
REMARK    3  A    between atoms: C_6  and  C_7
REMARK    4  A    between atoms: C_8  and  O_9
REMARK    5  A    between atoms: O_9  and  C_10
REMARK    6  A    between atoms: C_13  and  C_14
REMARK    7  A    between atoms: C_19  and  C_20
REMARK    8  A    between atoms: N_22  and  C_23
REMARK                            x       y       z     vdW  Elec       q    Type
REMARK                         _______ _______ _______ _____ _____    ______ ____
ROOT
ATOM      1  C   UNL     1       2.272   6.386  19.585  0.00  0.00    +0.000 A 
ATOM      2  C   UNL     1       1.283   5.894  20.466  0.00  0.00    +0.000 A 
ATOM      3  C   UNL     1       1.037   4.528  20.612  0.00  0.00    +0.000 A 
ATOM      4  C   UNL     1       1.704   3.608  19.810  0.00  0.00    +0.000 A 
ATOM      5  C   UNL     1       2.619   4.097  18.865  0.00  0.00    +0.000 A 
ATOM      6  C   UNL     1       2.916   5.479  18.727  0.00  0.00    +0.000 A 
ENDROOT
BRANCH   4   7
ATOM      7  C   UNL     1       1.423   2.130  19.907  0.00  0.00    +0.000 C 
ATOM      8  F   UNL     1       1.362   1.677  21.190  0.00  0.00    +0.000 F 
ATOM      9  F   UNL     1       0.233   1.793  19.337  0.00  0.00    +0.000 F 
ATOM     10  F   UNL     1       2.369   1.372  19.290  0.00  0.00    +0.000 F 
ENDBRANCH   4   7
BRANCH   6  11
ATOM     11  C   UNL     1       3.889   5.801  17.628  0.00  0.00    +0.000 C 
ATOM     12  O   UNL     1       3.997   6.985  17.311  0.00  0.00    +0.000 OA
ATOM     13  N   UNL     1       4.622   4.782  17.044  0.00  0.00    +0.000 N 
ATOM     14  H   UNL     1       4.415   3.838  17.358  0.00  0.00    +0.000 HD
BRANCH  13  15
ATOM     15  C   UNL     1       5.576   4.917  16.042  0.00  0.00    +0.000 A 
ATOM     16  C   UNL     1       6.717   5.771  16.343  0.00  0.00    +0.000 A 
ATOM     17  C   UNL     1       7.708   5.927  15.455  0.00  0.00    +0.000 A 
ATOM     18  N   UNL     1       7.647   5.306  14.235  0.00  0.00    +0.000 N 
ATOM     19  C   UNL     1       6.605   4.515  13.835  0.00  0.00    +0.000 A 
ATOM     20  O   UNL     1       6.566   3.982  12.731  0.00  0.00    +0.000 OA
ATOM     21  C   UNL     1       5.511   4.333  14.829  0.00  0.00    +0.000 A 
ATOM     22  H   UNL     1       8.395   5.416  13.560  0.00  0.00    +0.000 HD
ENDBRANCH  13  15
ENDBRANCH   6  11
BRANCH   1  23
ATOM     23  O   UNL     1       2.602   7.736  19.549  0.00  0.00    +0.000 OA
BRANCH  23  31
ATOM     24  C   UNL     1      -0.105   9.490  23.255  0.00  0.00    +0.000 C 
ATOM     25  C   UNL     1       0.339   9.585  21.825  0.00  0.00    +0.000 A 
ATOM     26  C   UNL     1      -0.372  10.344  20.896  0.00  0.00    +0.000 A 
ATOM     27  C   UNL     1      -0.039  10.324  19.528  0.00  0.00    +0.000 A 
ATOM     28  C   UNL     1      -0.806  11.229  18.600  0.00  0.00    +0.000 C 
ATOM     29  C   UNL     1       0.974   9.448  19.070  0.00  0.00    +0.000 A 
ATOM     30  C   UNL     1       1.276   9.285  17.603  0.00  0.00    +0.000 C 
ATOM     31  C   UNL     1       1.675   8.667  20.012  0.00  0.00    +0.000 A 
ATOM     32  C   UNL     1       1.418   8.818  21.384  0.00  0.00    +0.000 A 
ENDBRANCH  23  31
ENDBRANCH   1  23
TORSDOF 5
ENDMDL
MODEL 8
REMARK VINA RESULT:      -8.0      6.328      9.319
REMARK  Name = 
REMARK  8 active torsions:
REMARK  status: ('A' for Active; 'I' for Inactive)
REMARK    1  A    between atoms: C_1  and  C_2
REMARK    2  A    between atoms: C_4  and  C_5
REMARK    3  A    between atoms: C_6  and  C_7
REMARK    4  A    between atoms: C_8  and  O_9
REMARK    5  A    between atoms: O_9  and  C_10
REMARK    6  A    between atoms: C_13  and  C_14
REMARK    7  A    between atoms: C_19  and  C_20
REMARK    8  A    between atoms: N_22  and  C_23
REMARK                            x       y       z     vdW  Elec       q    Type
REMARK                         _______ _______ _______ _____ _____    ______ ____
ROOT
ATOM      1  C   UNL     1      -0.713  11.155  19.482  0.00  0.00    +0.000 A 
ATOM      2  C   UNL     1      -1.960  11.795  19.308  0.00  0.00    +0.000 A 
ATOM      3  C   UNL     1      -2.789  11.517  18.220  0.00  0.00    +0.000 A 
ATOM      4  C   UNL     1      -2.356  10.659  17.215  0.00  0.00    +0.000 A 
ATOM      5  C   UNL     1      -1.078  10.093  17.334  0.00  0.00    +0.000 A 
ATOM      6  C   UNL     1      -0.235  10.329  18.451  0.00  0.00    +0.000 A 
ENDROOT
BRANCH   4   7
ATOM      7  C   UNL     1      -3.206  10.378  16.001  0.00  0.00    +0.000 C 
ATOM      8  F   UNL     1      -3.258   9.056  15.674  0.00  0.00    +0.000 F 
ATOM      9  F   UNL     1      -4.498  10.769  16.174  0.00  0.00    +0.000 F 
ATOM     10  F   UNL     1      -2.761  11.019  14.886  0.00  0.00    +0.000 F 
ENDBRANCH   4   7
BRANCH   6  11
ATOM     11  C   UNL     1       1.112   9.666  18.368  0.00  0.00    +0.000 C 
ATOM     12  O   UNL     1       2.088  10.406  18.253  0.00  0.00    +0.000 OA
ATOM     13  N   UNL     1       1.200   8.287  18.442  0.00  0.00    +0.000 N 
ATOM     14  H   UNL     1       0.321   7.779  18.492  0.00  0.00    +0.000 HD
BRANCH  13  15
ATOM     15  C   UNL     1       2.364   7.528  18.409  0.00  0.00    +0.000 A 
ATOM     16  C   UNL     1       2.541   6.563  19.485  0.00  0.00    +0.000 A 
ATOM     17  C   UNL     1       3.613   5.758  19.512  0.00  0.00    +0.000 A 
ATOM     18  N   UNL     1       4.574   5.853  18.540  0.00  0.00    +0.000 N 
ATOM     19  C   UNL     1       4.526   6.749  17.508  0.00  0.00    +0.000 A 
ATOM     20  O   UNL     1       5.408   6.826  16.659  0.00  0.00    +0.000 OA
ATOM     21  C   UNL     1       3.329   7.634  17.473  0.00  0.00    +0.000 A 
ATOM     22  H   UNL     1       5.384   5.244  18.553  0.00  0.00    +0.000 HD
ENDBRANCH  13  15
ENDBRANCH   6  11
BRANCH   1  23
ATOM     23  O   UNL     1       0.040  11.338  20.637  0.00  0.00    +0.000 OA
BRANCH  23  31
ATOM     24  C   UNL     1      -3.432  12.338  23.967  0.00  0.00    +0.000 C 
ATOM     25  C   UNL     1      -2.132  12.699  23.311  0.00  0.00    +0.000 A 
ATOM     26  C   UNL     1      -1.590  13.979  23.435  0.00  0.00    +0.000 A 
ATOM     27  C   UNL     1      -0.445  14.361  22.710  0.00  0.00    +0.000 A 
ATOM     28  C   UNL     1       0.122  15.735  22.956  0.00  0.00    +0.000 C 
ATOM     29  C   UNL     1       0.115  13.465  21.768  0.00  0.00    +0.000 A 
ATOM     30  C   UNL     1       1.252  13.872  20.867  0.00  0.00    +0.000 C 
ATOM     31  C   UNL     1      -0.451  12.180  21.632  0.00  0.00    +0.000 A 
ATOM     32  C   UNL     1      -1.500  11.780  22.473  0.00  0.00    +0.000 A 
ENDBRANCH  23  31
ENDBRANCH   1  23
TORSDOF 5
ENDMDL
MODEL 9
REMARK VINA RESULT:      -7.9      6.200      9.348
REMARK  Name = 
REMARK  8 active torsions:
REMARK  status: ('A' for Active; 'I' for Inactive)
REMARK    1  A    between atoms: C_1  and  C_2
REMARK    2  A    between atoms: C_4  and  C_5
REMARK    3  A    between atoms: C_6  and  C_7
REMARK    4  A    between atoms: C_8  and  O_9
REMARK    5  A    between atoms: O_9  and  C_10
REMARK    6  A    between atoms: C_13  and  C_14
REMARK    7  A    between atoms: C_19  and  C_20
REMARK    8  A    between atoms: N_22  and  C_23
REMARK                            x       y       z     vdW  Elec       q    Type
REMARK                         _______ _______ _______ _____ _____    ______ ____
ROOT
ATOM      1  C   UNL     1      -0.203  11.482  19.409  0.00  0.00    +0.000 A 
ATOM      2  C   UNL     1      -1.150  12.368  18.848  0.00  0.00    +0.000 A 
ATOM      3  C   UNL     1      -2.009  11.978  17.820  0.00  0.00    +0.000 A 
ATOM      4  C   UNL     1      -1.887  10.716  17.248  0.00  0.00    +0.000 A 
ATOM      5  C   UNL     1      -0.885   9.864  17.736  0.00  0.00    +0.000 A 
ATOM      6  C   UNL     1      -0.026  10.224  18.808  0.00  0.00    +0.000 A 
ENDROOT
BRANCH   4   7
ATOM      7  C   UNL     1      -2.766  10.284  16.101  0.00  0.00    +0.000 C 
ATOM      8  F   UNL     1      -2.714  11.130  15.034  0.00  0.00    +0.000 F 
ATOM      9  F   UNL     1      -2.421   9.058  15.621  0.00  0.00    +0.000 F 
ATOM     10  F   UNL     1      -4.080  10.202  16.446  0.00  0.00    +0.000 F 
ENDBRANCH   4   7
BRANCH   6  11
ATOM     11  C   UNL     1       1.009   9.190  19.152  0.00  0.00    +0.000 C 
ATOM     12  O   UNL     1       1.243   9.014  20.346  0.00  0.00    +0.000 OA
ATOM     13  N   UNL     1       1.629   8.481  18.137  0.00  0.00    +0.000 N 
ATOM     14  H   UNL     1       1.387   8.745  17.186  0.00  0.00    +0.000 HD
BRANCH  13  15
ATOM     15  C   UNL     1       2.581   7.479  18.289  0.00  0.00    +0.000 A 
ATOM     16  C   UNL     1       3.745   7.551  17.416  0.00  0.00    +0.000 A 
ATOM     17  C   UNL     1       4.734   6.653  17.520  0.00  0.00    +0.000 A 
ATOM     18  N   UNL     1       4.651   5.635  18.433  0.00  0.00    +0.000 N 
ATOM     19  C   UNL     1       3.587   5.451  19.273  0.00  0.00    +0.000 A 
ATOM     20  O   UNL     1       3.528   4.522  20.071  0.00  0.00    +0.000 OA
ATOM     21  C   UNL     1       2.494   6.458  19.164  0.00  0.00    +0.000 A 
ATOM     22  H   UNL     1       5.397   4.955  18.519  0.00  0.00    +0.000 HD
ENDBRANCH  13  15
ENDBRANCH   6  11
BRANCH   1  23
ATOM     23  O   UNL     1       0.551  11.837  20.521  0.00  0.00    +0.000 OA
BRANCH  23  31
ATOM     24  C   UNL     1      -3.131  12.239  23.750  0.00  0.00    +0.000 C 
ATOM     25  C   UNL     1      -1.851  12.775  23.180  0.00  0.00    +0.000 A 
ATOM     26  C   UNL     1      -1.450  14.091  23.416  0.00  0.00    +0.000 A 
ATOM     27  C   UNL     1      -0.324  14.638  22.771  0.00  0.00    +0.000 A 
ATOM     28  C   UNL     1       0.088  16.040  23.136  0.00  0.00    +0.000 C 
ATOM     29  C   UNL     1       0.362  13.874  21.797  0.00  0.00    +0.000 A 
ATOM     30  C   UNL     1       1.485  14.457  20.979  0.00  0.00    +0.000 C 
ATOM     31  C   UNL     1      -0.062  12.551  21.548  0.00  0.00    +0.000 A 
ATOM     32  C   UNL     1      -1.096  11.987  22.311  0.00  0.00    +0.000 A 
ENDBRANCH  23  31
ENDBRANCH   1  23
TORSDOF 5
ENDMDL
