MODEL 1
REMARK VINA RESULT:      -7.1      0.000      0.000
REMARK  Name = 
REMARK  8 active torsions:
REMARK  status: ('A' for Active; 'I' for Inactive)
REMARK    1  A    between atoms: N_1  and  S_2
REMARK    2  A    between atoms: S_2  and  C_5
REMARK    3  A    between atoms: C_8  and  C_9
REMARK    4  A    between atoms: N_11  and  C1*_12
REMARK    5  A    between atoms: C4*_14  and  C5*_15
REMARK    6  A    between atoms: C5*_15  and  O5*_16
REMARK    7  A    between atoms: C3*_17  and  O3*_18
REMARK    8  A    between atoms: C2*_19  and  O2*_20
REMARK                            x       y       z     vdW  Elec       q    Type
REMARK                         _______ _______ _______ _____ _____    ______ ____
ROOT
ATOM      1  C   UNL     1       2.851   6.428  18.502  0.00  0.00    +0.000 C 
ATOM      2  O   UNL     1       2.283   5.348  18.407  0.00  0.00    +0.000 OA
ATOM      3  N   UNL     1       4.137   6.644  18.067  0.00  0.00    +0.000 N 
ATOM      4  H   UNL     1       4.647   7.464  18.356  0.00  0.00    +0.000 HD
ENDROOT
BRANCH   1   8
ATOM      5  C   UNL     1       0.841   9.608  20.555  0.00  0.00    +0.000 A 
ATOM      6  C   UNL     1       1.185   8.436  21.231  0.00  0.00    +0.000 A 
ATOM      7  C   UNL     1       1.842   7.417  20.538  0.00  0.00    +0.000 A 
ATOM      8  C   UNL     1       2.162   7.565  19.179  0.00  0.00    +0.000 A 
ATOM      9  C   UNL     1       1.797   8.738  18.504  0.00  0.00    +0.000 A 
ATOM     10  C   UNL     1       1.134   9.761  19.194  0.00  0.00    +0.000 A 
BRANCH   5  11
ATOM     11  S   UNL     1       0.037  10.914  21.443  0.00  0.00    +0.000 S 
ATOM     12  O   UNL     1       0.049  10.601  22.852  0.00  0.00    +0.000 OA
ATOM     13  O   UNL     1      -1.159  11.298  20.735  0.00  0.00    +0.000 OA
BRANCH  11  14
ATOM     14  N   UNL     1       1.113  12.187  21.219  0.00  0.00    +0.000 NA
ATOM     15  H   UNL     1       2.070  11.837  21.267  0.00  0.00    +0.000 HD
ATOM     16  H   UNL     1       0.915  12.937  21.884  0.00  0.00    +0.000 HD
ENDBRANCH  11  14
ENDBRANCH   5  11
ENDBRANCH   1   8
BRANCH   3  17
ATOM     17  C1* UNL     1       4.892   5.574  17.473  0.00  0.00    +0.000 C 
ATOM     18  O4* UNL     1       5.603   4.957  18.557  0.00  0.00    +0.000 OA
ATOM     19  C4* UNL     1       6.997   4.812  18.184  0.00  0.00    +0.000 C 
ATOM     20  C3* UNL     1       7.073   5.061  16.682  0.00  0.00    +0.000 C 
ATOM     21  C2* UNL     1       5.936   6.041  16.444  0.00  0.00    +0.000 C 
BRANCH  20  22
ATOM     22  O3* UNL     1       6.816   3.857  15.935  0.00  0.00    +0.000 OA
ATOM     23  H3* UNL     1       7.154   3.092  16.434  0.00  0.00    +0.000 HD
ENDBRANCH  20  22
BRANCH  21  24
ATOM     24  O2* UNL     1       5.498   6.000  15.091  0.00  0.00    +0.000 OA
ATOM     25  H2* UNL     1       5.056   5.136  14.965  0.00  0.00    +0.000 HD
ENDBRANCH  21  24
BRANCH  19  26
ATOM     26  C5* UNL     1       7.803   5.821  19.004  0.00  0.00    +0.000 C 
BRANCH  26  27
ATOM     27  O5* UNL     1       7.796   5.439  20.379  0.00  0.00    +0.000 OA
ATOM     28  H5* UNL     1       7.653   6.257  20.894  0.00  0.00    +0.000 HD
ENDBRANCH  26  27
ENDBRANCH  19  26
ENDBRANCH   3  17
TORSDOF 8
ENDMDL
MODEL 2
REMARK VINA RESULT:      -7.0      0.669      1.231
REMARK  Name = 
REMARK  8 active torsions:
REMARK  status: ('A' for Active; 'I' for Inactive)
REMARK    1  A    between atoms: N_1  and  S_2
REMARK    2  A    between atoms: S_2  and  C_5
REMARK    3  A    between atoms: C_8  and  C_9
REMARK    4  A    between atoms: N_11  and  C1*_12
REMARK    5  A    between atoms: C4*_14  and  C5*_15
REMARK    6  A    between atoms: C5*_15  and  O5*_16
REMARK    7  A    between atoms: C3*_17  and  O3*_18
REMARK    8  A    between atoms: C2*_19  and  O2*_20
REMARK                            x       y       z     vdW  Elec       q    Type
REMARK                         _______ _______ _______ _____ _____    ______ ____
ROOT
ATOM      1  C   UNL     1       2.866   6.547  18.237  0.00  0.00    +0.000 C 
ATOM      2  O   UNL     1       2.277   5.480  18.124  0.00  0.00    +0.000 OA
ATOM      3  N   UNL     1       4.188   6.717  17.902  0.00  0.00    +0.000 N 
ATOM      4  H   UNL     1       4.697   7.531  18.210  0.00  0.00    +0.000 HD
ENDROOT
BRANCH   1   8
ATOM      5  C   UNL     1       0.865   9.991  19.817  0.00  0.00    +0.000 A 
ATOM      6  C   UNL     1       1.232   9.941  18.471  0.00  0.00    +0.000 A 
ATOM      7  C   UNL     1       1.880   8.805  17.983  0.00  0.00    +0.000 A 
ATOM      8  C   UNL     1       2.158   7.719  18.827  0.00  0.00    +0.000 A 
ATOM      9  C   UNL     1       1.802   7.786  20.182  0.00  0.00    +0.000 A 
ATOM     10  C   UNL     1       1.156   8.924  20.677  0.00  0.00    +0.000 A 
BRANCH   5  11
ATOM     11  S   UNL     1       0.013  11.419  20.430  0.00  0.00    +0.000 S 
ATOM     12  O   UNL     1       0.347  11.603  21.822  0.00  0.00    +0.000 OA
ATOM     13  O   UNL     1      -1.345  11.402  19.945  0.00  0.00    +0.000 OA
BRANCH  11  14
ATOM     14  N   UNL     1       0.771  12.657  19.580  0.00  0.00    +0.000 NA
ATOM     15  H   UNL     1       1.570  12.279  19.069  0.00  0.00    +0.000 HD
ATOM     16  H   UNL     1       1.010  13.423  20.211  0.00  0.00    +0.000 HD
ENDBRANCH  11  14
ENDBRANCH   5  11
ENDBRANCH   1   8
BRANCH   3  17
ATOM     17  C1* UNL     1       4.959   5.611  17.399  0.00  0.00    +0.000 C 
ATOM     18  O4* UNL     1       5.600   5.035  18.547  0.00  0.00    +0.000 OA
ATOM     19  C4* UNL     1       7.010   4.855  18.258  0.00  0.00    +0.000 C 
ATOM     20  C3* UNL     1       7.171   5.035  16.753  0.00  0.00    +0.000 C 
ATOM     21  C2* UNL     1       6.063   6.017  16.409  0.00  0.00    +0.000 C 
BRANCH  20  22
ATOM     22  O3* UNL     1       6.936   3.801  16.047  0.00  0.00    +0.000 OA
ATOM     23  H3* UNL     1       6.714   4.000  15.120  0.00  0.00    +0.000 HD
ENDBRANCH  20  22
BRANCH  21  24
ATOM     24  O2* UNL     1       5.699   5.920  15.037  0.00  0.00    +0.000 OA
ATOM     25  H2* UNL     1       4.736   5.745  15.015  0.00  0.00    +0.000 HD
ENDBRANCH  21  24
BRANCH  19  26
ATOM     26  C5* UNL     1       7.785   5.890  19.075  0.00  0.00    +0.000 C 
BRANCH  26  27
ATOM     27  O5* UNL     1       7.922   5.437  20.421  0.00  0.00    +0.000 OA
ATOM     28  H5* UNL     1       7.329   4.668  20.518  0.00  0.00    +0.000 HD
ENDBRANCH  26  27
ENDBRANCH  19  26
ENDBRANCH   3  17
TORSDOF 8
ENDMDL
MODEL 3
REMARK VINA RESULT:      -7.0      0.879      1.025
REMARK  Name = 
REMARK  8 active torsions:
REMARK  status: ('A' for Active; 'I' for Inactive)
REMARK    1  A    between atoms: N_1  and  S_2
REMARK    2  A    between atoms: S_2  and  C_5
REMARK    3  A    between atoms: C_8  and  C_9
REMARK    4  A    between atoms: N_11  and  C1*_12
REMARK    5  A    between atoms: C4*_14  and  C5*_15
REMARK    6  A    between atoms: C5*_15  and  O5*_16
REMARK    7  A    between atoms: C3*_17  and  O3*_18
REMARK    8  A    between atoms: C2*_19  and  O2*_20
REMARK                            x       y       z     vdW  Elec       q    Type
REMARK                         _______ _______ _______ _____ _____    ______ ____
ROOT
ATOM      1  C   UNL     1       2.855   6.542  18.234  0.00  0.00    +0.000 C 
ATOM      2  O   UNL     1       2.253   5.476  18.211  0.00  0.00    +0.000 OA
ATOM      3  N   UNL     1       4.161   6.679  17.829  0.00  0.00    +0.000 N 
ATOM      4  H   UNL     1       4.689   7.504  18.065  0.00  0.00    +0.000 HD
ENDROOT
BRANCH   1   8
ATOM      5  C   UNL     1       0.890   9.951  19.933  0.00  0.00    +0.000 A 
ATOM      6  C   UNL     1       1.190   8.840  20.723  0.00  0.00    +0.000 A 
ATOM      7  C   UNL     1       1.833   7.744  20.144  0.00  0.00    +0.000 A 
ATOM      8  C   UNL     1       2.183   7.754  18.786  0.00  0.00    +0.000 A 
ATOM      9  C   UNL     1       1.862   8.866  17.994  0.00  0.00    +0.000 A 
ATOM     10  C   UNL     1       1.213   9.966  18.569  0.00  0.00    +0.000 A 
BRANCH   5  11
ATOM     11  S   UNL     1       0.104  11.355  20.675  0.00  0.00    +0.000 S 
ATOM     12  O   UNL     1      -1.248  11.452  20.179  0.00  0.00    +0.000 OA
ATOM     13  O   UNL     1       1.023  12.466  20.671  0.00  0.00    +0.000 OA
BRANCH  11  14
ATOM     14  N   UNL     1      -0.002  10.873  22.283  0.00  0.00    +0.000 NA
ATOM     15  H   UNL     1      -0.958  10.581  22.489  0.00  0.00    +0.000 HD
ATOM     16  H   UNL     1       0.343  11.614  22.896  0.00  0.00    +0.000 HD
ENDBRANCH  11  14
ENDBRANCH   5  11
ENDBRANCH   1   8
BRANCH   3  17
ATOM     17  C1* UNL     1       4.899   5.538  17.357  0.00  0.00    +0.000 C 
ATOM     18  O4* UNL     1       5.560   5.002  18.514  0.00  0.00    +0.000 OA
ATOM     19  C4* UNL     1       6.958   4.783  18.198  0.00  0.00    +0.000 C 
ATOM     20  C3* UNL     1       7.084   4.893  16.683  0.00  0.00    +0.000 C 
ATOM     21  C2* UNL     1       5.985   5.879  16.323  0.00  0.00    +0.000 C 
BRANCH  20  22
ATOM     22  O3* UNL     1       6.810   3.634  16.040  0.00  0.00    +0.000 OA
ATOM     23  H3* UNL     1       6.158   3.139  16.570  0.00  0.00    +0.000 HD
ENDBRANCH  20  22
BRANCH  21  24
ATOM     24  O2* UNL     1       5.583   5.728  14.966  0.00  0.00    +0.000 OA
ATOM     25  H2* UNL     1       4.641   5.989  14.922  0.00  0.00    +0.000 HD
ENDBRANCH  21  24
BRANCH  19  26
ATOM     26  C5* UNL     1       7.772   5.839  18.947  0.00  0.00    +0.000 C 
BRANCH  26  27
ATOM     27  O5* UNL     1       7.834   5.506  20.334  0.00  0.00    +0.000 OA
ATOM     28  H5* UNL     1       7.675   4.544  20.396  0.00  0.00    +0.000 HD
ENDBRANCH  26  27
ENDBRANCH  19  26
ENDBRANCH   3  17
TORSDOF 8
ENDMDL
MODEL 4
REMARK VINA RESULT:      -7.0      0.872      1.436
REMARK  Name = 
REMARK  8 active torsions:
REMARK  status: ('A' for Active; 'I' for Inactive)
REMARK    1  A    between atoms: N_1  and  S_2
REMARK    2  A    between atoms: S_2  and  C_5
REMARK    3  A    between atoms: C_8  and  C_9
REMARK    4  A    between atoms: N_11  and  C1*_12
REMARK    5  A    between atoms: C4*_14  and  C5*_15
REMARK    6  A    between atoms: C5*_15  and  O5*_16
REMARK    7  A    between atoms: C3*_17  and  O3*_18
REMARK    8  A    between atoms: C2*_19  and  O2*_20
REMARK                            x       y       z     vdW  Elec       q    Type
REMARK                         _______ _______ _______ _____ _____    ______ ____
ROOT
ATOM      1  C   UNL     1       2.885   6.456  18.373  0.00  0.00    +0.000 C 
ATOM      2  O   UNL     1       2.356   5.354  18.415  0.00  0.00    +0.000 OA
ATOM      3  N   UNL     1       4.144   6.669  17.863  0.00  0.00    +0.000 N 
ATOM      4  H   UNL     1       4.633   7.532  18.044  0.00  0.00    +0.000 HD
ENDROOT
BRANCH   1   8
ATOM      5  C   UNL     1       0.895   9.915  19.936  0.00  0.00    +0.000 A 
ATOM      6  C   UNL     1       1.292   9.871  18.598  0.00  0.00    +0.000 A 
ATOM      7  C   UNL     1       1.936   8.730  18.115  0.00  0.00    +0.000 A 
ATOM      8  C   UNL     1       2.179   7.634  18.956  0.00  0.00    +0.000 A 
ATOM      9  C   UNL     1       1.793   7.694  20.303  0.00  0.00    +0.000 A 
ATOM     10  C   UNL     1       1.151   8.837  20.793  0.00  0.00    +0.000 A 
BRANCH   5  11
ATOM     11  S   UNL     1       0.048  11.349  20.541  0.00  0.00    +0.000 S 
ATOM     12  O   UNL     1      -1.320  11.314  20.084  0.00  0.00    +0.000 OA
ATOM     13  O   UNL     1       0.899  12.502  20.379  0.00  0.00    +0.000 OA
BRANCH  11  14
ATOM     14  N   UNL     1       0.016  11.051  22.195  0.00  0.00    +0.000 NA
ATOM     15  H   UNL     1      -0.742  10.401  22.410  0.00  0.00    +0.000 HD
ATOM     16  H   UNL     1      -0.037  11.930  22.711  0.00  0.00    +0.000 HD
ENDBRANCH  11  14
ENDBRANCH   5  11
ENDBRANCH   1   8
BRANCH   3  17
ATOM     17  C1* UNL     1       4.917   5.570  17.353  0.00  0.00    +0.000 C 
ATOM     18  O4* UNL     1       5.566   4.992  18.496  0.00  0.00    +0.000 OA
ATOM     19  C4* UNL     1       6.975   4.820  18.200  0.00  0.00    +0.000 C 
ATOM     20  C3* UNL     1       7.129   5.006  16.696  0.00  0.00    +0.000 C 
ATOM     21  C2* UNL     1       6.016   5.984  16.360  0.00  0.00    +0.000 C 
BRANCH  20  22
ATOM     22  O3* UNL     1       6.897   3.773  15.987  0.00  0.00    +0.000 OA
ATOM     23  H3* UNL     1       7.376   3.052  16.433  0.00  0.00    +0.000 HD
ENDBRANCH  20  22
BRANCH  21  24
ATOM     24  O2* UNL     1       5.646   5.890  14.990  0.00  0.00    +0.000 OA
ATOM     25  H2* UNL     1       4.687   6.082  14.944  0.00  0.00    +0.000 HD
ENDBRANCH  21  24
BRANCH  19  26
ATOM     26  C5* UNL     1       7.749   5.855  19.018  0.00  0.00    +0.000 C 
BRANCH  26  27
ATOM     27  O5* UNL     1       7.819   5.440  20.382  0.00  0.00    +0.000 OA
ATOM     28  H5* UNL     1       8.157   4.524  20.376  0.00  0.00    +0.000 HD
ENDBRANCH  26  27
ENDBRANCH  19  26
ENDBRANCH   3  17
TORSDOF 8
ENDMDL
MODEL 5
REMARK VINA RESULT:      -6.9      2.406      3.569
REMARK  Name = 
REMARK  8 active torsions:
REMARK  status: ('A' for Active; 'I' for Inactive)
REMARK    1  A    between atoms: N_1  and  S_2
REMARK    2  A    between atoms: S_2  and  C_5
REMARK    3  A    between atoms: C_8  and  C_9
REMARK    4  A    between atoms: N_11  and  C1*_12
REMARK    5  A    between atoms: C4*_14  and  C5*_15
REMARK    6  A    between atoms: C5*_15  and  O5*_16
REMARK    7  A    between atoms: C3*_17  and  O3*_18
REMARK    8  A    between atoms: C2*_19  and  O2*_20
REMARK                            x       y       z     vdW  Elec       q    Type
REMARK                         _______ _______ _______ _____ _____    ______ ____
ROOT
ATOM      1  C   UNL     1       2.970   6.576  18.189  0.00  0.00    +0.000 C 
ATOM      2  O   UNL     1       4.078   6.625  17.672  0.00  0.00    +0.000 OA
ATOM      3  N   UNL     1       2.266   5.406  18.354  0.00  0.00    +0.000 N 
ATOM      4  H   UNL     1       1.283   5.424  18.574  0.00  0.00    +0.000 HD
ENDROOT
BRANCH   1   8
ATOM      5  C   UNL     1       0.985  10.137  19.509  0.00  0.00    +0.000 A 
ATOM      6  C   UNL     1       1.137   9.051  20.372  0.00  0.00    +0.000 A 
ATOM      7  C   UNL     1       1.791   7.904  19.916  0.00  0.00    +0.000 A 
ATOM      8  C   UNL     1       2.297   7.839  18.609  0.00  0.00    +0.000 A 
ATOM      9  C   UNL     1       2.123   8.928  17.743  0.00  0.00    +0.000 A 
ATOM     10  C   UNL     1       1.465  10.078  18.194  0.00  0.00    +0.000 A 
BRANCH   5  11
ATOM     11  S   UNL     1       0.185  11.605  20.097  0.00  0.00    +0.000 S 
ATOM     12  O   UNL     1      -0.976  11.230  20.869  0.00  0.00    +0.000 OA
ATOM     13  O   UNL     1       0.138  12.576  19.032  0.00  0.00    +0.000 OA
BRANCH  11  14
ATOM     14  N   UNL     1       1.322  12.197  21.186  0.00  0.00    +0.000 NA
ATOM     15  H   UNL     1       1.654  13.109  20.870  0.00  0.00    +0.000 HD
ATOM     16  H   UNL     1       2.067  11.513  21.324  0.00  0.00    +0.000 HD
ENDBRANCH  11  14
ENDBRANCH   5  11
ENDBRANCH   1   8
BRANCH   3  17
ATOM     17  C1* UNL     1       2.818   4.157  17.904  0.00  0.00    +0.000 C 
ATOM     18  O4* UNL     1       1.703   3.257  17.804  0.00  0.00    +0.000 OA
ATOM     19  C4* UNL     1       2.037   2.017  18.478  0.00  0.00    +0.000 C 
ATOM     20  C3* UNL     1       3.541   2.047  18.722  0.00  0.00    +0.000 C 
ATOM     21  C2* UNL     1       3.829   3.531  18.879  0.00  0.00    +0.000 C 
BRANCH  20  22
ATOM     22  O3* UNL     1       4.268   1.548  17.583  0.00  0.00    +0.000 OA
ATOM     23  H3* UNL     1       4.130   2.147  16.827  0.00  0.00    +0.000 HD
ENDBRANCH  20  22
BRANCH  21  24
ATOM     24  O2* UNL     1       5.192   3.822  18.591  0.00  0.00    +0.000 OA
ATOM     25  H2* UNL     1       5.201   4.678  18.117  0.00  0.00    +0.000 HD
ENDBRANCH  21  24
BRANCH  19  26
ATOM     26  C5* UNL     1       1.218   1.957  19.769  0.00  0.00    +0.000 C 
BRANCH  26  27
ATOM     27  O5* UNL     1       0.436   3.144  19.900  0.00  0.00    +0.000 OA
ATOM     28  H5* UNL     1      -0.163   3.168  19.130  0.00  0.00    +0.000 HD
ENDBRANCH  26  27
ENDBRANCH  19  26
ENDBRANCH   3  17
TORSDOF 8
ENDMDL
MODEL 6
REMARK VINA RESULT:      -6.9      3.600      7.868
REMARK  Name = 
REMARK  8 active torsions:
REMARK  status: ('A' for Active; 'I' for Inactive)
REMARK    1  A    between atoms: N_1  and  S_2
REMARK    2  A    between atoms: S_2  and  C_5
REMARK    3  A    between atoms: C_8  and  C_9
REMARK    4  A    between atoms: N_11  and  C1*_12
REMARK    5  A    between atoms: C4*_14  and  C5*_15
REMARK    6  A    between atoms: C5*_15  and  O5*_16
REMARK    7  A    between atoms: C3*_17  and  O3*_18
REMARK    8  A    between atoms: C2*_19  and  O2*_20
REMARK                            x       y       z     vdW  Elec       q    Type
REMARK                         _______ _______ _______ _____ _____    ______ ____
ROOT
ATOM      1  C   UNL     1       1.915   8.646  18.716  0.00  0.00    +0.000 C 
ATOM      2  O   UNL     1       2.156   9.269  17.690  0.00  0.00    +0.000 OA
ATOM      3  N   UNL     1       1.292   9.202  19.807  0.00  0.00    +0.000 N 
ATOM      4  H   UNL     1       1.309   8.737  20.702  0.00  0.00    +0.000 HD
ENDROOT
BRANCH   1   8
ATOM      5  C   UNL     1       3.192   4.585  19.210  0.00  0.00    +0.000 A 
ATOM      6  C   UNL     1       2.468   5.226  20.216  0.00  0.00    +0.000 A 
ATOM      7  C   UNL     1       2.063   6.549  20.027  0.00  0.00    +0.000 A 
ATOM      8  C   UNL     1       2.369   7.230  18.840  0.00  0.00    +0.000 A 
ATOM      9  C   UNL     1       3.113   6.585  17.842  0.00  0.00    +0.000 A 
ATOM     10  C   UNL     1       3.526   5.260  18.028  0.00  0.00    +0.000 A 
BRANCH   5  11
ATOM     11  S   UNL     1       3.679   2.896  19.436  0.00  0.00    +0.000 S 
ATOM     12  O   UNL     1       3.256   2.129  18.289  0.00  0.00    +0.000 OA
ATOM     13  O   UNL     1       3.394   2.501  20.793  0.00  0.00    +0.000 OA
BRANCH  11  14
ATOM     14  N   UNL     1       5.355   3.012  19.352  0.00  0.00    +0.000 NA
ATOM     15  H   UNL     1       5.727   3.247  20.273  0.00  0.00    +0.000 HD
ATOM     16  H   UNL     1       5.626   3.669  18.619  0.00  0.00    +0.000 HD
ENDBRANCH  11  14
ENDBRANCH   5  11
ENDBRANCH   1   8
BRANCH   3  17
ATOM     17  C1* UNL     1       0.893  10.584  19.791  0.00  0.00    +0.000 C 
ATOM     18  O4* UNL     1       1.068  11.051  21.138  0.00  0.00    +0.000 OA
ATOM     19  C4* UNL     1      -0.135  11.743  21.556  0.00  0.00    +0.000 C 
ATOM     20  C3* UNL     1      -0.957  11.986  20.296  0.00  0.00    +0.000 C 
ATOM     21  C2* UNL     1      -0.581  10.806  19.415  0.00  0.00    +0.000 C 
BRANCH  20  22
ATOM     22  O3* UNL     1      -0.563  13.204  19.637  0.00  0.00    +0.000 OA
ATOM     23  H3* UNL     1       0.375  13.383  19.830  0.00  0.00    +0.000 HD
ENDBRANCH  20  22
BRANCH  21  24
ATOM     24  O2* UNL     1      -0.807  11.098  18.041  0.00  0.00    +0.000 OA
ATOM     25  H2* UNL     1      -1.222  11.984  18.007  0.00  0.00    +0.000 HD
ENDBRANCH  21  24
BRANCH  19  26
ATOM     26  C5* UNL     1      -0.848  10.857  22.579  0.00  0.00    +0.000 C 
BRANCH  26  27
ATOM     27  O5* UNL     1       0.116  10.139  23.349  0.00  0.00    +0.000 OA
ATOM     28  H5* UNL     1       0.721  10.805  23.728  0.00  0.00    +0.000 HD
ENDBRANCH  26  27
ENDBRANCH  19  26
ENDBRANCH   3  17
TORSDOF 8
ENDMDL
MODEL 7
REMARK VINA RESULT:      -6.8      3.614      7.974
REMARK  Name = 
REMARK  8 active torsions:
REMARK  status: ('A' for Active; 'I' for Inactive)
REMARK    1  A    between atoms: N_1  and  S_2
REMARK    2  A    between atoms: S_2  and  C_5
REMARK    3  A    between atoms: C_8  and  C_9
REMARK    4  A    between atoms: N_11  and  C1*_12
REMARK    5  A    between atoms: C4*_14  and  C5*_15
REMARK    6  A    between atoms: C5*_15  and  O5*_16
REMARK    7  A    between atoms: C3*_17  and  O3*_18
REMARK    8  A    between atoms: C2*_19  and  O2*_20
REMARK                            x       y       z     vdW  Elec       q    Type
REMARK                         _______ _______ _______ _____ _____    ______ ____
ROOT
ATOM      1  C   UNL     1       1.819   8.596  18.951  0.00  0.00    +0.000 C 
ATOM      2  O   UNL     1       1.966   9.153  17.871  0.00  0.00    +0.000 OA
ATOM      3  N   UNL     1       1.299   9.225  20.058  0.00  0.00    +0.000 N 
ATOM      4  H   UNL     1       1.397   8.816  20.975  0.00  0.00    +0.000 HD
ENDROOT
BRANCH   1   8
ATOM      5  C   UNL     1       3.160   4.541  19.302  0.00  0.00    +0.000 A 
ATOM      6  C   UNL     1       3.427   5.277  18.147  0.00  0.00    +0.000 A 
ATOM      7  C   UNL     1       2.980   6.598  18.061  0.00  0.00    +0.000 A 
ATOM      8  C   UNL     1       2.277   7.187  19.122  0.00  0.00    +0.000 A 
ATOM      9  C   UNL     1       1.997   6.435  20.271  0.00  0.00    +0.000 A 
ATOM     10  C   UNL     1       2.439   5.109  20.361  0.00  0.00    +0.000 A 
BRANCH   5  11
ATOM     11  S   UNL     1       3.755   2.877  19.425  0.00  0.00    +0.000 S 
ATOM     12  O   UNL     1       3.316   2.135  18.268  0.00  0.00    +0.000 OA
ATOM     13  O   UNL     1       3.567   2.408  20.776  0.00  0.00    +0.000 OA
BRANCH  11  14
ATOM     14  N   UNL     1       5.415   3.097  19.261  0.00  0.00    +0.000 NA
ATOM     15  H   UNL     1       5.812   2.315  18.739  0.00  0.00    +0.000 HD
ATOM     16  H   UNL     1       5.843   3.242  20.176  0.00  0.00    +0.000 HD
ENDBRANCH  11  14
ENDBRANCH   5  11
ENDBRANCH   1   8
BRANCH   3  17
ATOM     17  C1* UNL     1       0.907  10.606  19.992  0.00  0.00    +0.000 C 
ATOM     18  O4* UNL     1       1.005  11.100  21.337  0.00  0.00    +0.000 OA
ATOM     19  C4* UNL     1      -0.219  11.802  21.671  0.00  0.00    +0.000 C 
ATOM     20  C3* UNL     1      -0.966  12.021  20.361  0.00  0.00    +0.000 C 
ATOM     21  C2* UNL     1      -0.543  10.823  19.527  0.00  0.00    +0.000 C 
BRANCH  20  22
ATOM     22  O3* UNL     1      -0.531  13.226  19.702  0.00  0.00    +0.000 OA
ATOM     23  H3* UNL     1       0.164  13.004  19.056  0.00  0.00    +0.000 HD
ENDBRANCH  20  22
BRANCH  21  24
ATOM     24  O2* UNL     1      -0.688  11.090  18.136  0.00  0.00    +0.000 OA
ATOM     25  H2* UNL     1      -1.648  11.183  17.967  0.00  0.00    +0.000 HD
ENDBRANCH  21  24
BRANCH  19  26
ATOM     26  C5* UNL     1      -0.992  10.937  22.668  0.00  0.00    +0.000 C 
BRANCH  26  27
ATOM     27  O5* UNL     1      -0.077  10.194  23.473  0.00  0.00    +0.000 OA
ATOM     28  H5* UNL     1       0.570   9.793  22.861  0.00  0.00    +0.000 HD
ENDBRANCH  26  27
ENDBRANCH  19  26
ENDBRANCH   3  17
TORSDOF 8
ENDMDL
MODEL 8
REMARK VINA RESULT:      -6.8      3.175      7.970
REMARK  Name = 
REMARK  8 active torsions:
REMARK  status: ('A' for Active; 'I' for Inactive)
REMARK    1  A    between atoms: N_1  and  S_2
REMARK    2  A    between atoms: S_2  and  C_5
REMARK    3  A    between atoms: C_8  and  C_9
REMARK    4  A    between atoms: N_11  and  C1*_12
REMARK    5  A    between atoms: C4*_14  and  C5*_15
REMARK    6  A    between atoms: C5*_15  and  O5*_16
REMARK    7  A    between atoms: C3*_17  and  O3*_18
REMARK    8  A    between atoms: C2*_19  and  O2*_20
REMARK                            x       y       z     vdW  Elec       q    Type
REMARK                         _______ _______ _______ _____ _____    ______ ____
ROOT
ATOM      1  C   UNL     1       1.816   8.971  18.617  0.00  0.00    +0.000 C 
ATOM      2  O   UNL     1       1.660   9.663  17.620  0.00  0.00    +0.000 OA
ATOM      3  N   UNL     1       1.402   9.352  19.871  0.00  0.00    +0.000 N 
ATOM      4  H   UNL     1       1.737   8.873  20.692  0.00  0.00    +0.000 HD
ENDROOT
BRANCH   1   8
ATOM      5  C   UNL     1       3.877   5.218  18.433  0.00  0.00    +0.000 A 
ATOM      6  C   UNL     1       2.967   5.477  19.460  0.00  0.00    +0.000 A 
ATOM      7  C   UNL     1       2.308   6.707  19.494  0.00  0.00    +0.000 A 
ATOM      8  C   UNL     1       2.546   7.675  18.507  0.00  0.00    +0.000 A 
ATOM      9  C   UNL     1       3.474   7.415  17.489  0.00  0.00    +0.000 A 
ATOM     10  C   UNL     1       4.142   6.184  17.453  0.00  0.00    +0.000 A 
BRANCH   5  11
ATOM     11  S   UNL     1       4.689   3.644  18.371  0.00  0.00    +0.000 S 
ATOM     12  O   UNL     1       3.870   2.723  17.620  0.00  0.00    +0.000 OA
ATOM     13  O   UNL     1       5.221   3.337  19.676  0.00  0.00    +0.000 OA
BRANCH  11  14
ATOM     14  N   UNL     1       6.029   3.992  17.417  0.00  0.00    +0.000 NA
ATOM     15  H   UNL     1       6.162   3.248  16.731  0.00  0.00    +0.000 HD
ATOM     16  H   UNL     1       6.847   4.159  18.006  0.00  0.00    +0.000 HD
ENDBRANCH  11  14
ENDBRANCH   5  11
ENDBRANCH   1   8
BRANCH   3  17
ATOM     17  C1* UNL     1       0.758  10.623  20.069  0.00  0.00    +0.000 C 
ATOM     18  O4* UNL     1       0.955  10.943  21.456  0.00  0.00    +0.000 OA
ATOM     19  C4* UNL     1      -0.317  11.335  22.033  0.00  0.00    +0.000 C 
ATOM     20  C3* UNL     1      -1.269  11.571  20.867  0.00  0.00    +0.000 C 
ATOM     21  C2* UNL     1      -0.758  10.604  19.811  0.00  0.00    +0.000 C 
BRANCH  20  22
ATOM     22  O3* UNL     1      -1.159  12.915  20.361  0.00  0.00    +0.000 OA
ATOM     23  H3* UNL     1      -1.840  13.057  19.679  0.00  0.00    +0.000 HD
ENDBRANCH  20  22
BRANCH  21  24
ATOM     24  O2* UNL     1      -1.144  11.018  18.506  0.00  0.00    +0.000 OA
ATOM     25  H2* UNL     1      -0.360  10.904  17.931  0.00  0.00    +0.000 HD
ENDBRANCH  21  24
BRANCH  19  26
ATOM     26  C5* UNL     1      -0.770  10.207  22.962  0.00  0.00    +0.000 C 
BRANCH  26  27
ATOM     27  O5* UNL     1       0.339   9.741  23.731  0.00  0.00    +0.000 OA
ATOM     28  H5* UNL     1       1.032   9.484  23.093  0.00  0.00    +0.000 HD
ENDBRANCH  26  27
ENDBRANCH  19  26
ENDBRANCH   3  17
TORSDOF 8
ENDMDL
MODEL 9
REMARK VINA RESULT:      -6.8      2.411      3.440
REMARK  Name = 
REMARK  8 active torsions:
REMARK  status: ('A' for Active; 'I' for Inactive)
REMARK    1  A    between atoms: N_1  and  S_2
REMARK    2  A    between atoms: S_2  and  C_5
REMARK    3  A    between atoms: C_8  and  C_9
REMARK    4  A    between atoms: N_11  and  C1*_12
REMARK    5  A    between atoms: C4*_14  and  C5*_15
REMARK    6  A    between atoms: C5*_15  and  O5*_16
REMARK    7  A    between atoms: C3*_17  and  O3*_18
REMARK    8  A    between atoms: C2*_19  and  O2*_20
REMARK                            x       y       z     vdW  Elec       q    Type
REMARK                         _______ _______ _______ _____ _____    ______ ____
ROOT
ATOM      1  C   UNL     1       2.568   7.008  18.722  0.00  0.00    +0.000 C 
ATOM      2  O   UNL     1       3.410   7.178  17.850  0.00  0.00    +0.000 OA
ATOM      3  N   UNL     1       2.149   5.765  19.134  0.00  0.00    +0.000 N 
ATOM      4  H   UNL     1       1.310   5.661  19.683  0.00  0.00    +0.000 HD
ENDROOT
BRANCH   1   8
ATOM      5  C   UNL     1       0.610  10.324  20.602  0.00  0.00    +0.000 A 
ATOM      6  C   UNL     1       0.917   9.176  21.334  0.00  0.00    +0.000 A 
ATOM      7  C   UNL     1       1.557   8.111  20.696  0.00  0.00    +0.000 A 
ATOM      8  C   UNL     1       1.898   8.190  19.338  0.00  0.00    +0.000 A 
ATOM      9  C   UNL     1       1.570   9.340  18.606  0.00  0.00    +0.000 A 
ATOM     10  C   UNL     1       0.924  10.409  19.240  0.00  0.00    +0.000 A 
BRANCH   5  11
ATOM     11  S   UNL     1      -0.173  11.688  21.419  0.00  0.00    +0.000 S 
ATOM     12  O   UNL     1      -1.475  11.900  20.834  0.00  0.00    +0.000 OA
ATOM     13  O   UNL     1       0.789  12.747  21.597  0.00  0.00    +0.000 OA
BRANCH  11  14
ATOM     14  N   UNL     1      -0.429  11.059  22.958  0.00  0.00    +0.000 NA
ATOM     15  H   UNL     1       0.459  11.016  23.460  0.00  0.00    +0.000 HD
ATOM     16  H   UNL     1      -0.910  10.161  22.896  0.00  0.00    +0.000 HD
ENDBRANCH  11  14
ENDBRANCH   5  11
ENDBRANCH   1   8
BRANCH   3  17
ATOM     17  C1* UNL     1       2.694   4.578  18.532  0.00  0.00    +0.000 C 
ATOM     18  O4* UNL     1       1.703   3.557  18.730  0.00  0.00    +0.000 OA
ATOM     19  C4* UNL     1       2.347   2.375  19.268  0.00  0.00    +0.000 C 
ATOM     20  C3* UNL     1       3.847   2.578  19.090  0.00  0.00    +0.000 C 
ATOM     21  C2* UNL     1       3.997   4.087  19.183  0.00  0.00    +0.000 C 
BRANCH  20  22
ATOM     22  O3* UNL     1       4.286   2.144  17.789  0.00  0.00    +0.000 OA
ATOM     23  H3* UNL     1       4.011   1.220  17.650  0.00  0.00    +0.000 HD
ENDBRANCH  20  22
BRANCH  21  24
ATOM     24  O2* UNL     1       5.187   4.525  18.537  0.00  0.00    +0.000 OA
ATOM     25  H2* UNL     1       5.868   4.617  19.235  0.00  0.00    +0.000 HD
ENDBRANCH  21  24
BRANCH  19  26
ATOM     26  C5* UNL     1       1.926   2.245  20.733  0.00  0.00    +0.000 C 
BRANCH  26  27
ATOM     27  O5* UNL     1       0.727   2.987  20.957  0.00  0.00    +0.000 OA
ATOM     28  H5* UNL     1       0.296   2.590  21.738  0.00  0.00    +0.000 HD
ENDBRANCH  26  27
ENDBRANCH  19  26
ENDBRANCH   3  17
TORSDOF 8
ENDMDL
