MODEL 1
REMARK VINA RESULT:      -8.6      0.000      0.000
REMARK  Name = 
REMARK  11 active torsions:
REMARK  status: ('A' for Active; 'I' for Inactive)
REMARK    1  A    between atoms: C_1  and  O_2
REMARK    2  A    between atoms: O_2  and  C_3
REMARK    3  A    between atoms: C_6  and  N_7
REMARK    4  A    between atoms: C_8  and  C_10
REMARK    5  A    between atoms: C_10  and  C_11
REMARK    6  A    between atoms: C_16  and  C_17
REMARK    7  A    between atoms: C_18  and  C_19
REMARK    8  A    between atoms: C_19  and  C_20
REMARK    9  A    between atoms: C_19  and  C_21
REMARK   10  A    between atoms: C_25  and  S_26
REMARK   11  A    between atoms: S_26  and  N_29
REMARK                            x       y       z     vdW  Elec       q    Type
REMARK                         _______ _______ _______ _____ _____    ______ ____
ROOT
ATOM      1  N   UNL     1       1.831   8.878  18.853  0.00  0.00    +0.000 N 
ATOM      2  C   UNL     1       0.856   9.795  19.344  0.00  0.00    +0.000 C 
ATOM      3  O   UNL     1       0.077   9.503  20.261  0.00  0.00    +0.000 OA
ATOM      4  H   UNL     1       2.389   9.185  18.065  0.00  0.00    +0.000 HD
ENDROOT
BRANCH   1   8
ATOM      5  C   UNL     1       2.675   4.680  20.116  0.00  0.00    +0.000 A 
ATOM      6  C   UNL     1       1.927   5.605  20.882  0.00  0.00    +0.000 A 
ATOM      7  C   UNL     1       1.655   6.957  20.508  0.00  0.00    +0.000 A 
ATOM      8  C   UNL     1       2.110   7.495  19.311  0.00  0.00    +0.000 A 
ATOM      9  C   UNL     1       2.871   6.578  18.529  0.00  0.00    +0.000 A 
ATOM     10  C   UNL     1       3.172   5.190  18.917  0.00  0.00    +0.000 A 
BRANCH  10  11
ATOM     11  S   UNL     1       4.071   4.198  17.732  0.00  0.00    +0.000 S 
ATOM     12  O   UNL     1       5.000   3.356  18.446  0.00  0.00    +0.000 OA
ATOM     13  O   UNL     1       3.105   3.590  16.828  0.00  0.00    +0.000 OA
BRANCH  11  14
ATOM     14  N   UNL     1       4.939   5.309  16.781  0.00  0.00    +0.000 NA
ATOM     15  C   UNL     1       5.406   4.873  15.440  0.00  0.00    +0.000 C 
ATOM     16  C   UNL     1       6.930   4.806  15.306  0.00  0.00    +0.000 C 
ATOM     17  O   UNL     1       7.564   6.002  15.764  0.00  0.00    +0.000 OA
ATOM     18  C   UNL     1       7.295   6.194  17.154  0.00  0.00    +0.000 C 
ATOM     19  C   UNL     1       5.796   6.356  17.424  0.00  0.00    +0.000 C 
ENDBRANCH  11  14
ENDBRANCH  10  11
BRANCH   5  21
ATOM     20  C   UNL     1       1.752   2.881  21.640  0.00  0.00    +0.000 C 
ATOM     21  O   UNL     1       2.673   3.474  20.742  0.00  0.00    +0.000 OA
ENDBRANCH   5  21
ENDBRANCH   1   8
BRANCH   2  22
ATOM     22  C   UNL     1       0.723  11.313  18.667  0.00  0.00    +0.000 C 
BRANCH  22  23
ATOM     23  C   UNL     1      -0.470  12.149  19.176  0.00  0.00    +0.000 A 
ATOM     24  C   UNL     1      -0.145  13.351  19.779  0.00  0.00    +0.000 A 
ATOM     25  O   UNL     1      -1.116  13.747  20.602  0.00  0.00    +0.000 OA
ATOM     26  C   UNL     1      -2.209  13.010  20.310  0.00  0.00    +0.000 A 
ATOM     27  C   UNL     1      -3.386  13.190  21.015  0.00  0.00    +0.000 A 
ATOM     28  C   UNL     1      -4.578  12.717  20.481  0.00  0.00    +0.000 A 
ATOM     29  C   UNL     1      -5.807  13.110  21.265  0.00  0.00    +0.000 C 
ATOM     30  C   UNL     1      -4.567  12.081  19.212  0.00  0.00    +0.000 A 
ATOM     31  C   UNL     1      -3.257  11.678  18.644  0.00  0.00    +0.000 A 
ATOM     32  C   UNL     1      -1.995  12.161  19.228  0.00  0.00    +0.000 A 
BRANCH  30  33
ATOM     33  C   UNL     1      -5.959  12.088  18.485  0.00  0.00    +0.000 C 
ATOM     34  C   UNL     1      -6.085  12.734  17.100  0.00  0.00    +0.000 C 
ATOM     35  C   UNL     1      -6.797  10.791  18.490  0.00  0.00    +0.000 C 
ENDBRANCH  30  33
ENDBRANCH  22  23
ENDBRANCH   2  22
TORSDOF 7
ENDMDL
MODEL 2
REMARK VINA RESULT:      -8.5      1.847      2.500
REMARK  Name = 
REMARK  11 active torsions:
REMARK  status: ('A' for Active; 'I' for Inactive)
REMARK    1  A    between atoms: C_1  and  O_2
REMARK    2  A    between atoms: O_2  and  C_3
REMARK    3  A    between atoms: C_6  and  N_7
REMARK    4  A    between atoms: C_8  and  C_10
REMARK    5  A    between atoms: C_10  and  C_11
REMARK    6  A    between atoms: C_16  and  C_17
REMARK    7  A    between atoms: C_18  and  C_19
REMARK    8  A    between atoms: C_19  and  C_20
REMARK    9  A    between atoms: C_19  and  C_21
REMARK   10  A    between atoms: C_25  and  S_26
REMARK   11  A    between atoms: S_26  and  N_29
REMARK                            x       y       z     vdW  Elec       q    Type
REMARK                         _______ _______ _______ _____ _____    ______ ____
ROOT
ATOM      1  N   UNL     1       2.089   9.029  18.139  0.00  0.00    +0.000 N 
ATOM      2  C   UNL     1       1.323   9.737  19.112  0.00  0.00    +0.000 C 
ATOM      3  O   UNL     1       1.008   9.234  20.198  0.00  0.00    +0.000 OA
ATOM      4  H   UNL     1       2.254   9.500  17.258  0.00  0.00    +0.000 HD
ENDROOT
BRANCH   1   8
ATOM      5  C   UNL     1       3.772   4.896  18.271  0.00  0.00    +0.000 A 
ATOM      6  C   UNL     1       2.793   5.384  19.169  0.00  0.00    +0.000 A 
ATOM      7  C   UNL     1       2.249   6.704  19.157  0.00  0.00    +0.000 A 
ATOM      8  C   UNL     1       2.641   7.654  18.223  0.00  0.00    +0.000 A 
ATOM      9  C   UNL     1       3.633   7.181  17.314  0.00  0.00    +0.000 A 
ATOM     10  C   UNL     1       4.212   5.828  17.332  0.00  0.00    +0.000 A 
BRANCH  10  11
ATOM     11  S   UNL     1       5.378   5.432  16.035  0.00  0.00    +0.000 S 
ATOM     12  O   UNL     1       5.230   4.039  15.691  0.00  0.00    +0.000 OA
ATOM     13  O   UNL     1       5.254   6.442  14.994  0.00  0.00    +0.000 OA
BRANCH  11  14
ATOM     14  N   UNL     1       6.915   5.679  16.720  0.00  0.00    +0.000 NA
ATOM     15  C   UNL     1       7.317   4.831  17.871  0.00  0.00    +0.000 C 
ATOM     16  C   UNL     1       7.505   5.607  19.178  0.00  0.00    +0.000 C 
ATOM     17  O   UNL     1       8.335   6.757  19.007  0.00  0.00    +0.000 OA
ATOM     18  C   UNL     1       7.724   7.666  18.089  0.00  0.00    +0.000 C 
ATOM     19  C   UNL     1       7.547   7.038  16.703  0.00  0.00    +0.000 C 
ENDBRANCH  11  14
ENDBRANCH  10  11
BRANCH   5  21
ATOM     20  C   UNL     1       4.513   2.922  19.676  0.00  0.00    +0.000 C 
ATOM     21  O   UNL     1       4.002   3.581  18.530  0.00  0.00    +0.000 OA
ENDBRANCH   5  21
ENDBRANCH   1   8
BRANCH   2  22
ATOM     22  C   UNL     1       0.804  11.289  18.795  0.00  0.00    +0.000 C 
BRANCH  22  23
ATOM     23  C   UNL     1       0.132  12.004  19.985  0.00  0.00    +0.000 A 
ATOM     24  C   UNL     1       0.976  12.741  20.796  0.00  0.00    +0.000 A 
ATOM     25  O   UNL     1       0.452  12.892  22.013  0.00  0.00    +0.000 OA
ATOM     26  C   UNL     1      -0.853  12.559  21.928  0.00  0.00    +0.000 A 
ATOM     27  C   UNL     1      -1.664  12.607  23.048  0.00  0.00    +0.000 A 
ATOM     28  C   UNL     1      -3.044  12.630  22.888  0.00  0.00    +0.000 A 
ATOM     29  C   UNL     1      -3.813  12.839  24.171  0.00  0.00    +0.000 C 
ATOM     30  C   UNL     1      -3.592  12.628  21.579  0.00  0.00    +0.000 A 
ATOM     31  C   UNL     1      -2.693  12.301  20.445  0.00  0.00    +0.000 A 
ATOM     32  C   UNL     1      -1.232  12.253  20.624  0.00  0.00    +0.000 A 
BRANCH  30  33
ATOM     33  C   UNL     1      -5.055  13.194  21.500  0.00  0.00    +0.000 C 
ATOM     34  C   UNL     1      -5.277  14.671  21.158  0.00  0.00    +0.000 C 
ATOM     35  C   UNL     1      -6.126  12.361  20.762  0.00  0.00    +0.000 C 
ENDBRANCH  30  33
ENDBRANCH  22  23
ENDBRANCH   2  22
TORSDOF 7
ENDMDL
MODEL 3
REMARK VINA RESULT:      -8.5      1.565      2.131
REMARK  Name = 
REMARK  11 active torsions:
REMARK  status: ('A' for Active; 'I' for Inactive)
REMARK    1  A    between atoms: C_1  and  O_2
REMARK    2  A    between atoms: O_2  and  C_3
REMARK    3  A    between atoms: C_6  and  N_7
REMARK    4  A    between atoms: C_8  and  C_10
REMARK    5  A    between atoms: C_10  and  C_11
REMARK    6  A    between atoms: C_16  and  C_17
REMARK    7  A    between atoms: C_18  and  C_19
REMARK    8  A    between atoms: C_19  and  C_20
REMARK    9  A    between atoms: C_19  and  C_21
REMARK   10  A    between atoms: C_25  and  S_26
REMARK   11  A    between atoms: S_26  and  N_29
REMARK                            x       y       z     vdW  Elec       q    Type
REMARK                         _______ _______ _______ _____ _____    ______ ____
ROOT
ATOM      1  N   UNL     1       1.805   8.729  19.582  0.00  0.00    +0.000 N 
ATOM      2  C   UNL     1       1.749   9.367  18.308  0.00  0.00    +0.000 C 
ATOM      3  O   UNL     1       1.951   8.754  17.252  0.00  0.00    +0.000 OA
ATOM      4  H   UNL     1       1.679   9.321  20.394  0.00  0.00    +0.000 HD
ENDROOT
BRANCH   1   8
ATOM      5  C   UNL     1       2.696   4.432  20.402  0.00  0.00    +0.000 A 
ATOM      6  C   UNL     1       1.505   5.085  20.797  0.00  0.00    +0.000 A 
ATOM      7  C   UNL     1       1.201   6.461  20.560  0.00  0.00    +0.000 A 
ATOM      8  C   UNL     1       2.078   7.303  19.887  0.00  0.00    +0.000 A 
ATOM      9  C   UNL     1       3.288   6.663  19.488  0.00  0.00    +0.000 A 
ATOM     10  C   UNL     1       3.615   5.251  19.746  0.00  0.00    +0.000 A 
BRANCH  10  11
ATOM     11  S   UNL     1       5.156   4.644  19.071  0.00  0.00    +0.000 S 
ATOM     12  O   UNL     1       6.247   5.307  19.744  0.00  0.00    +0.000 OA
ATOM     13  O   UNL     1       5.102   3.189  19.061  0.00  0.00    +0.000 OA
BRANCH  11  14
ATOM     14  N   UNL     1       5.143   5.106  17.434  0.00  0.00    +0.000 NA
ATOM     15  C   UNL     1       4.782   4.085  16.418  0.00  0.00    +0.000 C 
ATOM     16  C   UNL     1       5.926   3.724  15.467  0.00  0.00    +0.000 C 
ATOM     17  O   UNL     1       6.546   4.883  14.907  0.00  0.00    +0.000 OA
ATOM     18  C   UNL     1       7.127   5.675  15.946  0.00  0.00    +0.000 C 
ATOM     19  C   UNL     1       6.070   6.173  16.937  0.00  0.00    +0.000 C 
ENDBRANCH  11  14
ENDBRANCH  10  11
BRANCH   5  21
ATOM     20  C   UNL     1       1.714   2.405  21.560  0.00  0.00    +0.000 C 
ATOM     21  O   UNL     1       2.615   3.115  20.729  0.00  0.00    +0.000 OA
ENDBRANCH   5  21
ENDBRANCH   1   8
BRANCH   2  22
ATOM     22  C   UNL     1       1.421  10.999  18.207  0.00  0.00    +0.000 C 
BRANCH  22  23
ATOM     23  C   UNL     1       0.785  11.613  19.471  0.00  0.00    +0.000 A 
ATOM     24  C   UNL     1       1.674  12.104  20.410  0.00  0.00    +0.000 A 
ATOM     25  O   UNL     1       1.113  12.142  21.619  0.00  0.00    +0.000 OA
ATOM     26  C   UNL     1      -0.218  12.001  21.444  0.00  0.00    +0.000 A 
ATOM     27  C   UNL     1      -1.073  11.990  22.532  0.00  0.00    +0.000 A 
ATOM     28  C   UNL     1      -2.429  12.220  22.335  0.00  0.00    +0.000 A 
ATOM     29  C   UNL     1      -3.229  12.337  23.610  0.00  0.00    +0.000 C 
ATOM     30  C   UNL     1      -2.906  12.484  21.025  0.00  0.00    +0.000 A 
ATOM     31  C   UNL     1      -1.999  12.211  19.883  0.00  0.00    +0.000 A 
ATOM     32  C   UNL     1      -0.567  11.944  20.098  0.00  0.00    +0.000 A 
BRANCH  30  33
ATOM     33  C   UNL     1      -4.279  13.244  20.989  0.00  0.00    +0.000 C 
ATOM     34  C   UNL     1      -4.295  14.774  20.894  0.00  0.00    +0.000 C 
ATOM     35  C   UNL     1      -5.400  12.693  20.080  0.00  0.00    +0.000 C 
ENDBRANCH  30  33
ENDBRANCH  22  23
ENDBRANCH   2  22
TORSDOF 7
ENDMDL
MODEL 4
REMARK VINA RESULT:      -8.5      0.809      1.148
REMARK  Name = 
REMARK  11 active torsions:
REMARK  status: ('A' for Active; 'I' for Inactive)
REMARK    1  A    between atoms: C_1  and  O_2
REMARK    2  A    between atoms: O_2  and  C_3
REMARK    3  A    between atoms: C_6  and  N_7
REMARK    4  A    between atoms: C_8  and  C_10
REMARK    5  A    between atoms: C_10  and  C_11
REMARK    6  A    between atoms: C_16  and  C_17
REMARK    7  A    between atoms: C_18  and  C_19
REMARK    8  A    between atoms: C_19  and  C_20
REMARK    9  A    between atoms: C_19  and  C_21
REMARK   10  A    between atoms: C_25  and  S_26
REMARK   11  A    between atoms: S_26  and  N_29
REMARK                            x       y       z     vdW  Elec       q    Type
REMARK                         _______ _______ _______ _____ _____    ______ ____
ROOT
ATOM      1  N   UNL     1       1.910   8.396  18.601  0.00  0.00    +0.000 N 
ATOM      2  C   UNL     1       1.169   9.482  19.153  0.00  0.00    +0.000 C 
ATOM      3  O   UNL     1       0.602   9.404  20.251  0.00  0.00    +0.000 OA
ATOM      4  H   UNL     1       2.295   8.531  17.674  0.00  0.00    +0.000 HD
ENDROOT
BRANCH   1   8
ATOM      5  C   UNL     1       2.621   4.310  20.253  0.00  0.00    +0.000 A 
ATOM      6  C   UNL     1       2.141   5.402  21.014  0.00  0.00    +0.000 A 
ATOM      7  C   UNL     1       1.918   6.721  20.514  0.00  0.00    +0.000 A 
ATOM      8  C   UNL     1       2.154   7.055  19.186  0.00  0.00    +0.000 A 
ATOM      9  C   UNL     1       2.645   5.967  18.406  0.00  0.00    +0.000 A 
ATOM     10  C   UNL     1       2.895   4.610  18.920  0.00  0.00    +0.000 A 
BRANCH  10  11
ATOM     11  S   UNL     1       3.428   3.384  17.732  0.00  0.00    +0.000 S 
ATOM     12  O   UNL     1       3.635   2.134  18.421  0.00  0.00    +0.000 OA
ATOM     13  O   UNL     1       2.517   3.431  16.596  0.00  0.00    +0.000 OA
BRANCH  11  14
ATOM     14  N   UNL     1       4.917   3.950  17.137  0.00  0.00    +0.000 NA
ATOM     15  C   UNL     1       5.876   4.550  18.100  0.00  0.00    +0.000 C 
ATOM     16  C   UNL     1       6.140   6.041  17.864  0.00  0.00    +0.000 C 
ATOM     17  O   UNL     1       6.458   6.322  16.499  0.00  0.00    +0.000 OA
ATOM     18  C   UNL     1       5.353   5.975  15.661  0.00  0.00    +0.000 C 
ATOM     19  C   UNL     1       5.028   4.480  15.740  0.00  0.00    +0.000 C 
ENDBRANCH  11  14
ENDBRANCH  10  11
BRANCH   5  21
ATOM     20  C   UNL     1       1.610   2.484  21.688  0.00  0.00    +0.000 C 
ATOM     21  O   UNL     1       2.644   3.196  21.032  0.00  0.00    +0.000 OA
ENDBRANCH   5  21
ENDBRANCH   1   8
BRANCH   2  22
ATOM     22  C   UNL     1       1.028  10.911  18.306  0.00  0.00    +0.000 C 
BRANCH  22  23
ATOM     23  C   UNL     1      -0.097  11.847  18.794  0.00  0.00    +0.000 A 
ATOM     24  C   UNL     1       0.310  13.090  19.241  0.00  0.00    +0.000 A 
ATOM     25  O   UNL     1      -0.590  13.613  20.075  0.00  0.00    +0.000 OA
ATOM     26  C   UNL     1      -1.726  12.898  19.932  0.00  0.00    +0.000 A 
ATOM     27  C   UNL     1      -2.846  13.202  20.684  0.00  0.00    +0.000 A 
ATOM     28  C   UNL     1      -4.087  12.727  20.278  0.00  0.00    +0.000 A 
ATOM     29  C   UNL     1      -5.247  13.254  21.090  0.00  0.00    +0.000 C 
ATOM     30  C   UNL     1      -4.183  11.961  19.088  0.00  0.00    +0.000 A 
ATOM     31  C   UNL     1      -2.929  11.443  18.487  0.00  0.00    +0.000 A 
ATOM     32  C   UNL     1      -1.615  11.931  18.937  0.00  0.00    +0.000 A 
BRANCH  30  33
ATOM     33  C   UNL     1      -5.619  11.951  18.451  0.00  0.00    +0.000 C 
ATOM     34  C   UNL     1      -5.821  12.505  17.035  0.00  0.00    +0.000 C 
ATOM     35  C   UNL     1      -6.479  10.678  18.598  0.00  0.00    +0.000 C 
ENDBRANCH  30  33
ENDBRANCH  22  23
ENDBRANCH   2  22
TORSDOF 7
ENDMDL
MODEL 5
REMARK VINA RESULT:      -8.5      1.281      2.147
REMARK  Name = 
REMARK  11 active torsions:
REMARK  status: ('A' for Active; 'I' for Inactive)
REMARK    1  A    between atoms: C_1  and  O_2
REMARK    2  A    between atoms: O_2  and  C_3
REMARK    3  A    between atoms: C_6  and  N_7
REMARK    4  A    between atoms: C_8  and  C_10
REMARK    5  A    between atoms: C_10  and  C_11
REMARK    6  A    between atoms: C_16  and  C_17
REMARK    7  A    between atoms: C_18  and  C_19
REMARK    8  A    between atoms: C_19  and  C_20
REMARK    9  A    between atoms: C_19  and  C_21
REMARK   10  A    between atoms: C_25  and  S_26
REMARK   11  A    between atoms: S_26  and  N_29
REMARK                            x       y       z     vdW  Elec       q    Type
REMARK                         _______ _______ _______ _____ _____    ______ ____
ROOT
ATOM      1  N   UNL     1       1.336   8.330  18.858  0.00  0.00    +0.000 N 
ATOM      2  C   UNL     1       0.811   9.463  19.548  0.00  0.00    +0.000 C 
ATOM      3  O   UNL     1       0.700   9.492  20.781  0.00  0.00    +0.000 OA
ATOM      4  H   UNL     1       1.340   8.374  17.847  0.00  0.00    +0.000 HD
ENDROOT
BRANCH   1   8
ATOM      5  C   UNL     1       2.860   4.451  20.457  0.00  0.00    +0.000 A 
ATOM      6  C   UNL     1       1.904   5.260  21.115  0.00  0.00    +0.000 A 
ATOM      7  C   UNL     1       1.411   6.511  20.633  0.00  0.00    +0.000 A 
ATOM      8  C   UNL     1       1.836   7.054  19.427  0.00  0.00    +0.000 A 
ATOM      9  C   UNL     1       2.805   6.255  18.754  0.00  0.00    +0.000 A 
ATOM     10  C   UNL     1       3.332   4.974  19.255  0.00  0.00    +0.000 A 
BRANCH  10  11
ATOM     11  S   UNL     1       4.478   4.103  18.193  0.00  0.00    +0.000 S 
ATOM     12  O   UNL     1       5.526   3.540  19.008  0.00  0.00    +0.000 OA
ATOM     13  O   UNL     1       3.707   3.231  17.318  0.00  0.00    +0.000 OA
BRANCH  11  14
ATOM     14  N   UNL     1       5.139   5.292  17.172  0.00  0.00    +0.000 NA
ATOM     15  C   UNL     1       5.410   4.933  15.757  0.00  0.00    +0.000 C 
ATOM     16  C   UNL     1       6.896   4.946  15.387  0.00  0.00    +0.000 C 
ATOM     17  O   UNL     1       7.542   6.153  15.798  0.00  0.00    +0.000 OA
ATOM     18  C   UNL     1       7.485   6.277  17.220  0.00  0.00    +0.000 C 
ATOM     19  C   UNL     1       6.040   6.355  17.725  0.00  0.00    +0.000 C 
ENDBRANCH  11  14
ENDBRANCH  10  11
BRANCH   5  21
ATOM     20  C   UNL     1       2.117   2.398  21.743  0.00  0.00    +0.000 C 
ATOM     21  O   UNL     1       3.041   3.305  21.166  0.00  0.00    +0.000 OA
ENDBRANCH   5  21
ENDBRANCH   1   8
BRANCH   2  22
ATOM     22  C   UNL     1       0.305  10.800  18.691  0.00  0.00    +0.000 C 
BRANCH  22  23
ATOM     23  C   UNL     1      -1.154  10.738  18.193  0.00  0.00    +0.000 A 
ATOM     24  C   UNL     1      -1.391   9.873  17.140  0.00  0.00    +0.000 A 
ATOM     25  O   UNL     1      -2.485  10.233  16.469  0.00  0.00    +0.000 OA
ATOM     26  C   UNL     1      -3.156  11.111  17.244  0.00  0.00    +0.000 A 
ATOM     27  C   UNL     1      -4.341  11.674  16.803  0.00  0.00    +0.000 A 
ATOM     28  C   UNL     1      -5.197  12.265  17.723  0.00  0.00    +0.000 A 
ATOM     29  C   UNL     1      -6.522  12.701  17.146  0.00  0.00    +0.000 C 
ATOM     30  C   UNL     1      -4.850  12.258  19.100  0.00  0.00    +0.000 A 
ATOM     31  C   UNL     1      -3.460  11.892  19.468  0.00  0.00    +0.000 A 
ATOM     32  C   UNL     1      -2.548  11.288  18.483  0.00  0.00    +0.000 A 
BRANCH  30  33
ATOM     33  C   UNL     1      -6.075  12.437  20.066  0.00  0.00    +0.000 C 
ATOM     34  C   UNL     1      -6.922  11.217  20.448  0.00  0.00    +0.000 C 
ATOM     35  C   UNL     1      -5.895  13.312  21.325  0.00  0.00    +0.000 C 
ENDBRANCH  30  33
ENDBRANCH  22  23
ENDBRANCH   2  22
TORSDOF 7
ENDMDL
MODEL 6
REMARK VINA RESULT:      -8.4      7.050     10.935
REMARK  Name = 
REMARK  11 active torsions:
REMARK  status: ('A' for Active; 'I' for Inactive)
REMARK    1  A    between atoms: C_1  and  O_2
REMARK    2  A    between atoms: O_2  and  C_3
REMARK    3  A    between atoms: C_6  and  N_7
REMARK    4  A    between atoms: C_8  and  C_10
REMARK    5  A    between atoms: C_10  and  C_11
REMARK    6  A    between atoms: C_16  and  C_17
REMARK    7  A    between atoms: C_18  and  C_19
REMARK    8  A    between atoms: C_19  and  C_20
REMARK    9  A    between atoms: C_19  and  C_21
REMARK   10  A    between atoms: C_25  and  S_26
REMARK   11  A    between atoms: S_26  and  N_29
REMARK                            x       y       z     vdW  Elec       q    Type
REMARK                         _______ _______ _______ _____ _____    ______ ____
ROOT
ATOM      1  N   UNL     1       9.174   9.197  19.221  0.00  0.00    +0.000 N 
ATOM      2  C   UNL     1       8.303   8.356  18.467  0.00  0.00    +0.000 C 
ATOM      3  O   UNL     1       7.565   8.798  17.577  0.00  0.00    +0.000 OA
ATOM      4  H   UNL     1       9.702   8.758  19.965  0.00  0.00    +0.000 HD
ENDROOT
BRANCH   1   8
ATOM      5  C   UNL     1       9.690  13.622  18.925  0.00  0.00    +0.000 A 
ATOM      6  C   UNL     1      10.027  12.712  17.895  0.00  0.00    +0.000 A 
ATOM      7  C   UNL     1       9.886  11.293  17.969  0.00  0.00    +0.000 A 
ATOM      8  C   UNL     1       9.376  10.662  19.097  0.00  0.00    +0.000 A 
ATOM      9  C   UNL     1       9.037  11.564  20.148  0.00  0.00    +0.000 A 
ATOM     10  C   UNL     1       9.199  13.026  20.085  0.00  0.00    +0.000 A 
BRANCH  10  11
ATOM     11  S   UNL     1       8.620  13.962  21.495  0.00  0.00    +0.000 S 
ATOM     12  O   UNL     1       9.763  14.495  22.195  0.00  0.00    +0.000 OA
ATOM     13  O   UNL     1       7.577  14.869  21.036  0.00  0.00    +0.000 OA
BRANCH  11  14
ATOM     14  N   UNL     1       7.829  12.834  22.491  0.00  0.00    +0.000 NA
ATOM     15  C   UNL     1       6.392  13.052  22.797  0.00  0.00    +0.000 C 
ATOM     16  C   UNL     1       6.109  13.336  24.276  0.00  0.00    +0.000 C 
ATOM     17  O   UNL     1       6.731  12.380  25.136  0.00  0.00    +0.000 OA
ATOM     18  C   UNL     1       8.151  12.440  24.984  0.00  0.00    +0.000 C 
ATOM     19  C   UNL     1       8.583  12.096  23.555  0.00  0.00    +0.000 C 
ENDBRANCH  11  14
ENDBRANCH  10  11
BRANCH   5  21
ATOM     20  C   UNL     1       9.014  15.827  17.876  0.00  0.00    +0.000 C 
ATOM     21  O   UNL     1       9.889  14.892  18.484  0.00  0.00    +0.000 OA
ENDBRANCH   5  21
ENDBRANCH   1   8
BRANCH   2  22
ATOM     22  C   UNL     1       8.242   6.721  18.786  0.00  0.00    +0.000 C 
BRANCH  22  23
ATOM     23  C   UNL     1       7.034   5.985  18.173  0.00  0.00    +0.000 A 
ATOM     24  C   UNL     1       7.128   5.700  16.823  0.00  0.00    +0.000 A 
ATOM     25  O   UNL     1       5.918   5.542  16.285  0.00  0.00    +0.000 OA
ATOM     26  C   UNL     1       5.047   5.390  17.305  0.00  0.00    +0.000 A 
ATOM     27  C   UNL     1       3.697   5.217  17.056  0.00  0.00    +0.000 A 
ATOM     28  C   UNL     1       2.882   4.698  18.054  0.00  0.00    +0.000 A 
ATOM     29  C   UNL     1       1.467   4.411  17.612  0.00  0.00    +0.000 C 
ATOM     30  C   UNL     1       3.455   4.336  19.301  0.00  0.00    +0.000 A 
ATOM     31  C   UNL     1       4.834   4.798  19.597  0.00  0.00    +0.000 A 
ATOM     32  C   UNL     1       5.686   5.369  18.541  0.00  0.00    +0.000 A 
BRANCH  30  33
ATOM     33  C   UNL     1       2.605   3.296  20.114  0.00  0.00    +0.000 C 
ATOM     34  C   UNL     1       1.433   3.784  20.973  0.00  0.00    +0.000 C 
ATOM     35  C   UNL     1       2.177   1.988  19.413  0.00  0.00    +0.000 C 
ENDBRANCH  30  33
ENDBRANCH  22  23
ENDBRANCH   2  22
TORSDOF 7
ENDMDL
MODEL 7
REMARK VINA RESULT:      -8.4      1.144      1.287
REMARK  Name = 
REMARK  11 active torsions:
REMARK  status: ('A' for Active; 'I' for Inactive)
REMARK    1  A    between atoms: C_1  and  O_2
REMARK    2  A    between atoms: O_2  and  C_3
REMARK    3  A    between atoms: C_6  and  N_7
REMARK    4  A    between atoms: C_8  and  C_10
REMARK    5  A    between atoms: C_10  and  C_11
REMARK    6  A    between atoms: C_16  and  C_17
REMARK    7  A    between atoms: C_18  and  C_19
REMARK    8  A    between atoms: C_19  and  C_20
REMARK    9  A    between atoms: C_19  and  C_21
REMARK   10  A    between atoms: C_25  and  S_26
REMARK   11  A    between atoms: S_26  and  N_29
REMARK                            x       y       z     vdW  Elec       q    Type
REMARK                         _______ _______ _______ _____ _____    ______ ____
ROOT
ATOM      1  N   UNL     1       2.398   8.467  19.333  0.00  0.00    +0.000 N 
ATOM      2  C   UNL     1       1.689   9.175  18.318  0.00  0.00    +0.000 C 
ATOM      3  O   UNL     1       0.890   8.614  17.557  0.00  0.00    +0.000 OA
ATOM      4  H   UNL     1       3.071   8.997  19.873  0.00  0.00    +0.000 HD
ENDROOT
BRANCH   1   8
ATOM      5  C   UNL     1       2.203   4.103  20.256  0.00  0.00    +0.000 A 
ATOM      6  C   UNL     1       1.389   5.082  20.872  0.00  0.00    +0.000 A 
ATOM      7  C   UNL     1       1.440   6.485  20.605  0.00  0.00    +0.000 A 
ATOM      8  C   UNL     1       2.321   7.026  19.677  0.00  0.00    +0.000 A 
ATOM      9  C   UNL     1       3.155   6.053  19.051  0.00  0.00    +0.000 A 
ATOM     10  C   UNL     1       3.120   4.609  19.335  0.00  0.00    +0.000 A 
BRANCH  10  11
ATOM     11  S   UNL     1       4.200   3.569  18.361  0.00  0.00    +0.000 S 
ATOM     12  O   UNL     1       5.007   2.775  19.255  0.00  0.00    +0.000 OA
ATOM     13  O   UNL     1       3.393   2.905  17.347  0.00  0.00    +0.000 OA
BRANCH  11  14
ATOM     14  N   UNL     1       5.205   4.641  17.504  0.00  0.00    +0.000 NA
ATOM     15  C   UNL     1       5.147   4.625  16.020  0.00  0.00    +0.000 C 
ATOM     16  C   UNL     1       6.446   4.160  15.354  0.00  0.00    +0.000 C 
ATOM     17  O   UNL     1       7.590   4.846  15.867  0.00  0.00    +0.000 OA
ATOM     18  C   UNL     1       7.736   4.570  17.262  0.00  0.00    +0.000 C 
ATOM     19  C   UNL     1       6.529   5.060  18.067  0.00  0.00    +0.000 C 
ENDBRANCH  11  14
ENDBRANCH  10  11
BRANCH   5  21
ATOM     20  C   UNL     1       1.412   2.414  21.969  0.00  0.00    +0.000 C 
ATOM     21  O   UNL     1       1.835   2.871  20.697  0.00  0.00    +0.000 OA
ENDBRANCH   5  21
ENDBRANCH   1   8
BRANCH   2  22
ATOM     22  C   UNL     1       1.940  10.810  18.112  0.00  0.00    +0.000 C 
BRANCH  22  23
ATOM     23  C   UNL     1       0.781  11.709  18.590  0.00  0.00    +0.000 A 
ATOM     24  C   UNL     1       1.147  12.956  19.065  0.00  0.00    +0.000 A 
ATOM     25  O   UNL     1       0.217  13.442  19.887  0.00  0.00    +0.000 OA
ATOM     26  C   UNL     1      -0.897  12.701  19.709  0.00  0.00    +0.000 A 
ATOM     27  C   UNL     1      -2.041  12.965  20.442  0.00  0.00    +0.000 A 
ATOM     28  C   UNL     1      -3.261  12.465  20.003  0.00  0.00    +0.000 A 
ATOM     29  C   UNL     1      -4.450  12.949  20.797  0.00  0.00    +0.000 C 
ATOM     30  C   UNL     1      -3.312  11.715  18.799  0.00  0.00    +0.000 A 
ATOM     31  C   UNL     1      -2.033  11.239  18.217  0.00  0.00    +0.000 A 
ATOM     32  C   UNL     1      -0.741  11.752  18.702  0.00  0.00    +0.000 A 
BRANCH  30  33
ATOM     33  C   UNL     1      -4.733  11.679  18.131  0.00  0.00    +0.000 C 
ATOM     34  C   UNL     1      -4.862  11.875  16.616  0.00  0.00    +0.000 C 
ATOM     35  C   UNL     1      -5.718  10.570  18.560  0.00  0.00    +0.000 C 
ENDBRANCH  30  33
ENDBRANCH  22  23
ENDBRANCH   2  22
TORSDOF 7
ENDMDL
MODEL 8
REMARK VINA RESULT:      -8.4      6.635     10.983
REMARK  Name = 
REMARK  11 active torsions:
REMARK  status: ('A' for Active; 'I' for Inactive)
REMARK    1  A    between atoms: C_1  and  O_2
REMARK    2  A    between atoms: O_2  and  C_3
REMARK    3  A    between atoms: C_6  and  N_7
REMARK    4  A    between atoms: C_8  and  C_10
REMARK    5  A    between atoms: C_10  and  C_11
REMARK    6  A    between atoms: C_16  and  C_17
REMARK    7  A    between atoms: C_18  and  C_19
REMARK    8  A    between atoms: C_19  and  C_20
REMARK    9  A    between atoms: C_19  and  C_21
REMARK   10  A    between atoms: C_25  and  S_26
REMARK   11  A    between atoms: S_26  and  N_29
REMARK                            x       y       z     vdW  Elec       q    Type
REMARK                         _______ _______ _______ _____ _____    ______ ____
ROOT
ATOM      1  N   UNL     1       9.024   8.843  19.219  0.00  0.00    +0.000 N 
ATOM      2  C   UNL     1       8.281   7.915  18.430  0.00  0.00    +0.000 C 
ATOM      3  O   UNL     1       7.557   8.276  17.494  0.00  0.00    +0.000 OA
ATOM      4  H   UNL     1       9.548   8.462  19.998  0.00  0.00    +0.000 HD
ENDROOT
BRANCH   1   8
ATOM      5  C   UNL     1       9.170  13.294  18.918  0.00  0.00    +0.000 A 
ATOM      6  C   UNL     1       9.198  12.422  17.805  0.00  0.00    +0.000 A 
ATOM      7  C   UNL     1       9.166  10.996  17.874  0.00  0.00    +0.000 A 
ATOM      8  C   UNL     1       9.093  10.318  19.085  0.00  0.00    +0.000 A 
ATOM      9  C   UNL     1       9.072  11.183  20.218  0.00  0.00    +0.000 A 
ATOM     10  C   UNL     1       9.123  12.653  20.155  0.00  0.00    +0.000 A 
BRANCH  10  11
ATOM     11  S   UNL     1       8.992  13.532  21.707  0.00  0.00    +0.000 S 
ATOM     12  O   UNL     1       9.208  12.598  22.785  0.00  0.00    +0.000 OA
ATOM     13  O   UNL     1       9.820  14.726  21.620  0.00  0.00    +0.000 OA
BRANCH  11  14
ATOM     14  N   UNL     1       7.390  14.099  21.770  0.00  0.00    +0.000 NA
ATOM     15  C   UNL     1       7.131  15.516  21.405  0.00  0.00    +0.000 C 
ATOM     16  C   UNL     1       6.621  16.372  22.568  0.00  0.00    +0.000 C 
ATOM     17  O   UNL     1       5.528  15.755  23.251  0.00  0.00    +0.000 OA
ATOM     18  C   UNL     1       5.949  14.516  23.825  0.00  0.00    +0.000 C 
ATOM     19  C   UNL     1       6.416  13.525  22.754  0.00  0.00    +0.000 C 
ENDBRANCH  11  14
ENDBRANCH  10  11
BRANCH   5  21
ATOM     20  C   UNL     1       8.109  15.355  17.897  0.00  0.00    +0.000 C 
ATOM     21  O   UNL     1       9.142  14.581  18.479  0.00  0.00    +0.000 OA
ENDBRANCH   5  21
ENDBRANCH   1   8
BRANCH   2  22
ATOM     22  C   UNL     1       8.357   6.284  18.769  0.00  0.00    +0.000 C 
BRANCH  22  23
ATOM     23  C   UNL     1       7.152   5.461  18.271  0.00  0.00    +0.000 A 
ATOM     24  C   UNL     1       7.395   4.643  17.182  0.00  0.00    +0.000 A 
ATOM     25  O   UNL     1       6.264   4.377  16.527  0.00  0.00    +0.000 OA
ATOM     26  C   UNL     1       5.244   4.724  17.340  0.00  0.00    +0.000 A 
ATOM     27  C   UNL     1       3.933   4.572  16.925  0.00  0.00    +0.000 A 
ATOM     28  C   UNL     1       2.915   4.573  17.871  0.00  0.00    +0.000 A 
ATOM     29  C   UNL     1       1.551   4.244  17.313  0.00  0.00    +0.000 C 
ATOM     30  C   UNL     1       3.244   4.706  19.245  0.00  0.00    +0.000 A 
ATOM     31  C   UNL     1       4.619   5.137  19.596  0.00  0.00    +0.000 A 
ATOM     32  C   UNL     1       5.689   5.159  18.585  0.00  0.00    +0.000 A 
BRANCH  30  33
ATOM     33  C   UNL     1       2.140   4.159  20.219  0.00  0.00    +0.000 C 
ATOM     34  C   UNL     1       2.503   3.078  21.243  0.00  0.00    +0.000 C 
ATOM     35  C   UNL     1       1.196   5.173  20.903  0.00  0.00    +0.000 C 
ENDBRANCH  30  33
ENDBRANCH  22  23
ENDBRANCH   2  22
TORSDOF 7
ENDMDL
MODEL 9
REMARK VINA RESULT:      -8.3      1.887      4.110
REMARK  Name = 
REMARK  11 active torsions:
REMARK  status: ('A' for Active; 'I' for Inactive)
REMARK    1  A    between atoms: C_1  and  O_2
REMARK    2  A    between atoms: O_2  and  C_3
REMARK    3  A    between atoms: C_6  and  N_7
REMARK    4  A    between atoms: C_8  and  C_10
REMARK    5  A    between atoms: C_10  and  C_11
REMARK    6  A    between atoms: C_16  and  C_17
REMARK    7  A    between atoms: C_18  and  C_19
REMARK    8  A    between atoms: C_19  and  C_20
REMARK    9  A    between atoms: C_19  and  C_21
REMARK   10  A    between atoms: C_25  and  S_26
REMARK   11  A    between atoms: S_26  and  N_29
REMARK                            x       y       z     vdW  Elec       q    Type
REMARK                         _______ _______ _______ _____ _____    ______ ____
ROOT
ATOM      1  N   UNL     1       2.020   9.124  17.788  0.00  0.00    +0.000 N 
ATOM      2  C   UNL     1       1.286   9.528  18.941  0.00  0.00    +0.000 C 
ATOM      3  O   UNL     1       1.256   8.850  19.977  0.00  0.00    +0.000 OA
ATOM      4  H   UNL     1       1.943   9.714  16.968  0.00  0.00    +0.000 HD
ENDROOT
BRANCH   1   8
ATOM      5  C   UNL     1       4.453   5.411  17.308  0.00  0.00    +0.000 A 
ATOM      6  C   UNL     1       4.979   6.722  17.223  0.00  0.00    +0.000 A 
ATOM      7  C   UNL     1       4.221   7.925  17.359  0.00  0.00    +0.000 A 
ATOM      8  C   UNL     1       2.854   7.910  17.604  0.00  0.00    +0.000 A 
ATOM      9  C   UNL     1       2.305   6.597  17.685  0.00  0.00    +0.000 A 
ATOM     10  C   UNL     1       3.077   5.353  17.527  0.00  0.00    +0.000 A 
BRANCH  10  11
ATOM     11  S   UNL     1       2.189   3.818  17.759  0.00  0.00    +0.000 S 
ATOM     12  O   UNL     1       0.775   4.102  17.778  0.00  0.00    +0.000 OA
ATOM     13  O   UNL     1       2.709   2.848  16.806  0.00  0.00    +0.000 OA
BRANCH  11  14
ATOM     14  N   UNL     1       2.667   3.247  19.287  0.00  0.00    +0.000 NA
ATOM     15  C   UNL     1       1.864   2.169  19.919  0.00  0.00    +0.000 C 
ATOM     16  C   UNL     1       1.149   2.600  21.203  0.00  0.00    +0.000 C 
ATOM     17  O   UNL     1       2.032   3.256  22.116  0.00  0.00    +0.000 OA
ATOM     18  C   UNL     1       2.542   4.452  21.525  0.00  0.00    +0.000 C 
ATOM     19  C   UNL     1       3.354   4.157  20.260  0.00  0.00    +0.000 C 
ENDBRANCH  11  14
ENDBRANCH  10  11
BRANCH   5  21
ATOM     20  C   UNL     1       6.092   3.926  16.073  0.00  0.00    +0.000 C 
ATOM     21  O   UNL     1       5.467   4.513  17.201  0.00  0.00    +0.000 OA
ENDBRANCH   5  21
ENDBRANCH   1   8
BRANCH   2  22
ATOM     22  C   UNL     1       0.411  10.947  18.917  0.00  0.00    +0.000 C 
BRANCH  22  23
ATOM     23  C   UNL     1      -1.049  10.802  18.441  0.00  0.00    +0.000 A 
ATOM     24  C   UNL     1      -1.276   9.814  17.500  0.00  0.00    +0.000 A 
ATOM     25  O   UNL     1      -2.380  10.073  16.798  0.00  0.00    +0.000 OA
ATOM     26  C   UNL     1      -3.063  11.025  17.468  0.00  0.00    +0.000 A 
ATOM     27  C   UNL     1      -4.259  11.512  16.972  0.00  0.00    +0.000 A 
ATOM     28  C   UNL     1      -5.121  12.193  17.822  0.00  0.00    +0.000 A 
ATOM     29  C   UNL     1      -6.457  12.536  17.206  0.00  0.00    +0.000 C 
ATOM     30  C   UNL     1      -4.767  12.356  19.187  0.00  0.00    +0.000 A 
ATOM     31  C   UNL     1      -3.369  12.060  19.586  0.00  0.00    +0.000 A 
ATOM     32  C   UNL     1      -2.451  11.359  18.673  0.00  0.00    +0.000 A 
BRANCH  30  33
ATOM     33  C   UNL     1      -5.990  12.627  20.134  0.00  0.00    +0.000 C 
ATOM     34  C   UNL     1      -6.944  11.480  20.485  0.00  0.00    +0.000 C 
ATOM     35  C   UNL     1      -5.760  13.470  21.407  0.00  0.00    +0.000 C 
ENDBRANCH  30  33
ENDBRANCH  22  23
ENDBRANCH   2  22
TORSDOF 7
ENDMDL
