MODEL 1
REMARK VINA RESULT:      -7.8      0.000      0.000
REMARK  Name = 
REMARK  6 active torsions:
REMARK  status: ('A' for Active; 'I' for Inactive)
REMARK    1  A    between atoms: C_1  and  C_2
REMARK    2  A    between atoms: C_2  and  C_3
REMARK    3  A    between atoms: C_3  and  N_4
REMARK    4  A    between atoms: C_6  and  C_7
REMARK    5  A    between atoms: N_9  and  C_10
REMARK    6  A    between atoms: N_17  and  C_18
REMARK                            x       y       z     vdW  Elec       q    Type
REMARK                         _______ _______ _______ _____ _____    ______ ____
ROOT
ATOM      1  C   UNL     1       2.219   7.875  18.867  0.00  0.00    +0.000 C 
ATOM      2  O   UNL     1       1.991   7.741  20.065  0.00  0.00    +0.000 OA
ATOM      3  N   UNL     1       1.717   8.953  18.153  0.00  0.00    +0.000 N 
ATOM      4  H   UNL     1       1.810   8.981  17.149  0.00  0.00    +0.000 HD
ENDROOT
BRANCH   1   7
ATOM      5  N   UNL     1       4.656   5.931  16.919  0.00  0.00    +0.000 N 
ATOM      6  C   UNL     1       4.231   7.131  17.445  0.00  0.00    +0.000 A 
ATOM      7  C   UNL     1       3.049   6.916  18.136  0.00  0.00    +0.000 A 
ATOM      8  C   UNL     1       2.775   5.506  18.031  0.00  0.00    +0.000 A 
ATOM      9  C   UNL     1       1.743   4.678  18.532  0.00  0.00    +0.000 A 
ATOM     10  C   UNL     1       1.747   3.308  18.265  0.00  0.00    +0.000 A 
ATOM     11  C   UNL     1       2.766   2.749  17.506  0.00  0.00    +0.000 A 
ATOM     12  C   UNL     1       3.803   3.538  16.997  0.00  0.00    +0.000 A 
ATOM     13  C   UNL     1       3.790   4.918  17.272  0.00  0.00    +0.000 A 
BRANCH   5  14
ATOM     14  C   UNL     1       5.858   5.773  16.110  0.00  0.00    +0.000 C 
BRANCH  14  16
ATOM     15  C   UNL     1       7.513   4.693  17.676  0.00  0.00    +0.000 C 
ATOM     16  C   UNL     1       7.132   5.963  16.930  0.00  0.00    +0.000 C 
ENDBRANCH  14  16
ENDBRANCH   5  14
ENDBRANCH   1   7
BRANCH   3  17
ATOM     17  C   UNL     1       0.975   9.987  18.862  0.00  0.00    +0.000 C 
ATOM     18  C   UNL     1       1.581  11.398  18.722  0.00  0.00    +0.000 C 
ATOM     19  C   UNL     1       0.617  12.479  19.281  0.00  0.00    +0.000 C 
ATOM     20  C   UNL     1      -0.325  13.051  18.205  0.00  0.00    +0.000 C 
ATOM     21  C   UNL     1      -1.633  12.278  18.365  0.00  0.00    +0.000 C 
ATOM     22  C   UNL     1      -1.251  11.138  19.305  0.00  0.00    +0.000 C 
ATOM     23  C   UNL     1      -0.522  10.015  18.509  0.00  0.00    +0.000 C 
ATOM     24  N   UNL     1      -0.281  11.783  20.217  0.00  0.00    +0.000 NA
ATOM     25  C   UNL     1      -0.877  12.649  21.224  0.00  0.00    +0.000 C 
ENDBRANCH   3  17
TORSDOF 4
ENDMDL
MODEL 2
REMARK VINA RESULT:      -7.4      1.509      3.320
REMARK  Name = 
REMARK  6 active torsions:
REMARK  status: ('A' for Active; 'I' for Inactive)
REMARK    1  A    between atoms: C_1  and  C_2
REMARK    2  A    between atoms: C_2  and  C_3
REMARK    3  A    between atoms: C_3  and  N_4
REMARK    4  A    between atoms: C_6  and  C_7
REMARK    5  A    between atoms: N_9  and  C_10
REMARK    6  A    between atoms: N_17  and  C_18
REMARK                            x       y       z     vdW  Elec       q    Type
REMARK                         _______ _______ _______ _____ _____    ______ ____
ROOT
ATOM      1  C   UNL     1       2.217   8.279  18.417  0.00  0.00    +0.000 C 
ATOM      2  O   UNL     1       2.462   8.899  17.386  0.00  0.00    +0.000 OA
ATOM      3  N   UNL     1       1.500   8.857  19.454  0.00  0.00    +0.000 N 
ATOM      4  H   UNL     1       1.416   8.379  20.337  0.00  0.00    +0.000 HD
ENDROOT
BRANCH   1   7
ATOM      5  N   UNL     1       2.909   4.779  19.302  0.00  0.00    +0.000 N 
ATOM      6  C   UNL     1       2.212   5.949  19.509  0.00  0.00    +0.000 A 
ATOM      7  C   UNL     1       2.654   6.894  18.596  0.00  0.00    +0.000 A 
ATOM      8  C   UNL     1       3.649   6.236  17.790  0.00  0.00    +0.000 A 
ATOM      9  C   UNL     1       4.443   6.654  16.696  0.00  0.00    +0.000 A 
ATOM     10  C   UNL     1       5.340   5.767  16.098  0.00  0.00    +0.000 A 
ATOM     11  C   UNL     1       5.459   4.469  16.574  0.00  0.00    +0.000 A 
ATOM     12  C   UNL     1       4.689   4.022  17.653  0.00  0.00    +0.000 A 
ATOM     13  C   UNL     1       3.787   4.923  18.249  0.00  0.00    +0.000 A 
BRANCH   5  14
ATOM     14  C   UNL     1       2.726   3.568  20.091  0.00  0.00    +0.000 C 
BRANCH  14  16
ATOM     15  C   UNL     1       0.837   2.491  18.815  0.00  0.00    +0.000 C 
ATOM     16  C   UNL     1       1.266   3.122  20.131  0.00  0.00    +0.000 C 
ENDBRANCH  14  16
ENDBRANCH   5  14
ENDBRANCH   1   7
BRANCH   3  17
ATOM     17  C   UNL     1       0.955  10.198  19.276  0.00  0.00    +0.000 C 
ATOM     18  C   UNL     1      -0.365  10.234  18.480  0.00  0.00    +0.000 C 
ATOM     19  C   UNL     1      -1.017  11.642  18.543  0.00  0.00    +0.000 C 
ATOM     20  C   UNL     1      -2.010  11.787  19.711  0.00  0.00    +0.000 C 
ATOM     21  C   UNL     1      -1.220  12.470  20.827  0.00  0.00    +0.000 C 
ATOM     22  C   UNL     1       0.221  12.395  20.329  0.00  0.00    +0.000 C 
ATOM     23  C   UNL     1       0.802  10.974  20.594  0.00  0.00    +0.000 C 
ATOM     24  N   UNL     1       0.067  12.582  18.869  0.00  0.00    +0.000 NA
ATOM     25  C   UNL     1      -0.190  13.954  18.456  0.00  0.00    +0.000 C 
ENDBRANCH   3  17
TORSDOF 4
ENDMDL
MODEL 3
REMARK VINA RESULT:      -7.4      1.598      8.057
REMARK  Name = 
REMARK  6 active torsions:
REMARK  status: ('A' for Active; 'I' for Inactive)
REMARK    1  A    between atoms: C_1  and  C_2
REMARK    2  A    between atoms: C_2  and  C_3
REMARK    3  A    between atoms: C_3  and  N_4
REMARK    4  A    between atoms: C_6  and  C_7
REMARK    5  A    between atoms: N_9  and  C_10
REMARK    6  A    between atoms: N_17  and  C_18
REMARK                            x       y       z     vdW  Elec       q    Type
REMARK                         _______ _______ _______ _____ _____    ______ ____
ROOT
ATOM      1  C   UNL     1       1.752   8.626  18.393  0.00  0.00    +0.000 C 
ATOM      2  O   UNL     1       2.264   8.862  17.303  0.00  0.00    +0.000 OA
ATOM      3  N   UNL     1       1.961   7.418  19.042  0.00  0.00    +0.000 N 
ATOM      4  H   UNL     1       1.436   7.194  19.872  0.00  0.00    +0.000 HD
ENDROOT
BRANCH   1   7
ATOM      5  N   UNL     1       0.071  11.122  20.504  0.00  0.00    +0.000 N 
ATOM      6  C   UNL     1       1.138  10.285  20.261  0.00  0.00    +0.000 A 
ATOM      7  C   UNL     1       0.910   9.613  19.071  0.00  0.00    +0.000 A 
ATOM      8  C   UNL     1      -0.350  10.098  18.572  0.00  0.00    +0.000 A 
ATOM      9  C   UNL     1      -1.106   9.819  17.410  0.00  0.00    +0.000 A 
ATOM     10  C   UNL     1      -2.321  10.468  17.187  0.00  0.00    +0.000 A 
ATOM     11  C   UNL     1      -2.796  11.393  18.106  0.00  0.00    +0.000 A 
ATOM     12  C   UNL     1      -2.073  11.695  19.265  0.00  0.00    +0.000 A 
ATOM     13  C   UNL     1      -0.849  11.036  19.480  0.00  0.00    +0.000 A 
BRANCH   5  14
ATOM     14  C   UNL     1      -0.049  11.975  21.679  0.00  0.00    +0.000 C 
BRANCH  14  16
ATOM     15  C   UNL     1      -0.681  10.040  23.167  0.00  0.00    +0.000 C 
ATOM     16  C   UNL     1      -1.062  11.431  22.684  0.00  0.00    +0.000 C 
ENDBRANCH  14  16
ENDBRANCH   5  14
ENDBRANCH   1   7
BRANCH   3  17
ATOM     17  C   UNL     1       2.876   6.448  18.453  0.00  0.00    +0.000 C 
ATOM     18  C   UNL     1       4.058   6.069  19.369  0.00  0.00    +0.000 C 
ATOM     19  C   UNL     1       4.844   4.860  18.795  0.00  0.00    +0.000 C 
ATOM     20  C   UNL     1       4.328   3.508  19.324  0.00  0.00    +0.000 C 
ATOM     21  C   UNL     1       3.388   2.985  18.239  0.00  0.00    +0.000 C 
ATOM     22  C   UNL     1       3.208   4.193  17.323  0.00  0.00    +0.000 C 
ATOM     23  C   UNL     1       2.174   5.179  17.941  0.00  0.00    +0.000 C 
ATOM     24  N   UNL     1       4.547   4.823  17.354  0.00  0.00    +0.000 NA
ATOM     25  C   UNL     1       5.557   4.145  16.555  0.00  0.00    +0.000 C 
ENDBRANCH   3  17
TORSDOF 4
ENDMDL
MODEL 4
REMARK VINA RESULT:      -7.2      1.947      8.035
REMARK  Name = 
REMARK  6 active torsions:
REMARK  status: ('A' for Active; 'I' for Inactive)
REMARK    1  A    between atoms: C_1  and  C_2
REMARK    2  A    between atoms: C_2  and  C_3
REMARK    3  A    between atoms: C_3  and  N_4
REMARK    4  A    between atoms: C_6  and  C_7
REMARK    5  A    between atoms: N_9  and  C_10
REMARK    6  A    between atoms: N_17  and  C_18
REMARK                            x       y       z     vdW  Elec       q    Type
REMARK                         _______ _______ _______ _____ _____    ______ ____
ROOT
ATOM      1  C   UNL     1       1.989   8.353  18.282  0.00  0.00    +0.000 C 
ATOM      2  O   UNL     1       2.661   8.673  17.306  0.00  0.00    +0.000 OA
ATOM      3  N   UNL     1       2.162   7.127  18.906  0.00  0.00    +0.000 N 
ATOM      4  H   UNL     1       1.519   6.832  19.625  0.00  0.00    +0.000 HD
ENDROOT
BRANCH   1   7
ATOM      5  N   UNL     1      -0.660  10.754  19.135  0.00  0.00    +0.000 N 
ATOM      6  C   UNL     1       0.097  10.095  18.192  0.00  0.00    +0.000 A 
ATOM      7  C   UNL     1       0.986   9.257  18.847  0.00  0.00    +0.000 A 
ATOM      8  C   UNL     1       0.721   9.413  20.253  0.00  0.00    +0.000 A 
ATOM      9  C   UNL     1       1.272   8.824  21.415  0.00  0.00    +0.000 A 
ATOM     10  C   UNL     1       0.793   9.177  22.678  0.00  0.00    +0.000 A 
ATOM     11  C   UNL     1      -0.227  10.110  22.801  0.00  0.00    +0.000 A 
ATOM     12  C   UNL     1      -0.796  10.711  21.673  0.00  0.00    +0.000 A 
ATOM     13  C   UNL     1      -0.307  10.347  20.404  0.00  0.00    +0.000 A 
BRANCH   5  14
ATOM     14  C   UNL     1      -1.689  11.736  18.817  0.00  0.00    +0.000 C 
BRANCH  14  16
ATOM     15  C   UNL     1      -3.407  10.288  17.674  0.00  0.00    +0.000 C 
ATOM     16  C   UNL     1      -2.402  11.417  17.505  0.00  0.00    +0.000 C 
ENDBRANCH  14  16
ENDBRANCH   5  14
ENDBRANCH   1   7
BRANCH   3  17
ATOM     17  C   UNL     1       3.221   6.240  18.442  0.00  0.00    +0.000 C 
ATOM     18  C   UNL     1       4.171   5.764  19.560  0.00  0.00    +0.000 C 
ATOM     19  C   UNL     1       5.110   4.636  19.054  0.00  0.00    +0.000 C 
ATOM     20  C   UNL     1       4.532   3.228  19.291  0.00  0.00    +0.000 C 
ATOM     21  C   UNL     1       3.887   2.830  17.964  0.00  0.00    +0.000 C 
ATOM     22  C   UNL     1       3.883   4.136  17.174  0.00  0.00    +0.000 C 
ATOM     23  C   UNL     1       2.701   5.035  17.640  0.00  0.00    +0.000 C 
ATOM     24  N   UNL     1       5.155   4.768  17.589  0.00  0.00    +0.000 NA
ATOM     25  C   UNL     1       6.346   4.196  16.976  0.00  0.00    +0.000 C 
ENDBRANCH   3  17
TORSDOF 4
ENDMDL
MODEL 5
REMARK VINA RESULT:      -7.2      1.192      1.431
REMARK  Name = 
REMARK  6 active torsions:
REMARK  status: ('A' for Active; 'I' for Inactive)
REMARK    1  A    between atoms: C_1  and  C_2
REMARK    2  A    between atoms: C_2  and  C_3
REMARK    3  A    between atoms: C_3  and  N_4
REMARK    4  A    between atoms: C_6  and  C_7
REMARK    5  A    between atoms: N_9  and  C_10
REMARK    6  A    between atoms: N_17  and  C_18
REMARK                            x       y       z     vdW  Elec       q    Type
REMARK                         _______ _______ _______ _____ _____    ______ ____
ROOT
ATOM      1  C   UNL     1       1.927   7.765  19.711  0.00  0.00    +0.000 C 
ATOM      2  O   UNL     1       1.880   7.890  20.932  0.00  0.00    +0.000 OA
ATOM      3  N   UNL     1       1.485   8.771  18.865  0.00  0.00    +0.000 N 
ATOM      4  H   UNL     1       1.416   8.602  17.874  0.00  0.00    +0.000 HD
ENDROOT
BRANCH   1   7
ATOM      5  N   UNL     1       3.620   5.105  17.821  0.00  0.00    +0.000 N 
ATOM      6  C   UNL     1       3.416   6.442  18.082  0.00  0.00    +0.000 A 
ATOM      7  C   UNL     1       2.471   6.557  19.088  0.00  0.00    +0.000 A 
ATOM      8  C   UNL     1       2.115   5.211  19.458  0.00  0.00    +0.000 A 
ATOM      9  C   UNL     1       1.231   4.671  20.421  0.00  0.00    +0.000 A 
ATOM     10  C   UNL     1       1.097   3.289  20.557  0.00  0.00    +0.000 A 
ATOM     11  C   UNL     1       1.832   2.434  19.747  0.00  0.00    +0.000 A 
ATOM     12  C   UNL     1       2.716   2.934  18.785  0.00  0.00    +0.000 A 
ATOM     13  C   UNL     1       2.845   4.329  18.656  0.00  0.00    +0.000 A 
BRANCH   5  14
ATOM     14  C   UNL     1       4.534   4.600  16.805  0.00  0.00    +0.000 C 
BRANCH  14  16
ATOM     15  C   UNL     1       6.905   4.674  15.951  0.00  0.00    +0.000 C 
ATOM     16  C   UNL     1       5.994   4.889  17.150  0.00  0.00    +0.000 C 
ENDBRANCH  14  16
ENDBRANCH   5  14
ENDBRANCH   1   7
BRANCH   3  17
ATOM     17  C   UNL     1       1.034  10.032  19.441  0.00  0.00    +0.000 C 
ATOM     18  C   UNL     1       1.520  11.277  18.672  0.00  0.00    +0.000 C 
ATOM     19  C   UNL     1       0.807  12.560  19.179  0.00  0.00    +0.000 C 
ATOM     20  C   UNL     1      -0.475  12.882  18.387  0.00  0.00    +0.000 C 
ATOM     21  C   UNL     1      -1.618  12.316  19.228  0.00  0.00    +0.000 C 
ATOM     22  C   UNL     1      -0.896  11.466  20.271  0.00  0.00    +0.000 C 
ATOM     23  C   UNL     1      -0.488  10.097  19.651  0.00  0.00    +0.000 C 
ATOM     24  N   UNL     1       0.328  12.254  20.537  0.00  0.00    +0.000 NA
ATOM     25  C   UNL     1       0.126  13.427  21.375  0.00  0.00    +0.000 C 
ENDBRANCH   3  17
TORSDOF 4
ENDMDL
MODEL 6
REMARK VINA RESULT:      -7.1      1.850      7.990
REMARK  Name = 
REMARK  6 active torsions:
REMARK  status: ('A' for Active; 'I' for Inactive)
REMARK    1  A    between atoms: C_1  and  C_2
REMARK    2  A    between atoms: C_2  and  C_3
REMARK    3  A    between atoms: C_3  and  N_4
REMARK    4  A    between atoms: C_6  and  C_7
REMARK    5  A    between atoms: N_9  and  C_10
REMARK    6  A    between atoms: N_17  and  C_18
REMARK                            x       y       z     vdW  Elec       q    Type
REMARK                         _______ _______ _______ _____ _____    ______ ____
ROOT
ATOM      1  C   UNL     1       1.632   7.869  20.241  0.00  0.00    +0.000 C 
ATOM      2  O   UNL     1       1.455   7.170  21.234  0.00  0.00    +0.000 OA
ATOM      3  N   UNL     1       2.401   7.427  19.175  0.00  0.00    +0.000 N 
ATOM      4  H   UNL     1       2.637   8.060  18.427  0.00  0.00    +0.000 HD
ENDROOT
BRANCH   1   7
ATOM      5  N   UNL     1       0.324  11.198  19.392  0.00  0.00    +0.000 N 
ATOM      6  C   UNL     1       1.027  10.066  19.044  0.00  0.00    +0.000 A 
ATOM      7  C   UNL     1       1.024   9.196  20.123  0.00  0.00    +0.000 A 
ATOM      8  C   UNL     1       0.255   9.841  21.156  0.00  0.00    +0.000 A 
ATOM      9  C   UNL     1      -0.122   9.462  22.465  0.00  0.00    +0.000 A 
ATOM     10  C   UNL     1      -0.897  10.317  23.250  0.00  0.00    +0.000 A 
ATOM     11  C   UNL     1      -1.304  11.546  22.749  0.00  0.00    +0.000 A 
ATOM     12  C   UNL     1      -0.951  11.952  21.457  0.00  0.00    +0.000 A 
ATOM     13  C   UNL     1      -0.169  11.082  20.674  0.00  0.00    +0.000 A 
BRANCH   5  14
ATOM     14  C   UNL     1       0.133  12.344  18.512  0.00  0.00    +0.000 C 
BRANCH  14  16
ATOM     15  C   UNL     1       2.482  13.212  18.218  0.00  0.00    +0.000 C 
ATOM     16  C   UNL     1       1.110  13.476  18.821  0.00  0.00    +0.000 C 
ENDBRANCH  14  16
ENDBRANCH   5  14
ENDBRANCH   1   7
BRANCH   3  17
ATOM     17  C   UNL     1       2.938   6.072  19.205  0.00  0.00    +0.000 C 
ATOM     18  C   UNL     1       1.936   4.995  18.741  0.00  0.00    +0.000 C 
ATOM     19  C   UNL     1       2.639   3.622  18.555  0.00  0.00    +0.000 C 
ATOM     20  C   UNL     1       3.151   3.405  17.119  0.00  0.00    +0.000 C 
ATOM     21  C   UNL     1       4.631   3.781  17.160  0.00  0.00    +0.000 C 
ATOM     22  C   UNL     1       4.781   4.458  18.520  0.00  0.00    +0.000 C 
ATOM     23  C   UNL     1       4.266   5.925  18.444  0.00  0.00    +0.000 C 
ATOM     24  N   UNL     1       3.861   3.673  19.373  0.00  0.00    +0.000 NA
ATOM     25  C   UNL     1       4.366   2.366  19.770  0.00  0.00    +0.000 C 
ENDBRANCH   3  17
TORSDOF 4
ENDMDL
MODEL 7
REMARK VINA RESULT:      -7.1      1.846      8.129
REMARK  Name = 
REMARK  6 active torsions:
REMARK  status: ('A' for Active; 'I' for Inactive)
REMARK    1  A    between atoms: C_1  and  C_2
REMARK    2  A    between atoms: C_2  and  C_3
REMARK    3  A    between atoms: C_3  and  N_4
REMARK    4  A    between atoms: C_6  and  C_7
REMARK    5  A    between atoms: N_9  and  C_10
REMARK    6  A    between atoms: N_17  and  C_18
REMARK                            x       y       z     vdW  Elec       q    Type
REMARK                         _______ _______ _______ _____ _____    ______ ____
ROOT
ATOM      1  C   UNL     1       1.652   7.831  20.256  0.00  0.00    +0.000 C 
ATOM      2  O   UNL     1       1.582   7.162  21.283  0.00  0.00    +0.000 OA
ATOM      3  N   UNL     1       2.340   7.374  19.142  0.00  0.00    +0.000 N 
ATOM      4  H   UNL     1       2.492   7.986  18.356  0.00  0.00    +0.000 HD
ENDROOT
BRANCH   1   7
ATOM      5  N   UNL     1       0.201  11.104  19.425  0.00  0.00    +0.000 N 
ATOM      6  C   UNL     1       0.926   9.991  19.061  0.00  0.00    +0.000 A 
ATOM      7  C   UNL     1       0.997   9.136  20.149  0.00  0.00    +0.000 A 
ATOM      8  C   UNL     1       0.252   9.770  21.206  0.00  0.00    +0.000 A 
ATOM      9  C   UNL     1      -0.056   9.396  22.534  0.00  0.00    +0.000 A 
ATOM     10  C   UNL     1      -0.825  10.236  23.342  0.00  0.00    +0.000 A 
ATOM     11  C   UNL     1      -1.293  11.444  22.844  0.00  0.00    +0.000 A 
ATOM     12  C   UNL     1      -1.009  11.844  21.534  0.00  0.00    +0.000 A 
ATOM     13  C   UNL     1      -0.233  10.990  20.728  0.00  0.00    +0.000 A 
BRANCH   5  14
ATOM     14  C   UNL     1      -0.065  12.232  18.540  0.00  0.00    +0.000 C 
BRANCH  14  16
ATOM     15  C   UNL     1      -1.924  10.957  17.411  0.00  0.00    +0.000 C 
ATOM     16  C   UNL     1      -1.517  12.266  18.072  0.00  0.00    +0.000 C 
ENDBRANCH  14  16
ENDBRANCH   5  14
ENDBRANCH   1   7
BRANCH   3  17
ATOM     17  C   UNL     1       2.918   6.036  19.169  0.00  0.00    +0.000 C 
ATOM     18  C   UNL     1       1.972   4.937  18.643  0.00  0.00    +0.000 C 
ATOM     19  C   UNL     1       2.724   3.591  18.461  0.00  0.00    +0.000 C 
ATOM     20  C   UNL     1       3.302   3.419  17.043  0.00  0.00    +0.000 C 
ATOM     21  C   UNL     1       4.767   3.840  17.154  0.00  0.00    +0.000 C 
ATOM     22  C   UNL     1       4.839   4.493  18.531  0.00  0.00    +0.000 C 
ATOM     23  C   UNL     1       4.281   5.945  18.461  0.00  0.00    +0.000 C 
ATOM     24  N   UNL     1       3.910   3.663  19.330  0.00  0.00    +0.000 NA
ATOM     25  C   UNL     1       4.439   2.365  19.723  0.00  0.00    +0.000 C 
ENDBRANCH   3  17
TORSDOF 4
ENDMDL
MODEL 8
REMARK VINA RESULT:      -7.1      1.584      3.153
REMARK  Name = 
REMARK  6 active torsions:
REMARK  status: ('A' for Active; 'I' for Inactive)
REMARK    1  A    between atoms: C_1  and  C_2
REMARK    2  A    between atoms: C_2  and  C_3
REMARK    3  A    between atoms: C_3  and  N_4
REMARK    4  A    between atoms: C_6  and  C_7
REMARK    5  A    between atoms: N_9  and  C_10
REMARK    6  A    between atoms: N_17  and  C_18
REMARK                            x       y       z     vdW  Elec       q    Type
REMARK                         _______ _______ _______ _____ _____    ______ ____
ROOT
ATOM      1  C   UNL     1       1.684   7.978  20.350  0.00  0.00    +0.000 C 
ATOM      2  O   UNL     1       1.560   8.275  21.535  0.00  0.00    +0.000 OA
ATOM      3  N   UNL     1       1.322   8.861  19.344  0.00  0.00    +0.000 N 
ATOM      4  H   UNL     1       1.313   8.556  18.384  0.00  0.00    +0.000 HD
ENDROOT
BRANCH   1   7
ATOM      5  N   UNL     1       2.768   4.512  19.782  0.00  0.00    +0.000 N 
ATOM      6  C   UNL     1       2.056   5.437  20.513  0.00  0.00    +0.000 A 
ATOM      7  C   UNL     1       2.236   6.686  19.940  0.00  0.00    +0.000 A 
ATOM      8  C   UNL     1       3.083   6.482  18.794  0.00  0.00    +0.000 A 
ATOM      9  C   UNL     1       3.602   7.349  17.805  0.00  0.00    +0.000 A 
ATOM     10  C   UNL     1       4.411   6.849  16.783  0.00  0.00    +0.000 A 
ATOM     11  C   UNL     1       4.710   5.494  16.732  0.00  0.00    +0.000 A 
ATOM     12  C   UNL     1       4.211   4.607  17.692  0.00  0.00    +0.000 A 
ATOM     13  C   UNL     1       3.397   5.122  18.718  0.00  0.00    +0.000 A 
BRANCH   5  14
ATOM     14  C   UNL     1       2.831   3.092  20.101  0.00  0.00    +0.000 C 
BRANCH  14  16
ATOM     15  C   UNL     1       0.809   2.408  18.761  0.00  0.00    +0.000 C 
ATOM     16  C   UNL     1       1.447   2.448  20.141  0.00  0.00    +0.000 C 
ENDBRANCH  14  16
ENDBRANCH   5  14
ENDBRANCH   1   7
BRANCH   3  17
ATOM     17  C   UNL     1       0.866  10.198  19.706  0.00  0.00    +0.000 C 
ATOM     18  C   UNL     1       1.361  11.305  18.753  0.00  0.00    +0.000 C 
ATOM     19  C   UNL     1       0.643  12.652  19.041  0.00  0.00    +0.000 C 
ATOM     20  C   UNL     1      -0.630  12.841  18.195  0.00  0.00    +0.000 C 
ATOM     21  C   UNL     1      -1.783  12.416  19.103  0.00  0.00    +0.000 C 
ATOM     22  C   UNL     1      -1.072  11.745  20.276  0.00  0.00    +0.000 C 
ATOM     23  C   UNL     1      -0.658  10.295  19.887  0.00  0.00    +0.000 C 
ATOM     24  N   UNL     1       0.150  12.566  20.425  0.00  0.00    +0.000 NA
ATOM     25  C   UNL     1      -0.060  13.857  21.063  0.00  0.00    +0.000 C 
ENDBRANCH   3  17
TORSDOF 4
ENDMDL
MODEL 9
REMARK VINA RESULT:      -7.0      1.024      1.858
REMARK  Name = 
REMARK  6 active torsions:
REMARK  status: ('A' for Active; 'I' for Inactive)
REMARK    1  A    between atoms: C_1  and  C_2
REMARK    2  A    between atoms: C_2  and  C_3
REMARK    3  A    between atoms: C_3  and  N_4
REMARK    4  A    between atoms: C_6  and  C_7
REMARK    5  A    between atoms: N_9  and  C_10
REMARK    6  A    between atoms: N_17  and  C_18
REMARK                            x       y       z     vdW  Elec       q    Type
REMARK                         _______ _______ _______ _____ _____    ______ ____
ROOT
ATOM      1  C   UNL     1       2.400   7.653  18.580  0.00  0.00    +0.000 C 
ATOM      2  O   UNL     1       2.184   7.826  19.776  0.00  0.00    +0.000 OA
ATOM      3  N   UNL     1       1.916   8.533  17.624  0.00  0.00    +0.000 N 
ATOM      4  H   UNL     1       1.997   8.309  16.644  0.00  0.00    +0.000 HD
ENDROOT
BRANCH   1   7
ATOM      5  N   UNL     1       4.829   5.208  17.303  0.00  0.00    +0.000 N 
ATOM      6  C   UNL     1       4.499   6.503  17.633  0.00  0.00    +0.000 A 
ATOM      7  C   UNL     1       3.195   6.520  18.104  0.00  0.00    +0.000 A 
ATOM      8  C   UNL     1       2.741   5.154  18.072  0.00  0.00    +0.000 A 
ATOM      9  C   UNL     1       1.528   4.526  18.439  0.00  0.00    +0.000 A 
ATOM     10  C   UNL     1       1.378   3.146  18.298  0.00  0.00    +0.000 A 
ATOM     11  C   UNL     1       2.421   2.380  17.796  0.00  0.00    +0.000 A 
ATOM     12  C   UNL     1       3.636   2.967  17.425  0.00  0.00    +0.000 A 
ATOM     13  C   UNL     1       3.776   4.359  17.572  0.00  0.00    +0.000 A 
BRANCH   5  14
ATOM     14  C   UNL     1       6.118   4.808  16.753  0.00  0.00    +0.000 C 
BRANCH  14  16
ATOM     15  C   UNL     1       5.610   4.249  14.348  0.00  0.00    +0.000 C 
ATOM     16  C   UNL     1       6.279   5.233  15.295  0.00  0.00    +0.000 C 
ENDBRANCH  14  16
ENDBRANCH   5  14
ENDBRANCH   1   7
BRANCH   3  17
ATOM     17  C   UNL     1       1.209   9.731  18.060  0.00  0.00    +0.000 C 
ATOM     18  C   UNL     1       0.289   9.505  19.277  0.00  0.00    +0.000 C 
ATOM     19  C   UNL     1      -0.231  10.854  19.843  0.00  0.00    +0.000 C 
ATOM     20  C   UNL     1       0.674  11.425  20.951  0.00  0.00    +0.000 C 
ATOM     21  C   UNL     1       1.569  12.446  20.250  0.00  0.00    +0.000 C 
ATOM     22  C   UNL     1       1.318  12.172  18.770  0.00  0.00    +0.000 C 
ATOM     23  C   UNL     1       2.138  10.930  18.312  0.00  0.00    +0.000 C 
ATOM     24  N   UNL     1      -0.122  11.828  18.745  0.00  0.00    +0.000 NA
ATOM     25  C   UNL     1      -1.021  12.967  18.868  0.00  0.00    +0.000 C 
ENDBRANCH   3  17
TORSDOF 4
ENDMDL
