MODEL 1
REMARK VINA RESULT:      -7.6      0.000      0.000
REMARK  Name = 
REMARK  10 active torsions:
REMARK  status: ('A' for Active; 'I' for Inactive)
REMARK    1  A    between atoms: C_2  and  C_3
REMARK    2  A    between atoms: C_3  and  N_4
REMARK    3  A    between atoms: N_4  and  C_5
REMARK    4  A    between atoms: N_4  and  C_6
REMARK    5  A    between atoms: C_6  and  C_7
REMARK    6  A    between atoms: C_6  and  C_8
REMARK    7  A    between atoms: C_8  and  C_9
REMARK    8  A    between atoms: C_12  and  O_13
REMARK    9  A    between atoms: O_13  and  C_14
REMARK   10  A    between atoms: C_14  and  C_15
REMARK                            x       y       z     vdW  Elec       q    Type
REMARK                         _______ _______ _______ _____ _____    ______ ____
ROOT
ATOM      1  C   UNL     1       6.137   5.177  17.312  0.00  0.00    +0.000 A 
ATOM      2  C   UNL     1       6.971   4.912  18.408  0.00  0.00    +0.000 A 
ATOM      3  C   UNL     1       7.827   5.897  18.910  0.00  0.00    +0.000 A 
ATOM      4  C   UNL     1       7.884   7.152  18.304  0.00  0.00    +0.000 A 
ATOM      5  C   UNL     1       7.102   7.405  17.178  0.00  0.00    +0.000 A 
ATOM      6  C   UNL     1       6.251   6.416  16.668  0.00  0.00    +0.000 A 
ENDROOT
BRANCH   1   7
ATOM      7  C   UNL     1       5.030   4.201  16.926  0.00  0.00    +0.000 C 
BRANCH   7   8
ATOM      8  C   UNL     1       3.845   4.222  17.948  0.00  0.00    +0.000 C 
ATOM      9  C   UNL     1       3.228   5.633  18.040  0.00  0.00    +0.000 C 
BRANCH   8  10
ATOM     10  N   UNL     1       2.780   3.199  17.802  0.00  0.00    +0.000 NA
ATOM     11  C   UNL     1       3.147   1.829  18.156  0.00  0.00    +0.000 C 
BRANCH  10  12
ATOM     12  C   UNL     1       1.490   3.585  18.404  0.00  0.00    +0.000 C 
BRANCH  12  14
ATOM     13  C   UNL     1       1.384   2.975  21.016  0.00  0.00    +0.000 C 
ATOM     14  C   UNL     1       1.434   3.265  19.845  0.00  0.00    +0.000 C 
ENDBRANCH  12  14
ENDBRANCH  10  12
ENDBRANCH   8  10
ENDBRANCH   7   8
ENDBRANCH   1   7
BRANCH   4  15
ATOM     15  O   UNL     1       8.645   8.201  18.743  0.00  0.00    +0.000 OA
BRANCH  15  16
ATOM     16  C   UNL     1       8.359   9.462  18.141  0.00  0.00    +0.000 C 
BRANCH  16  17
ATOM     17  C   UNL     1       9.352  10.462  18.665  0.00  0.00    +0.000 A 
ATOM     18  C   UNL     1      10.187  11.176  17.799  0.00  0.00    +0.000 A 
ATOM     19  C   UNL     1      11.125  12.073  18.310  0.00  0.00    +0.000 A 
ATOM     20  C   UNL     1      11.238  12.256  19.690  0.00  0.00    +0.000 A 
ATOM     21  C   UNL     1      10.411  11.549  20.561  0.00  0.00    +0.000 A 
ATOM     22  C   UNL     1       9.474  10.653  20.050  0.00  0.00    +0.000 A 
ENDBRANCH  16  17
ENDBRANCH  15  16
ENDBRANCH   4  15
TORSDOF 8
ENDMDL
MODEL 2
REMARK VINA RESULT:      -7.3      4.311      6.003
REMARK  Name = 
REMARK  10 active torsions:
REMARK  status: ('A' for Active; 'I' for Inactive)
REMARK    1  A    between atoms: C_2  and  C_3
REMARK    2  A    between atoms: C_3  and  N_4
REMARK    3  A    between atoms: N_4  and  C_5
REMARK    4  A    between atoms: N_4  and  C_6
REMARK    5  A    between atoms: C_6  and  C_7
REMARK    6  A    between atoms: C_6  and  C_8
REMARK    7  A    between atoms: C_8  and  C_9
REMARK    8  A    between atoms: C_12  and  O_13
REMARK    9  A    between atoms: O_13  and  C_14
REMARK   10  A    between atoms: C_14  and  C_15
REMARK                            x       y       z     vdW  Elec       q    Type
REMARK                         _______ _______ _______ _____ _____    ______ ____
ROOT
ATOM      1  C   UNL     1       3.344   5.593  19.330  0.00  0.00    +0.000 A 
ATOM      2  C   UNL     1       2.995   6.474  18.297  0.00  0.00    +0.000 A 
ATOM      3  C   UNL     1       3.915   6.804  17.298  0.00  0.00    +0.000 A 
ATOM      4  C   UNL     1       5.208   6.282  17.334  0.00  0.00    +0.000 A 
ATOM      5  C   UNL     1       5.582   5.452  18.390  0.00  0.00    +0.000 A 
ATOM      6  C   UNL     1       4.664   5.128  19.397  0.00  0.00    +0.000 A 
ENDROOT
BRANCH   1   7
ATOM      7  C   UNL     1       2.277   5.036  20.268  0.00  0.00    +0.000 C 
BRANCH   7   8
ATOM      8  C   UNL     1       2.512   3.524  20.595  0.00  0.00    +0.000 C 
ATOM      9  C   UNL     1       2.179   3.227  22.072  0.00  0.00    +0.000 C 
BRANCH   8  10
ATOM     10  N   UNL     1       1.886   2.512  19.708  0.00  0.00    +0.000 NA
ATOM     11  C   UNL     1       0.662   2.923  19.023  0.00  0.00    +0.000 C 
BRANCH  10  12
ATOM     12  C   UNL     1       2.830   1.860  18.782  0.00  0.00    +0.000 C 
BRANCH  12  14
ATOM     13  C   UNL     1       3.083   3.247  16.498  0.00  0.00    +0.000 C 
ATOM     14  C   UNL     1       2.984   2.618  17.524  0.00  0.00    +0.000 C 
ENDBRANCH  12  14
ENDBRANCH  10  12
ENDBRANCH   8  10
ENDBRANCH   7   8
ENDBRANCH   1   7
BRANCH   4  15
ATOM     15  O   UNL     1       6.167   6.498  16.383  0.00  0.00    +0.000 OA
BRANCH  15  16
ATOM     16  C   UNL     1       7.104   5.437  16.204  0.00  0.00    +0.000 C 
BRANCH  16  17
ATOM     17  C   UNL     1       6.958   4.922  14.798  0.00  0.00    +0.000 A 
ATOM     18  C   UNL     1       7.774   5.398  13.765  0.00  0.00    +0.000 A 
ATOM     19  C   UNL     1       7.597   4.932  12.462  0.00  0.00    +0.000 A 
ATOM     20  C   UNL     1       6.601   3.994  12.184  0.00  0.00    +0.000 A 
ATOM     21  C   UNL     1       5.784   3.515  13.206  0.00  0.00    +0.000 A 
ATOM     22  C   UNL     1       5.960   3.980  14.507  0.00  0.00    +0.000 A 
ENDBRANCH  16  17
ENDBRANCH  15  16
ENDBRANCH   4  15
TORSDOF 8
ENDMDL
MODEL 3
REMARK VINA RESULT:      -7.2      1.210      2.121
REMARK  Name = 
REMARK  10 active torsions:
REMARK  status: ('A' for Active; 'I' for Inactive)
REMARK    1  A    between atoms: C_2  and  C_3
REMARK    2  A    between atoms: C_3  and  N_4
REMARK    3  A    between atoms: N_4  and  C_5
REMARK    4  A    between atoms: N_4  and  C_6
REMARK    5  A    between atoms: C_6  and  C_7
REMARK    6  A    between atoms: C_6  and  C_8
REMARK    7  A    between atoms: C_8  and  C_9
REMARK    8  A    between atoms: C_12  and  O_13
REMARK    9  A    between atoms: O_13  and  C_14
REMARK   10  A    between atoms: C_14  and  C_15
REMARK                            x       y       z     vdW  Elec       q    Type
REMARK                         _______ _______ _______ _____ _____    ______ ____
ROOT
ATOM      1  C   UNL     1       6.151   4.967  17.375  0.00  0.00    +0.000 A 
ATOM      2  C   UNL     1       7.065   4.748  18.415  0.00  0.00    +0.000 A 
ATOM      3  C   UNL     1       7.882   5.782  18.879  0.00  0.00    +0.000 A 
ATOM      4  C   UNL     1       7.818   7.045  18.290  0.00  0.00    +0.000 A 
ATOM      5  C   UNL     1       6.954   7.256  17.216  0.00  0.00    +0.000 A 
ATOM      6  C   UNL     1       6.142   6.218  16.743  0.00  0.00    +0.000 A 
ENDROOT
BRANCH   1   7
ATOM      7  C   UNL     1       5.090   3.923  17.041  0.00  0.00    +0.000 C 
BRANCH   7   8
ATOM      8  C   UNL     1       3.671   4.343  17.547  0.00  0.00    +0.000 C 
ATOM      9  C   UNL     1       2.572   3.537  16.823  0.00  0.00    +0.000 C 
BRANCH   8  10
ATOM     10  N   UNL     1       3.426   4.355  19.011  0.00  0.00    +0.000 NA
ATOM     11  C   UNL     1       4.063   3.288  19.780  0.00  0.00    +0.000 C 
BRANCH  10  12
ATOM     12  C   UNL     1       3.628   5.671  19.643  0.00  0.00    +0.000 C 
BRANCH  12  14
ATOM     13  C   UNL     1       2.686   7.667  18.115  0.00  0.00    +0.000 C 
ATOM     14  C   UNL     1       3.125   6.773  18.798  0.00  0.00    +0.000 C 
ENDBRANCH  12  14
ENDBRANCH  10  12
ENDBRANCH   8  10
ENDBRANCH   7   8
ENDBRANCH   1   7
BRANCH   4  15
ATOM     15  O   UNL     1       8.533   8.138  18.698  0.00  0.00    +0.000 OA
BRANCH  15  16
ATOM     16  C   UNL     1       8.260   9.348  17.993  0.00  0.00    +0.000 C 
BRANCH  16  17
ATOM     17  C   UNL     1       9.093  10.439  18.607  0.00  0.00    +0.000 A 
ATOM     18  C   UNL     1       9.379  10.448  19.977  0.00  0.00    +0.000 A 
ATOM     19  C   UNL     1      10.124  11.490  20.531  0.00  0.00    +0.000 A 
ATOM     20  C   UNL     1      10.582  12.530  19.720  0.00  0.00    +0.000 A 
ATOM     21  C   UNL     1      10.302  12.530  18.355  0.00  0.00    +0.000 A 
ATOM     22  C   UNL     1       9.558  11.491  17.802  0.00  0.00    +0.000 A 
ENDBRANCH  16  17
ENDBRANCH  15  16
ENDBRANCH   4  15
TORSDOF 8
ENDMDL
MODEL 4
REMARK VINA RESULT:      -7.1      0.988      1.743
REMARK  Name = 
REMARK  10 active torsions:
REMARK  status: ('A' for Active; 'I' for Inactive)
REMARK    1  A    between atoms: C_2  and  C_3
REMARK    2  A    between atoms: C_3  and  N_4
REMARK    3  A    between atoms: N_4  and  C_5
REMARK    4  A    between atoms: N_4  and  C_6
REMARK    5  A    between atoms: C_6  and  C_7
REMARK    6  A    between atoms: C_6  and  C_8
REMARK    7  A    between atoms: C_8  and  C_9
REMARK    8  A    between atoms: C_12  and  O_13
REMARK    9  A    between atoms: O_13  and  C_14
REMARK   10  A    between atoms: C_14  and  C_15
REMARK                            x       y       z     vdW  Elec       q    Type
REMARK                         _______ _______ _______ _____ _____    ______ ____
ROOT
ATOM      1  C   UNL     1       5.600   5.099  17.589  0.00  0.00    +0.000 A 
ATOM      2  C   UNL     1       5.367   6.371  17.047  0.00  0.00    +0.000 A 
ATOM      3  C   UNL     1       6.272   7.415  17.258  0.00  0.00    +0.000 A 
ATOM      4  C   UNL     1       7.409   7.210  18.039  0.00  0.00    +0.000 A 
ATOM      5  C   UNL     1       7.619   5.965  18.631  0.00  0.00    +0.000 A 
ATOM      6  C   UNL     1       6.707   4.921  18.429  0.00  0.00    +0.000 A 
ENDROOT
BRANCH   1   7
ATOM      7  C   UNL     1       4.756   3.905  17.154  0.00  0.00    +0.000 C 
BRANCH   7   8
ATOM      8  C   UNL     1       3.532   3.674  18.101  0.00  0.00    +0.000 C 
ATOM      9  C   UNL     1       2.210   3.990  17.371  0.00  0.00    +0.000 C 
BRANCH   8  10
ATOM     10  N   UNL     1       3.434   2.375  18.812  0.00  0.00    +0.000 NA
ATOM     11  C   UNL     1       4.374   2.168  19.911  0.00  0.00    +0.000 C 
BRANCH  10  12
ATOM     12  C   UNL     1       2.060   2.004  19.198  0.00  0.00    +0.000 C 
BRANCH  12  14
ATOM     13  C   UNL     1       1.421   2.928  21.636  0.00  0.00    +0.000 C 
ATOM     14  C   UNL     1       1.702   2.525  20.533  0.00  0.00    +0.000 C 
ENDBRANCH  12  14
ENDBRANCH  10  12
ENDBRANCH   8  10
ENDBRANCH   7   8
ENDBRANCH   1   7
BRANCH   4  15
ATOM     15  O   UNL     1       8.383   8.144  18.267  0.00  0.00    +0.000 OA
BRANCH  15  16
ATOM     16  C   UNL     1       8.197   9.398  17.612  0.00  0.00    +0.000 C 
BRANCH  16  17
ATOM     17  C   UNL     1       8.922  10.448  18.408  0.00  0.00    +0.000 A 
ATOM     18  C   UNL     1       9.385  10.185  19.702  0.00  0.00    +0.000 A 
ATOM     19  C   UNL     1      10.025  11.185  20.434  0.00  0.00    +0.000 A 
ATOM     20  C   UNL     1      10.198  12.455  19.880  0.00  0.00    +0.000 A 
ATOM     21  C   UNL     1       9.740  12.727  18.592  0.00  0.00    +0.000 A 
ATOM     22  C   UNL     1       9.102  11.728  17.861  0.00  0.00    +0.000 A 
ENDBRANCH  16  17
ENDBRANCH  15  16
ENDBRANCH   4  15
TORSDOF 8
ENDMDL
MODEL 5
REMARK VINA RESULT:      -7.1      0.769      1.306
REMARK  Name = 
REMARK  10 active torsions:
REMARK  status: ('A' for Active; 'I' for Inactive)
REMARK    1  A    between atoms: C_2  and  C_3
REMARK    2  A    between atoms: C_3  and  N_4
REMARK    3  A    between atoms: N_4  and  C_5
REMARK    4  A    between atoms: N_4  and  C_6
REMARK    5  A    between atoms: C_6  and  C_7
REMARK    6  A    between atoms: C_6  and  C_8
REMARK    7  A    between atoms: C_8  and  C_9
REMARK    8  A    between atoms: C_12  and  O_13
REMARK    9  A    between atoms: O_13  and  C_14
REMARK   10  A    between atoms: C_14  and  C_15
REMARK                            x       y       z     vdW  Elec       q    Type
REMARK                         _______ _______ _______ _____ _____    ______ ____
ROOT
ATOM      1  C   UNL     1       5.987   5.529  17.564  0.00  0.00    +0.000 A 
ATOM      2  C   UNL     1       6.928   5.247  18.564  0.00  0.00    +0.000 A 
ATOM      3  C   UNL     1       7.879   6.200  18.940  0.00  0.00    +0.000 A 
ATOM      4  C   UNL     1       7.922   7.438  18.299  0.00  0.00    +0.000 A 
ATOM      5  C   UNL     1       7.028   7.705  17.264  0.00  0.00    +0.000 A 
ATOM      6  C   UNL     1       6.081   6.748  16.879  0.00  0.00    +0.000 A 
ENDROOT
BRANCH   1   7
ATOM      7  C   UNL     1       4.800   4.599  17.332  0.00  0.00    +0.000 C 
BRANCH   7   8
ATOM      8  C   UNL     1       3.878   4.497  18.591  0.00  0.00    +0.000 C 
ATOM      9  C   UNL     1       3.182   5.845  18.869  0.00  0.00    +0.000 C 
BRANCH   8  10
ATOM     10  N   UNL     1       2.895   3.385  18.649  0.00  0.00    +0.000 NA
ATOM     11  C   UNL     1       2.662   2.664  17.399  0.00  0.00    +0.000 C 
BRANCH  10  12
ATOM     12  C   UNL     1       3.104   2.458  19.776  0.00  0.00    +0.000 C 
BRANCH  12  14
ATOM     13  C   UNL     1       1.367   2.926  21.767  0.00  0.00    +0.000 C 
ATOM     14  C   UNL     1       2.159   2.710  20.882  0.00  0.00    +0.000 C 
ENDBRANCH  12  14
ENDBRANCH  10  12
ENDBRANCH   8  10
ENDBRANCH   7   8
ENDBRANCH   1   7
BRANCH   4  15
ATOM     15  O   UNL     1       8.775   8.459  18.622  0.00  0.00    +0.000 OA
BRANCH  15  16
ATOM     16  C   UNL     1       8.528   9.698  17.961  0.00  0.00    +0.000 C 
BRANCH  16  17
ATOM     17  C   UNL     1       9.337  10.762  18.651  0.00  0.00    +0.000 A 
ATOM     18  C   UNL     1       9.602  10.692  20.024  0.00  0.00    +0.000 A 
ATOM     19  C   UNL     1      10.325  11.708  20.650  0.00  0.00    +0.000 A 
ATOM     20  C   UNL     1      10.779  12.801  19.910  0.00  0.00    +0.000 A 
ATOM     21  C   UNL     1      10.519  12.879  18.543  0.00  0.00    +0.000 A 
ATOM     22  C   UNL     1       9.798  11.865  17.917  0.00  0.00    +0.000 A 
ENDBRANCH  16  17
ENDBRANCH  15  16
ENDBRANCH   4  15
TORSDOF 8
ENDMDL
MODEL 6
REMARK VINA RESULT:      -7.1      0.864      1.741
REMARK  Name = 
REMARK  10 active torsions:
REMARK  status: ('A' for Active; 'I' for Inactive)
REMARK    1  A    between atoms: C_2  and  C_3
REMARK    2  A    between atoms: C_3  and  N_4
REMARK    3  A    between atoms: N_4  and  C_5
REMARK    4  A    between atoms: N_4  and  C_6
REMARK    5  A    between atoms: C_6  and  C_7
REMARK    6  A    between atoms: C_6  and  C_8
REMARK    7  A    between atoms: C_8  and  C_9
REMARK    8  A    between atoms: C_12  and  O_13
REMARK    9  A    between atoms: O_13  and  C_14
REMARK   10  A    between atoms: C_14  and  C_15
REMARK                            x       y       z     vdW  Elec       q    Type
REMARK                         _______ _______ _______ _____ _____    ______ ____
ROOT
ATOM      1  C   UNL     1       6.192   5.106  17.037  0.00  0.00    +0.000 A 
ATOM      2  C   UNL     1       7.035   4.790  18.112  0.00  0.00    +0.000 A 
ATOM      3  C   UNL     1       7.835   5.770  18.705  0.00  0.00    +0.000 A 
ATOM      4  C   UNL     1       7.827   7.075  18.212  0.00  0.00    +0.000 A 
ATOM      5  C   UNL     1       7.036   7.384  17.106  0.00  0.00    +0.000 A 
ATOM      6  C   UNL     1       6.242   6.401  16.505  0.00  0.00    +0.000 A 
ENDROOT
BRANCH   1   7
ATOM      7  C   UNL     1       5.140   4.110  16.558  0.00  0.00    +0.000 C 
BRANCH   7   8
ATOM      8  C   UNL     1       3.746   4.362  17.222  0.00  0.00    +0.000 C 
ATOM      9  C   UNL     1       2.948   3.046  17.333  0.00  0.00    +0.000 C 
BRANCH   8  10
ATOM     10  N   UNL     1       3.709   5.100  18.510  0.00  0.00    +0.000 NA
ATOM     11  C   UNL     1       2.847   6.279  18.553  0.00  0.00    +0.000 C 
BRANCH  10  12
ATOM     12  C   UNL     1       3.507   4.239  19.689  0.00  0.00    +0.000 C 
BRANCH  12  14
ATOM     13  C   UNL     1       0.956   4.272  20.523  0.00  0.00    +0.000 C 
ATOM     14  C   UNL     1       2.101   4.242  20.143  0.00  0.00    +0.000 C 
ENDBRANCH  12  14
ENDBRANCH  10  12
ENDBRANCH   8  10
ENDBRANCH   7   8
ENDBRANCH   1   7
BRANCH   4  15
ATOM     15  O   UNL     1       8.530   8.120  18.748  0.00  0.00    +0.000 OA
BRANCH  15  16
ATOM     16  C   UNL     1       8.319   9.385  18.124  0.00  0.00    +0.000 C 
BRANCH  16  17
ATOM     17  C   UNL     1       9.280  10.368  18.734  0.00  0.00    +0.000 A 
ATOM     18  C   UNL     1       9.301  10.599  20.115  0.00  0.00    +0.000 A 
ATOM     19  C   UNL     1      10.177  11.541  20.654  0.00  0.00    +0.000 A 
ATOM     20  C   UNL     1      11.031  12.262  19.817  0.00  0.00    +0.000 A 
ATOM     21  C   UNL     1      11.017  12.040  18.442  0.00  0.00    +0.000 A 
ATOM     22  C   UNL     1      10.143  11.099  17.902  0.00  0.00    +0.000 A 
ENDBRANCH  16  17
ENDBRANCH  15  16
ENDBRANCH   4  15
TORSDOF 8
ENDMDL
MODEL 7
REMARK VINA RESULT:      -7.0      4.464      8.016
REMARK  Name = 
REMARK  10 active torsions:
REMARK  status: ('A' for Active; 'I' for Inactive)
REMARK    1  A    between atoms: C_2  and  C_3
REMARK    2  A    between atoms: C_3  and  N_4
REMARK    3  A    between atoms: N_4  and  C_5
REMARK    4  A    between atoms: N_4  and  C_6
REMARK    5  A    between atoms: C_6  and  C_7
REMARK    6  A    between atoms: C_6  and  C_8
REMARK    7  A    between atoms: C_8  and  C_9
REMARK    8  A    between atoms: C_12  and  O_13
REMARK    9  A    between atoms: O_13  and  C_14
REMARK   10  A    between atoms: C_14  and  C_15
REMARK                            x       y       z     vdW  Elec       q    Type
REMARK                         _______ _______ _______ _____ _____    ______ ____
ROOT
ATOM      1  C   UNL     1       5.955   4.728  15.515  0.00  0.00    +0.000 A 
ATOM      2  C   UNL     1       6.332   5.950  16.090  0.00  0.00    +0.000 A 
ATOM      3  C   UNL     1       5.635   6.473  17.182  0.00  0.00    +0.000 A 
ATOM      4  C   UNL     1       4.530   5.797  17.697  0.00  0.00    +0.000 A 
ATOM      5  C   UNL     1       4.111   4.610  17.095  0.00  0.00    +0.000 A 
ATOM      6  C   UNL     1       4.803   4.091  15.995  0.00  0.00    +0.000 A 
ENDROOT
BRANCH   1   7
ATOM      7  C   UNL     1       6.858   4.037  14.499  0.00  0.00    +0.000 C 
BRANCH   7   8
ATOM      8  C   UNL     1       6.665   4.609  13.056  0.00  0.00    +0.000 C 
ATOM      9  C   UNL     1       7.938   5.342  12.584  0.00  0.00    +0.000 C 
BRANCH   8  10
ATOM     10  N   UNL     1       6.175   3.688  11.999  0.00  0.00    +0.000 NA
ATOM     11  C   UNL     1       7.067   2.588  11.638  0.00  0.00    +0.000 C 
BRANCH  10  12
ATOM     12  C   UNL     1       4.794   3.218  12.207  0.00  0.00    +0.000 C 
BRANCH  12  14
ATOM     13  C   UNL     1       3.228   3.697  10.080  0.00  0.00    +0.000 C 
ATOM     14  C   UNL     1       3.940   3.470  11.028  0.00  0.00    +0.000 C 
ENDBRANCH  12  14
ENDBRANCH  10  12
ENDBRANCH   8  10
ENDBRANCH   7   8
ENDBRANCH   1   7
BRANCH   4  15
ATOM     15  O   UNL     1       3.809   6.191  18.792  0.00  0.00    +0.000 OA
BRANCH  15  16
ATOM     16  C   UNL     1       2.398   6.003  18.698  0.00  0.00    +0.000 C 
BRANCH  16  17
ATOM     17  C   UNL     1       2.032   4.812  19.541  0.00  0.00    +0.000 A 
ATOM     18  C   UNL     1       1.220   3.790  19.037  0.00  0.00    +0.000 A 
ATOM     19  C   UNL     1       0.865   2.713  19.849  0.00  0.00    +0.000 A 
ATOM     20  C   UNL     1       1.313   2.654  21.170  0.00  0.00    +0.000 A 
ATOM     21  C   UNL     1       2.122   3.668  21.681  0.00  0.00    +0.000 A 
ATOM     22  C   UNL     1       2.477   4.744  20.871  0.00  0.00    +0.000 A 
ENDBRANCH  16  17
ENDBRANCH  15  16
ENDBRANCH   4  15
TORSDOF 8
ENDMDL
MODEL 8
REMARK VINA RESULT:      -7.0      0.978      1.503
REMARK  Name = 
REMARK  10 active torsions:
REMARK  status: ('A' for Active; 'I' for Inactive)
REMARK    1  A    between atoms: C_2  and  C_3
REMARK    2  A    between atoms: C_3  and  N_4
REMARK    3  A    between atoms: N_4  and  C_5
REMARK    4  A    between atoms: N_4  and  C_6
REMARK    5  A    between atoms: C_6  and  C_7
REMARK    6  A    between atoms: C_6  and  C_8
REMARK    7  A    between atoms: C_8  and  C_9
REMARK    8  A    between atoms: C_12  and  O_13
REMARK    9  A    between atoms: O_13  and  C_14
REMARK   10  A    between atoms: C_14  and  C_15
REMARK                            x       y       z     vdW  Elec       q    Type
REMARK                         _______ _______ _______ _____ _____    ______ ____
ROOT
ATOM      1  C   UNL     1       5.756   4.945  17.827  0.00  0.00    +0.000 A 
ATOM      2  C   UNL     1       5.730   6.080  17.004  0.00  0.00    +0.000 A 
ATOM      3  C   UNL     1       6.622   7.136  17.214  0.00  0.00    +0.000 A 
ATOM      4  C   UNL     1       7.532   7.086  18.269  0.00  0.00    +0.000 A 
ATOM      5  C   UNL     1       7.525   5.987  19.128  0.00  0.00    +0.000 A 
ATOM      6  C   UNL     1       6.625   4.934  18.925  0.00  0.00    +0.000 A 
ENDROOT
BRANCH   1   7
ATOM      7  C   UNL     1       4.966   3.696  17.449  0.00  0.00    +0.000 C 
BRANCH   7   8
ATOM      8  C   UNL     1       3.570   3.646  18.154  0.00  0.00    +0.000 C 
ATOM      9  C   UNL     1       2.432   3.645  17.112  0.00  0.00    +0.000 C 
BRANCH   8  10
ATOM     10  N   UNL     1       3.340   2.593  19.174  0.00  0.00    +0.000 NA
ATOM     11  C   UNL     1       4.450   2.323  20.085  0.00  0.00    +0.000 C 
BRANCH  10  12
ATOM     12  C   UNL     1       2.065   2.731  19.902  0.00  0.00    +0.000 C 
BRANCH  12  14
ATOM     13  C   UNL     1       1.667   5.220  20.824  0.00  0.00    +0.000 C 
ATOM     14  C   UNL     1       1.859   4.106  20.401  0.00  0.00    +0.000 C 
ENDBRANCH  12  14
ENDBRANCH  10  12
ENDBRANCH   8  10
ENDBRANCH   7   8
ENDBRANCH   1   7
BRANCH   4  15
ATOM     15  O   UNL     1       8.481   8.036  18.533  0.00  0.00    +0.000 OA
BRANCH  15  16
ATOM     16  C   UNL     1       8.257   9.310  17.932  0.00  0.00    +0.000 C 
BRANCH  16  17
ATOM     17  C   UNL     1       9.213  10.290  18.554  0.00  0.00    +0.000 A 
ATOM     18  C   UNL     1      10.091  11.045  17.767  0.00  0.00    +0.000 A 
ATOM     19  C   UNL     1      10.993  11.922  18.368  0.00  0.00    +0.000 A 
ATOM     20  C   UNL     1      11.029  12.045  19.758  0.00  0.00    +0.000 A 
ATOM     21  C   UNL     1      10.160  11.297  20.550  0.00  0.00    +0.000 A 
ATOM     22  C   UNL     1       9.258  10.421  19.950  0.00  0.00    +0.000 A 
ENDBRANCH  16  17
ENDBRANCH  15  16
ENDBRANCH   4  15
TORSDOF 8
ENDMDL
MODEL 9
REMARK VINA RESULT:      -6.9      0.948      1.496
REMARK  Name = 
REMARK  10 active torsions:
REMARK  status: ('A' for Active; 'I' for Inactive)
REMARK    1  A    between atoms: C_2  and  C_3
REMARK    2  A    between atoms: C_3  and  N_4
REMARK    3  A    between atoms: N_4  and  C_5
REMARK    4  A    between atoms: N_4  and  C_6
REMARK    5  A    between atoms: C_6  and  C_7
REMARK    6  A    between atoms: C_6  and  C_8
REMARK    7  A    between atoms: C_8  and  C_9
REMARK    8  A    between atoms: C_12  and  O_13
REMARK    9  A    between atoms: O_13  and  C_14
REMARK   10  A    between atoms: C_14  and  C_15
REMARK                            x       y       z     vdW  Elec       q    Type
REMARK                         _______ _______ _______ _____ _____    ______ ____
ROOT
ATOM      1  C   UNL     1       6.065   5.473  18.341  0.00  0.00    +0.000 A 
ATOM      2  C   UNL     1       5.645   6.536  17.528  0.00  0.00    +0.000 A 
ATOM      3  C   UNL     1       6.476   7.636  17.301  0.00  0.00    +0.000 A 
ATOM      4  C   UNL     1       7.730   7.704  17.909  0.00  0.00    +0.000 A 
ATOM      5  C   UNL     1       8.132   6.680  18.766  0.00  0.00    +0.000 A 
ATOM      6  C   UNL     1       7.295   5.582  19.002  0.00  0.00    +0.000 A 
ENDROOT
BRANCH   1   7
ATOM      7  C   UNL     1       5.274   4.170  18.384  0.00  0.00    +0.000 C 
BRANCH   7   8
ATOM      8  C   UNL     1       4.227   4.078  17.225  0.00  0.00    +0.000 C 
ATOM      9  C   UNL     1       4.922   3.745  15.888  0.00  0.00    +0.000 C 
BRANCH   8  10
ATOM     10  N   UNL     1       3.040   3.210  17.423  0.00  0.00    +0.000 NA
ATOM     11  C   UNL     1       3.224   2.054  18.298  0.00  0.00    +0.000 C 
BRANCH  10  12
ATOM     12  C   UNL     1       1.806   3.947  17.753  0.00  0.00    +0.000 C 
BRANCH  12  14
ATOM     13  C   UNL     1       1.827   4.879  20.270  0.00  0.00    +0.000 C 
ATOM     14  C   UNL     1       1.814   4.445  19.144  0.00  0.00    +0.000 C 
ENDBRANCH  12  14
ENDBRANCH  10  12
ENDBRANCH   8  10
ENDBRANCH   7   8
ENDBRANCH   1   7
BRANCH   4  15
ATOM     15  O   UNL     1       8.641   8.706  17.716  0.00  0.00    +0.000 OA
BRANCH  15  16
ATOM     16  C   UNL     1       8.212  10.010  18.103  0.00  0.00    +0.000 C 
BRANCH  16  17
ATOM     17  C   UNL     1       9.401  10.743  18.661  0.00  0.00    +0.000 A 
ATOM     18  C   UNL     1      10.449  11.161  17.832  0.00  0.00    +0.000 A 
ATOM     19  C   UNL     1      11.558  11.808  18.377  0.00  0.00    +0.000 A 
ATOM     20  C   UNL     1      11.629  12.035  19.753  0.00  0.00    +0.000 A 
ATOM     21  C   UNL     1      10.590  11.622  20.586  0.00  0.00    +0.000 A 
ATOM     22  C   UNL     1       9.483  10.976  20.043  0.00  0.00    +0.000 A 
ENDBRANCH  16  17
ENDBRANCH  15  16
ENDBRANCH   4  15
TORSDOF 8
ENDMDL
