MODEL 1
REMARK VINA RESULT:      -7.8      0.000      0.000
REMARK  Name = 
REMARK  5 active torsions:
REMARK  status: ('A' for Active; 'I' for Inactive)
REMARK    1  A    between atoms: C_1  and  C_2
REMARK    2  A    between atoms: C_4  and  C_5
REMARK    3  A    between atoms: C_13  and  C_14
REMARK    4  A    between atoms: C_16  and  C_17
REMARK    5  A    between atoms: N_19  and  C_20
REMARK                            x       y       z     vdW  Elec       q    Type
REMARK                         _______ _______ _______ _____ _____    ______ ____
ROOT
ATOM      1  C   UNL     1       3.932   5.486  19.213  0.00  0.00    +0.000 A 
ATOM      2  C   UNL     1       4.480   5.671  17.967  0.00  0.00    +0.000 A 
ATOM      3  C   UNL     1       5.533   4.729  17.855  0.00  0.00    +0.000 A 
ATOM      4  N   UNL     1       5.650   3.992  18.979  0.00  0.00    +0.000 NA
ATOM      5  N   UNL     1       4.682   4.487  19.781  0.00  0.00    +0.000 N 
ATOM      6  H   UNL     1       4.577   4.098  20.711  0.00  0.00    +0.000 HD
ENDROOT
BRANCH   1  12
ATOM      7  C   UNL     1       1.539   4.143  20.896  0.00  0.00    +0.000 C 
ATOM      8  C   UNL     1       1.789   5.580  20.599  0.00  0.00    +0.000 A 
ATOM      9  N   UNL     1       0.875   6.501  21.093  0.00  0.00    +0.000 NA
ATOM     10  C   UNL     1       1.218   7.728  20.763  0.00  0.00    +0.000 A 
ATOM     11  S   UNL     1       2.635   7.835  19.795  0.00  0.00    +0.000 S 
ATOM     12  C   UNL     1       2.825   6.130  19.853  0.00  0.00    +0.000 A 
BRANCH  10  13
ATOM     13  C   UNL     1       0.438   8.930  21.099  0.00  0.00    +0.000 A 
ATOM     14  C   UNL     1       0.033   9.865  20.133  0.00  0.00    +0.000 A 
ATOM     15  C   UNL     1      -0.739  10.976  20.489  0.00  0.00    +0.000 A 
ATOM     16  C   UNL     1      -1.107  11.168  21.819  0.00  0.00    +0.000 A 
ATOM     17  I   UNL     1      -2.275  12.804  22.342  0.00  0.00    +0.000 I 
ATOM     18  C   UNL     1      -0.696  10.265  22.798  0.00  0.00    +0.000 A 
ATOM     19  C   UNL     1       0.079   9.157  22.438  0.00  0.00    +0.000 A 
ENDBRANCH  10  13
ENDBRANCH   1  12
BRANCH   3  20
ATOM     20  C   UNL     1       6.386   4.558  16.671  0.00  0.00    +0.000 C 
ATOM     21  O   UNL     1       7.598   4.414  16.803  0.00  0.00    +0.000 OA
ATOM     22  N   UNL     1       5.698   4.615  15.474  0.00  0.00    +0.000 N 
ATOM     23  H   UNL     1       4.714   4.860  15.562  0.00  0.00    +0.000 HD
BRANCH  22  24
ATOM     24  C   UNL     1       6.248   4.460  14.186  0.00  0.00    +0.000 A 
ATOM     25  C   UNL     1       7.339   5.210  13.733  0.00  0.00    +0.000 A 
ATOM     26  C   UNL     1       7.840   5.037  12.443  0.00  0.00    +0.000 A 
ATOM     27  C   UNL     1       7.256   4.111  11.587  0.00  0.00    +0.000 A 
ATOM     28  C   UNL     1       6.179   3.346  12.030  0.00  0.00    +0.000 A 
ATOM     29  C   UNL     1       5.683   3.511  13.329  0.00  0.00    +0.000 A 
ENDBRANCH  22  24
ENDBRANCH   3  20
TORSDOF 4
ENDMDL
MODEL 2
REMARK VINA RESULT:      -7.8      3.064      4.822
REMARK  Name = 
REMARK  5 active torsions:
REMARK  status: ('A' for Active; 'I' for Inactive)
REMARK    1  A    between atoms: C_1  and  C_2
REMARK    2  A    between atoms: C_4  and  C_5
REMARK    3  A    between atoms: C_13  and  C_14
REMARK    4  A    between atoms: C_16  and  C_17
REMARK    5  A    between atoms: N_19  and  C_20
REMARK                            x       y       z     vdW  Elec       q    Type
REMARK                         _______ _______ _______ _____ _____    ______ ____
ROOT
ATOM      1  C   UNL     1       1.076   9.453  19.535  0.00  0.00    +0.000 A 
ATOM      2  C   UNL     1       1.712   8.236  19.556  0.00  0.00    +0.000 A 
ATOM      3  C   UNL     1       2.264   8.057  18.262  0.00  0.00    +0.000 A 
ATOM      4  N   UNL     1       1.981   9.106  17.463  0.00  0.00    +0.000 NA
ATOM      5  N   UNL     1       1.250   9.918  18.257  0.00  0.00    +0.000 N 
ATOM      6  H   UNL     1       0.897  10.786  17.869  0.00  0.00    +0.000 HD
ENDROOT
BRANCH   1  12
ATOM      7  C   UNL     1       1.458   9.228  22.724  0.00  0.00    +0.000 C 
ATOM      8  C   UNL     1       0.533  10.098  21.946  0.00  0.00    +0.000 A 
ATOM      9  N   UNL     1      -0.308  10.937  22.665  0.00  0.00    +0.000 NA
ATOM     10  C   UNL     1      -1.064  11.650  21.857  0.00  0.00    +0.000 A 
ATOM     11  S   UNL     1      -0.841  11.309  20.187  0.00  0.00    +0.000 S 
ATOM     12  C   UNL     1       0.377  10.160  20.566  0.00  0.00    +0.000 A 
BRANCH  10  13
ATOM     13  C   UNL     1      -2.090  12.605  22.305  0.00  0.00    +0.000 A 
ATOM     14  C   UNL     1      -3.000  12.313  23.334  0.00  0.00    +0.000 A 
ATOM     15  C   UNL     1      -3.937  13.264  23.755  0.00  0.00    +0.000 A 
ATOM     16  C   UNL     1      -3.979  14.515  23.143  0.00  0.00    +0.000 A 
ATOM     17  I   UNL     1      -5.352  15.933  23.786  0.00  0.00    +0.000 I 
ATOM     18  C   UNL     1      -3.101  14.817  22.104  0.00  0.00    +0.000 A 
ATOM     19  C   UNL     1      -2.168  13.863  21.684  0.00  0.00    +0.000 A 
ENDBRANCH  10  13
ENDBRANCH   1  12
BRANCH   3  20
ATOM     20  C   UNL     1       3.052   6.892  17.838  0.00  0.00    +0.000 C 
ATOM     21  O   UNL     1       2.581   5.763  17.939  0.00  0.00    +0.000 OA
ATOM     22  N   UNL     1       4.316   7.210  17.378  0.00  0.00    +0.000 N 
ATOM     23  H   UNL     1       4.570   8.190  17.480  0.00  0.00    +0.000 HD
BRANCH  22  24
ATOM     24  C   UNL     1       5.277   6.305  16.885  0.00  0.00    +0.000 A 
ATOM     25  C   UNL     1       5.299   5.873  15.555  0.00  0.00    +0.000 A 
ATOM     26  C   UNL     1       6.257   4.960  15.114  0.00  0.00    +0.000 A 
ATOM     27  C   UNL     1       7.208   4.467  16.000  0.00  0.00    +0.000 A 
ATOM     28  C   UNL     1       7.208   4.901  17.324  0.00  0.00    +0.000 A 
ATOM     29  C   UNL     1       6.253   5.825  17.764  0.00  0.00    +0.000 A 
ENDBRANCH  22  24
ENDBRANCH   3  20
TORSDOF 4
ENDMDL
MODEL 3
REMARK VINA RESULT:      -7.8      3.086      4.738
REMARK  Name = 
REMARK  5 active torsions:
REMARK  status: ('A' for Active; 'I' for Inactive)
REMARK    1  A    between atoms: C_1  and  C_2
REMARK    2  A    between atoms: C_4  and  C_5
REMARK    3  A    between atoms: C_13  and  C_14
REMARK    4  A    between atoms: C_16  and  C_17
REMARK    5  A    between atoms: N_19  and  C_20
REMARK                            x       y       z     vdW  Elec       q    Type
REMARK                         _______ _______ _______ _____ _____    ______ ____
ROOT
ATOM      1  C   UNL     1       1.078   9.499  19.550  0.00  0.00    +0.000 A 
ATOM      2  C   UNL     1       1.693   8.271  19.572  0.00  0.00    +0.000 A 
ATOM      3  C   UNL     1       2.262   8.092  18.286  0.00  0.00    +0.000 A 
ATOM      4  N   UNL     1       2.011   9.151  17.490  0.00  0.00    +0.000 NA
ATOM      5  N   UNL     1       1.281   9.970  18.278  0.00  0.00    +0.000 N 
ATOM      6  H   UNL     1       0.950  10.847  17.891  0.00  0.00    +0.000 HD
ENDROOT
BRANCH   1  12
ATOM      7  C   UNL     1       1.374   9.215  22.743  0.00  0.00    +0.000 C 
ATOM      8  C   UNL     1       0.495  10.123  21.957  0.00  0.00    +0.000 A 
ATOM      9  N   UNL     1      -0.339  10.976  22.669  0.00  0.00    +0.000 NA
ATOM     10  C   UNL     1      -1.054  11.723  21.854  0.00  0.00    +0.000 A 
ATOM     11  S   UNL     1      -0.799  11.401  20.185  0.00  0.00    +0.000 S 
ATOM     12  C   UNL     1       0.375  10.211  20.575  0.00  0.00    +0.000 A 
BRANCH  10  13
ATOM     13  C   UNL     1      -2.062  12.702  22.291  0.00  0.00    +0.000 A 
ATOM     14  C   UNL     1      -2.072  14.031  21.840  0.00  0.00    +0.000 A 
ATOM     15  C   UNL     1      -3.070  14.922  22.252  0.00  0.00    +0.000 A 
ATOM     16  C   UNL     1      -4.064  14.492  23.130  0.00  0.00    +0.000 A 
ATOM     17  I   UNL     1      -5.559  15.807  23.720  0.00  0.00    +0.000 I 
ATOM     18  C   UNL     1      -4.059  13.184  23.609  0.00  0.00    +0.000 A 
ATOM     19  C   UNL     1      -3.058  12.298  23.196  0.00  0.00    +0.000 A 
ENDBRANCH  10  13
ENDBRANCH   1  12
BRANCH   3  20
ATOM     20  C   UNL     1       3.037   6.916  17.866  0.00  0.00    +0.000 C 
ATOM     21  O   UNL     1       2.546   5.794  17.956  0.00  0.00    +0.000 OA
ATOM     22  N   UNL     1       4.311   7.216  17.424  0.00  0.00    +0.000 N 
ATOM     23  H   UNL     1       4.580   8.191  17.534  0.00  0.00    +0.000 HD
BRANCH  22  24
ATOM     24  C   UNL     1       5.264   6.298  16.939  0.00  0.00    +0.000 A 
ATOM     25  C   UNL     1       6.240   5.717  17.755  0.00  0.00    +0.000 A 
ATOM     26  C   UNL     1       7.177   4.827  17.229  0.00  0.00    +0.000 A 
ATOM     27  C   UNL     1       7.149   4.506  15.877  0.00  0.00    +0.000 A 
ATOM     28  C   UNL     1       6.173   5.065  15.055  0.00  0.00    +0.000 A 
ATOM     29  C   UNL     1       5.226   5.950  15.585  0.00  0.00    +0.000 A 
ENDBRANCH  22  24
ENDBRANCH   3  20
TORSDOF 4
ENDMDL
MODEL 4
REMARK VINA RESULT:      -7.8      4.103      5.723
REMARK  Name = 
REMARK  5 active torsions:
REMARK  status: ('A' for Active; 'I' for Inactive)
REMARK    1  A    between atoms: C_1  and  C_2
REMARK    2  A    between atoms: C_4  and  C_5
REMARK    3  A    between atoms: C_13  and  C_14
REMARK    4  A    between atoms: C_16  and  C_17
REMARK    5  A    between atoms: N_19  and  C_20
REMARK                            x       y       z     vdW  Elec       q    Type
REMARK                         _______ _______ _______ _____ _____    ______ ____
ROOT
ATOM      1  C   UNL     1       1.149   9.784  18.864  0.00  0.00    +0.000 A 
ATOM      2  C   UNL     1       1.570   8.516  19.184  0.00  0.00    +0.000 A 
ATOM      3  C   UNL     1       2.424   8.106  18.129  0.00  0.00    +0.000 A 
ATOM      4  N   UNL     1       2.530   9.064  17.187  0.00  0.00    +0.000 NA
ATOM      5  N   UNL     1       1.736  10.053  17.653  0.00  0.00    +0.000 N 
ATOM      6  H   UNL     1       1.635  10.896  17.099  0.00  0.00    +0.000 HD
ENDROOT
BRANCH   1  12
ATOM      7  C   UNL     1      -1.984  10.373  18.416  0.00  0.00    +0.000 C 
ATOM      8  C   UNL     1      -1.050  10.959  19.417  0.00  0.00    +0.000 A 
ATOM      9  N   UNL     1      -1.566  11.905  20.292  0.00  0.00    +0.000 NA
ATOM     10  C   UNL     1      -0.638  12.334  21.122  0.00  0.00    +0.000 A 
ATOM     11  S   UNL     1       0.920  11.657  20.859  0.00  0.00    +0.000 S 
ATOM     12  C   UNL     1       0.306  10.697  19.575  0.00  0.00    +0.000 A 
BRANCH  10  13
ATOM     13  C   UNL     1      -0.852  13.367  22.147  0.00  0.00    +0.000 A 
ATOM     14  C   UNL     1      -1.821  13.244  23.156  0.00  0.00    +0.000 A 
ATOM     15  C   UNL     1      -1.969  14.234  24.134  0.00  0.00    +0.000 A 
ATOM     16  C   UNL     1      -1.153  15.363  24.107  0.00  0.00    +0.000 A 
ATOM     17  I   UNL     1      -1.356  16.819  25.574  0.00  0.00    +0.000 I 
ATOM     18  C   UNL     1      -0.202  15.517  23.101  0.00  0.00    +0.000 A 
ATOM     19  C   UNL     1      -0.060  14.526  22.123  0.00  0.00    +0.000 A 
ENDBRANCH  10  13
ENDBRANCH   1  12
BRANCH   3  20
ATOM     20  C   UNL     1       3.119   6.812  18.066  0.00  0.00    +0.000 C 
ATOM     21  O   UNL     1       4.256   6.749  17.608  0.00  0.00    +0.000 OA
ATOM     22  N   UNL     1       2.363   5.749  18.522  0.00  0.00    +0.000 N 
ATOM     23  H   UNL     1       1.399   5.982  18.751  0.00  0.00    +0.000 HD
BRANCH  22  24
ATOM     24  C   UNL     1       2.776   4.405  18.601  0.00  0.00    +0.000 A 
ATOM     25  C   UNL     1       3.643   3.936  19.594  0.00  0.00    +0.000 A 
ATOM     26  C   UNL     1       4.042   2.600  19.624  0.00  0.00    +0.000 A 
ATOM     27  C   UNL     1       3.578   1.713  18.660  0.00  0.00    +0.000 A 
ATOM     28  C   UNL     1       2.702   2.162  17.674  0.00  0.00    +0.000 A 
ATOM     29  C   UNL     1       2.293   3.501  17.651  0.00  0.00    +0.000 A 
ENDBRANCH  22  24
ENDBRANCH   3  20
TORSDOF 4
ENDMDL
MODEL 5
REMARK VINA RESULT:      -7.8      2.401      4.101
REMARK  Name = 
REMARK  5 active torsions:
REMARK  status: ('A' for Active; 'I' for Inactive)
REMARK    1  A    between atoms: C_1  and  C_2
REMARK    2  A    between atoms: C_4  and  C_5
REMARK    3  A    between atoms: C_13  and  C_14
REMARK    4  A    between atoms: C_16  and  C_17
REMARK    5  A    between atoms: N_19  and  C_20
REMARK                            x       y       z     vdW  Elec       q    Type
REMARK                         _______ _______ _______ _____ _____    ______ ____
ROOT
ATOM      1  C   UNL     1       1.396   8.032  20.301  0.00  0.00    +0.000 A 
ATOM      2  C   UNL     1       2.196   7.610  19.268  0.00  0.00    +0.000 A 
ATOM      3  C   UNL     1       2.609   6.295  19.601  0.00  0.00    +0.000 A 
ATOM      4  N   UNL     1       2.100   5.912  20.790  0.00  0.00    +0.000 NA
ATOM      5  N   UNL     1       1.390   6.988  21.190  0.00  0.00    +0.000 N 
ATOM      6  H   UNL     1       0.915   6.951  22.085  0.00  0.00    +0.000 HD
ENDROOT
BRANCH   1  12
ATOM      7  C   UNL     1       0.118   9.959  18.061  0.00  0.00    +0.000 C 
ATOM      8  C   UNL     1       0.101  10.099  19.543  0.00  0.00    +0.000 A 
ATOM      9  N   UNL     1      -0.539  11.213  20.069  0.00  0.00    +0.000 NA
ATOM     10  C   UNL     1      -0.483  11.209  21.385  0.00  0.00    +0.000 A 
ATOM     11  S   UNL     1       0.389   9.889  22.056  0.00  0.00    +0.000 S 
ATOM     12  C   UNL     1       0.678   9.258  20.486  0.00  0.00    +0.000 A 
BRANCH  10  13
ATOM     13  C   UNL     1      -1.032  12.271  22.244  0.00  0.00    +0.000 A 
ATOM     14  C   UNL     1      -0.409  13.520  22.395  0.00  0.00    +0.000 A 
ATOM     15  C   UNL     1      -0.983  14.516  23.194  0.00  0.00    +0.000 A 
ATOM     16  C   UNL     1      -2.182  14.268  23.857  0.00  0.00    +0.000 A 
ATOM     17  I   UNL     1      -3.046  15.755  25.021  0.00  0.00    +0.000 I 
ATOM     18  C   UNL     1      -2.805  13.027  23.741  0.00  0.00    +0.000 A 
ATOM     19  C   UNL     1      -2.226  12.033  22.944  0.00  0.00    +0.000 A 
ENDBRANCH  10  13
ENDBRANCH   1  12
BRANCH   3  20
ATOM     20  C   UNL     1       3.468   5.446  18.764  0.00  0.00    +0.000 C 
ATOM     21  O   UNL     1       3.319   4.227  18.769  0.00  0.00    +0.000 OA
ATOM     22  N   UNL     1       4.422   6.148  18.052  0.00  0.00    +0.000 N 
ATOM     23  H   UNL     1       4.468   7.141  18.268  0.00  0.00    +0.000 HD
BRANCH  22  24
ATOM     24  C   UNL     1       5.361   5.603  17.154  0.00  0.00    +0.000 A 
ATOM     25  C   UNL     1       6.556   5.009  17.575  0.00  0.00    +0.000 A 
ATOM     26  C   UNL     1       7.467   4.499  16.649  0.00  0.00    +0.000 A 
ATOM     27  C   UNL     1       7.194   4.576  15.289  0.00  0.00    +0.000 A 
ATOM     28  C   UNL     1       6.001   5.151  14.856  0.00  0.00    +0.000 A 
ATOM     29  C   UNL     1       5.082   5.653  15.784  0.00  0.00    +0.000 A 
ENDBRANCH  22  24
ENDBRANCH   3  20
TORSDOF 4
ENDMDL
MODEL 6
REMARK VINA RESULT:      -7.7      0.094      1.314
REMARK  Name = 
REMARK  5 active torsions:
REMARK  status: ('A' for Active; 'I' for Inactive)
REMARK    1  A    between atoms: C_1  and  C_2
REMARK    2  A    between atoms: C_4  and  C_5
REMARK    3  A    between atoms: C_13  and  C_14
REMARK    4  A    between atoms: C_16  and  C_17
REMARK    5  A    between atoms: N_19  and  C_20
REMARK                            x       y       z     vdW  Elec       q    Type
REMARK                         _______ _______ _______ _____ _____    ______ ____
ROOT
ATOM      1  C   UNL     1       3.928   5.515  19.218  0.00  0.00    +0.000 A 
ATOM      2  C   UNL     1       4.428   5.650  17.945  0.00  0.00    +0.000 A 
ATOM      3  C   UNL     1       5.527   4.758  17.856  0.00  0.00    +0.000 A 
ATOM      4  N   UNL     1       5.715   4.100  19.018  0.00  0.00    +0.000 NA
ATOM      5  N   UNL     1       4.747   4.594  19.820  0.00  0.00    +0.000 N 
ATOM      6  H   UNL     1       4.690   4.259  20.775  0.00  0.00    +0.000 HD
ENDROOT
BRANCH   1  12
ATOM      7  C   UNL     1       1.491   4.122  20.793  0.00  0.00    +0.000 C 
ATOM      8  C   UNL     1       1.753   5.568  20.554  0.00  0.00    +0.000 A 
ATOM      9  N   UNL     1       0.829   6.474  21.058  0.00  0.00    +0.000 NA
ATOM     10  C   UNL     1       1.183   7.711  20.779  0.00  0.00    +0.000 A 
ATOM     11  S   UNL     1       2.623   7.847  19.850  0.00  0.00    +0.000 S 
ATOM     12  C   UNL     1       2.807   6.140  19.852  0.00  0.00    +0.000 A 
BRANCH  10  13
ATOM     13  C   UNL     1       0.398   8.903  21.139  0.00  0.00    +0.000 A 
ATOM     14  C   UNL     1      -0.023   9.163  22.453  0.00  0.00    +0.000 A 
ATOM     15  C   UNL     1      -0.738  10.327  22.760  0.00  0.00    +0.000 A 
ATOM     16  C   UNL     1      -1.046  11.238  21.752  0.00  0.00    +0.000 A 
ATOM     17  I   UNL     1      -2.084  12.977  22.213  0.00  0.00    +0.000 I 
ATOM     18  C   UNL     1      -0.659  10.988  20.437  0.00  0.00    +0.000 A 
ATOM     19  C   UNL     1       0.053   9.821  20.134  0.00  0.00    +0.000 A 
ENDBRANCH  10  13
ENDBRANCH   1  12
BRANCH   3  20
ATOM     20  C   UNL     1       6.352   4.558  16.657  0.00  0.00    +0.000 C 
ATOM     21  O   UNL     1       7.563   4.389  16.767  0.00  0.00    +0.000 OA
ATOM     22  N   UNL     1       5.642   4.619  15.474  0.00  0.00    +0.000 N 
ATOM     23  H   UNL     1       4.665   4.886  15.578  0.00  0.00    +0.000 HD
BRANCH  22  24
ATOM     24  C   UNL     1       6.163   4.439  14.177  0.00  0.00    +0.000 A 
ATOM     25  C   UNL     1       5.631   3.520  13.266  0.00  0.00    +0.000 A 
ATOM     26  C   UNL     1       6.191   3.361  11.999  0.00  0.00    +0.000 A 
ATOM     27  C   UNL     1       7.293   4.121  11.625  0.00  0.00    +0.000 A 
ATOM     28  C   UNL     1       7.825   5.051  12.516  0.00  0.00    +0.000 A 
ATOM     29  C   UNL     1       7.256   5.218  13.784  0.00  0.00    +0.000 A 
ENDBRANCH  22  24
ENDBRANCH   3  20
TORSDOF 4
ENDMDL
MODEL 7
REMARK VINA RESULT:      -7.7      5.563     10.975
REMARK  Name = 
REMARK  5 active torsions:
REMARK  status: ('A' for Active; 'I' for Inactive)
REMARK    1  A    between atoms: C_1  and  C_2
REMARK    2  A    between atoms: C_4  and  C_5
REMARK    3  A    between atoms: C_13  and  C_14
REMARK    4  A    between atoms: C_16  and  C_17
REMARK    5  A    between atoms: N_19  and  C_20
REMARK                            x       y       z     vdW  Elec       q    Type
REMARK                         _______ _______ _______ _____ _____    ______ ____
ROOT
ATOM      1  C   UNL     1       0.151  10.592  19.618  0.00  0.00    +0.000 A 
ATOM      2  C   UNL     1      -1.217  10.705  19.566  0.00  0.00    +0.000 A 
ATOM      3  C   UNL     1      -1.505  12.083  19.728  0.00  0.00    +0.000 A 
ATOM      4  N   UNL     1      -0.375  12.802  19.882  0.00  0.00    +0.000 NA
ATOM      5  N   UNL     1       0.601  11.870  19.829  0.00  0.00    +0.000 N 
ATOM      6  H   UNL     1       1.563  12.169  19.940  0.00  0.00    +0.000 HD
ENDROOT
BRANCH   1  12
ATOM      7  C   UNL     1       0.988   8.440  21.862  0.00  0.00    +0.000 C 
ATOM      8  C   UNL     1       1.364   8.493  20.422  0.00  0.00    +0.000 A 
ATOM      9  N   UNL     1       2.203   7.494  19.946  0.00  0.00    +0.000 NA
ATOM     10  C   UNL     1       2.450   7.659  18.663  0.00  0.00    +0.000 A 
ATOM     11  S   UNL     1       1.725   9.056  17.973  0.00  0.00    +0.000 S 
ATOM     12  C   UNL     1       1.001   9.447  19.479  0.00  0.00    +0.000 A 
BRANCH  10  13
ATOM     13  C   UNL     1       3.335   6.793  17.868  0.00  0.00    +0.000 A 
ATOM     14  C   UNL     1       3.230   5.393  17.875  0.00  0.00    +0.000 A 
ATOM     15  C   UNL     1       4.068   4.606  17.077  0.00  0.00    +0.000 A 
ATOM     16  C   UNL     1       5.027   5.214  16.269  0.00  0.00    +0.000 A 
ATOM     17  I   UNL     1       6.253   4.047  15.065  0.00  0.00    +0.000 I 
ATOM     18  C   UNL     1       5.165   6.600  16.265  0.00  0.00    +0.000 A 
ATOM     19  C   UNL     1       4.327   7.382  17.068  0.00  0.00    +0.000 A 
ENDBRANCH  10  13
ENDBRANCH   1  12
BRANCH   3  20
ATOM     20  C   UNL     1      -2.854  12.666  19.718  0.00  0.00    +0.000 C 
ATOM     21  O   UNL     1      -3.091  13.677  20.374  0.00  0.00    +0.000 OA
ATOM     22  N   UNL     1      -3.764  11.957  18.957  0.00  0.00    +0.000 N 
ATOM     23  H   UNL     1      -3.410  11.079  18.582  0.00  0.00    +0.000 HD
BRANCH  22  24
ATOM     24  C   UNL     1      -5.115  12.293  18.744  0.00  0.00    +0.000 A 
ATOM     25  C   UNL     1      -5.632  12.590  17.479  0.00  0.00    +0.000 A 
ATOM     26  C   UNL     1      -6.974  12.937  17.317  0.00  0.00    +0.000 A 
ATOM     27  C   UNL     1      -7.817  12.990  18.420  0.00  0.00    +0.000 A 
ATOM     28  C   UNL     1      -7.320  12.681  19.684  0.00  0.00    +0.000 A 
ATOM     29  C   UNL     1      -5.976  12.323  19.846  0.00  0.00    +0.000 A 
ENDBRANCH  22  24
ENDBRANCH   3  20
TORSDOF 4
ENDMDL
MODEL 8
REMARK VINA RESULT:      -7.7      4.425     10.799
REMARK  Name = 
REMARK  5 active torsions:
REMARK  status: ('A' for Active; 'I' for Inactive)
REMARK    1  A    between atoms: C_1  and  C_2
REMARK    2  A    between atoms: C_4  and  C_5
REMARK    3  A    between atoms: C_13  and  C_14
REMARK    4  A    between atoms: C_16  and  C_17
REMARK    5  A    between atoms: N_19  and  C_20
REMARK                            x       y       z     vdW  Elec       q    Type
REMARK                         _______ _______ _______ _____ _____    ______ ____
ROOT
ATOM      1  C   UNL     1       1.576   8.137  20.595  0.00  0.00    +0.000 A 
ATOM      2  C   UNL     1       0.621   9.062  20.251  0.00  0.00    +0.000 A 
ATOM      3  C   UNL     1       0.377   9.830  21.418  0.00  0.00    +0.000 A 
ATOM      4  N   UNL     1       1.135   9.404  22.448  0.00  0.00    +0.000 NA
ATOM      5  N   UNL     1       1.831   8.373  21.922  0.00  0.00    +0.000 N 
ATOM      6  H   UNL     1       2.473   7.866  22.520  0.00  0.00    +0.000 HD
ENDROOT
BRANCH   1  12
ATOM      7  C   UNL     1       1.694   4.963  21.121  0.00  0.00    +0.000 C 
ATOM      8  C   UNL     1       2.279   5.754  20.004  0.00  0.00    +0.000 A 
ATOM      9  N   UNL     1       2.993   5.058  19.037  0.00  0.00    +0.000 NA
ATOM     10  C   UNL     1       3.447   5.875  18.110  0.00  0.00    +0.000 A 
ATOM     11  S   UNL     1       3.083   7.533  18.380  0.00  0.00    +0.000 S 
ATOM     12  C   UNL     1       2.226   7.129  19.812  0.00  0.00    +0.000 A 
BRANCH  10  13
ATOM     13  C   UNL     1       4.276   5.457  16.967  0.00  0.00    +0.000 A 
ATOM     14  C   UNL     1       4.481   4.109  16.633  0.00  0.00    +0.000 A 
ATOM     15  C   UNL     1       5.246   3.754  15.516  0.00  0.00    +0.000 A 
ATOM     16  C   UNL     1       5.823   4.747  14.727  0.00  0.00    +0.000 A 
ATOM     17  I   UNL     1       6.937   4.220  13.056  0.00  0.00    +0.000 I 
ATOM     18  C   UNL     1       5.652   6.091  15.054  0.00  0.00    +0.000 A 
ATOM     19  C   UNL     1       4.889   6.440  16.173  0.00  0.00    +0.000 A 
ENDBRANCH  10  13
ENDBRANCH   1  12
BRANCH   3  20
ATOM     20  C   UNL     1      -0.567  10.953  21.503  0.00  0.00    +0.000 C 
ATOM     21  O   UNL     1      -1.030  11.444  20.477  0.00  0.00    +0.000 OA
ATOM     22  N   UNL     1      -0.817  11.376  22.794  0.00  0.00    +0.000 N 
ATOM     23  H   UNL     1      -0.248  10.923  23.507  0.00  0.00    +0.000 HD
BRANCH  22  24
ATOM     24  C   UNL     1      -1.693  12.410  23.179  0.00  0.00    +0.000 A 
ATOM     25  C   UNL     1      -1.297  13.750  23.256  0.00  0.00    +0.000 A 
ATOM     26  C   UNL     1      -2.194  14.739  23.661  0.00  0.00    +0.000 A 
ATOM     27  C   UNL     1      -3.500  14.401  23.994  0.00  0.00    +0.000 A 
ATOM     28  C   UNL     1      -3.912  13.073  23.907  0.00  0.00    +0.000 A 
ATOM     29  C   UNL     1      -3.016  12.081  23.491  0.00  0.00    +0.000 A 
ENDBRANCH  22  24
ENDBRANCH   3  20
TORSDOF 4
ENDMDL
MODEL 9
REMARK VINA RESULT:      -7.6      4.136      5.920
REMARK  Name = 
REMARK  5 active torsions:
REMARK  status: ('A' for Active; 'I' for Inactive)
REMARK    1  A    between atoms: C_1  and  C_2
REMARK    2  A    between atoms: C_4  and  C_5
REMARK    3  A    between atoms: C_13  and  C_14
REMARK    4  A    between atoms: C_16  and  C_17
REMARK    5  A    between atoms: N_19  and  C_20
REMARK                            x       y       z     vdW  Elec       q    Type
REMARK                         _______ _______ _______ _____ _____    ______ ____
ROOT
ATOM      1  C   UNL     1       1.124  10.176  19.062  0.00  0.00    +0.000 A 
ATOM      2  C   UNL     1       1.497   8.867  19.243  0.00  0.00    +0.000 A 
ATOM      3  C   UNL     1       2.340   8.542  18.150  0.00  0.00    +0.000 A 
ATOM      4  N   UNL     1       2.484   9.593  17.318  0.00  0.00    +0.000 NA
ATOM      5  N   UNL     1       1.724  10.553  17.888  0.00  0.00    +0.000 N 
ATOM      6  H   UNL     1       1.656  11.454  17.429  0.00  0.00    +0.000 HD
ENDROOT
BRANCH   1  12
ATOM      7  C   UNL     1       1.958  12.918  20.529  0.00  0.00    +0.000 C 
ATOM      8  C   UNL     1       0.637  12.232  20.498  0.00  0.00    +0.000 A 
ATOM      9  N   UNL     1      -0.404  12.825  21.199  0.00  0.00    +0.000 NA
ATOM     10  C   UNL     1      -1.510  12.119  21.083  0.00  0.00    +0.000 A 
ATOM     11  S   UNL     1      -1.341  10.676  20.165  0.00  0.00    +0.000 S 
ATOM     12  C   UNL     1       0.311  11.036  19.869  0.00  0.00    +0.000 A 
BRANCH  10  13
ATOM     13  C   UNL     1      -2.784  12.456  21.739  0.00  0.00    +0.000 A 
ATOM     14  C   UNL     1      -2.955  12.406  23.132  0.00  0.00    +0.000 A 
ATOM     15  C   UNL     1      -4.172  12.769  23.719  0.00  0.00    +0.000 A 
ATOM     16  C   UNL     1      -5.235  13.176  22.916  0.00  0.00    +0.000 A 
ATOM     17  I   UNL     1      -7.033  13.739  23.791  0.00  0.00    +0.000 I 
ATOM     18  C   UNL     1      -5.096  13.210  21.530  0.00  0.00    +0.000 A 
ATOM     19  C   UNL     1      -3.878  12.843  20.947  0.00  0.00    +0.000 A 
ENDBRANCH  10  13
ENDBRANCH   1  12
BRANCH   3  20
ATOM     20  C   UNL     1       2.987   7.239  17.947  0.00  0.00    +0.000 C 
ATOM     21  O   UNL     1       4.004   7.159  17.262  0.00  0.00    +0.000 OA
ATOM     22  N   UNL     1       2.328   6.187  18.553  0.00  0.00    +0.000 N 
ATOM     23  H   UNL     1       1.437   6.433  18.978  0.00  0.00    +0.000 HD
BRANCH  22  24
ATOM     24  C   UNL     1       2.730   4.836  18.548  0.00  0.00    +0.000 A 
ATOM     25  C   UNL     1       3.684   4.327  19.435  0.00  0.00    +0.000 A 
ATOM     26  C   UNL     1       4.067   2.986  19.383  0.00  0.00    +0.000 A 
ATOM     27  C   UNL     1       3.500   2.137  18.441  0.00  0.00    +0.000 A 
ATOM     28  C   UNL     1       2.537   2.627  17.561  0.00  0.00    +0.000 A 
ATOM     29  C   UNL     1       2.144   3.969  17.621  0.00  0.00    +0.000 A 
ENDBRANCH  22  24
ENDBRANCH   3  20
TORSDOF 4
ENDMDL
