MODEL 1
REMARK VINA RESULT:      -8.6      0.000      0.000
REMARK  Name = 
REMARK  9 active torsions:
REMARK  status: ('A' for Active; 'I' for Inactive)
REMARK    1  A    between atoms: N_1  and  C_2
REMARK    2  A    between atoms: C_2  and  C_3
REMARK    3  A    between atoms: C_3  and  C_4
REMARK    4  A    between atoms: C_4  and  C_5
REMARK    5  A    between atoms: C_5  and  N_6
REMARK    6  A    between atoms: C_10  and  C_11
REMARK    7  A    between atoms: C_14  and  N_15
REMARK    8  A    between atoms: N_15  and  C_16
REMARK    9  A    between atoms: C_20  and  C_21
REMARK                            x       y       z     vdW  Elec       q    Type
REMARK                         _______ _______ _______ _____ _____    ______ ____
ROOT
ATOM      1  N   UNL     1       6.530   4.302  13.688  0.00  0.00    +0.000 N 
ATOM      2  C   UNL     1       6.664   4.659  15.022  0.00  0.00    +0.000 A 
ATOM      3  N   UNL     1       7.456   5.697  15.218  0.00  0.00    +0.000 NA
ATOM      4  C   UNL     1       7.633   6.062  16.490  0.00  0.00    +0.000 A 
ATOM      5  C   UNL     1       7.061   5.424  17.569  0.00  0.00    +0.000 A 
ATOM      6  C   UNL     1       6.220   4.361  17.282  0.00  0.00    +0.000 A 
ATOM      7  N   UNL     1       6.038   3.985  15.980  0.00  0.00    +0.000 NA
ATOM      8  H   UNL     1       6.781   5.134  13.160  0.00  0.00    +0.000 HD
ENDROOT
BRANCH   5   9
ATOM      9  C   UNL     1       7.402   5.920  18.908  0.00  0.00    +0.000 C 
ATOM     10  N   UNL     1       8.306   6.951  18.992  0.00  0.00    +0.000 N 
ATOM     11  O   UNL     1       6.884   5.443  19.905  0.00  0.00    +0.000 OA
ATOM     12  H   UNL     1       8.889   7.254  18.220  0.00  0.00    +0.000 HD
ATOM     13  H   UNL     1       8.629   7.201  19.918  0.00  0.00    +0.000 HD
ENDBRANCH   5   9
BRANCH   6  14
ATOM     14  N   UNL     1       5.627   3.565  18.294  0.00  0.00    +0.000 N 
ATOM     15  H   UNL     1       6.234   3.384  19.089  0.00  0.00    +0.000 HD
BRANCH  14  16
ATOM     16  C   UNL     1       4.263   3.232  18.446  0.00  0.00    +0.000 A 
ATOM     17  C   UNL     1       3.655   2.271  17.630  0.00  0.00    +0.000 A 
ATOM     18  C   UNL     1       2.354   1.813  17.894  0.00  0.00    +0.000 A 
ATOM     19  C   UNL     1       1.646   2.315  18.985  0.00  0.00    +0.000 A 
ATOM     20  C   UNL     1       2.210   3.306  19.796  0.00  0.00    +0.000 A 
ATOM     21  C   UNL     1       3.505   3.768  19.499  0.00  0.00    +0.000 A 
BRANCH  20  22
ATOM     22  C   UNL     1       1.497   3.806  21.024  0.00  0.00    +0.000 C 
ATOM     23  F   UNL     1       0.910   2.810  21.748  0.00  0.00    +0.000 F 
ATOM     24  F   UNL     1       2.337   4.440  21.890  0.00  0.00    +0.000 F 
ATOM     25  F   UNL     1       0.502   4.695  20.748  0.00  0.00    +0.000 F 
ENDBRANCH  20  22
ENDBRANCH  14  16
ENDBRANCH   6  14
BRANCH   1  26
ATOM     26  C   UNL     1       5.281   3.683  13.310  0.00  0.00    +0.000 C 
BRANCH  26  27
ATOM     27  C   UNL     1       5.258   3.474  11.800  0.00  0.00    +0.000 C 
BRANCH  27  28
ATOM     28  C   UNL     1       3.859   3.123  11.277  0.00  0.00    +0.000 C 
BRANCH  28  29
ATOM     29  C   UNL     1       3.318   4.184  10.322  0.00  0.00    +0.000 C 
BRANCH  29  30
ATOM     30  N   UNL     1       3.055   3.613   9.004  0.00  0.00    +0.000 NA
ATOM     31  H   UNL     1       2.414   2.828   9.094  0.00  0.00    +0.000 HD
ATOM     32  H   UNL     1       3.922   3.242   8.617  0.00  0.00    +0.000 HD
ENDBRANCH  29  30
ENDBRANCH  28  29
ENDBRANCH  27  28
ENDBRANCH  26  27
ENDBRANCH   1  26
TORSDOF 9
ENDMDL
MODEL 2
REMARK VINA RESULT:      -8.2      3.887      6.233
REMARK  Name = 
REMARK  9 active torsions:
REMARK  status: ('A' for Active; 'I' for Inactive)
REMARK    1  A    between atoms: N_1  and  C_2
REMARK    2  A    between atoms: C_2  and  C_3
REMARK    3  A    between atoms: C_3  and  C_4
REMARK    4  A    between atoms: C_4  and  C_5
REMARK    5  A    between atoms: C_5  and  N_6
REMARK    6  A    between atoms: C_10  and  C_11
REMARK    7  A    between atoms: C_14  and  N_15
REMARK    8  A    between atoms: N_15  and  C_16
REMARK    9  A    between atoms: C_20  and  C_21
REMARK                            x       y       z     vdW  Elec       q    Type
REMARK                         _______ _______ _______ _____ _____    ______ ____
ROOT
ATOM      1  N   UNL     1       4.709   3.991  16.318  0.00  0.00    +0.000 N 
ATOM      2  C   UNL     1       4.062   3.897  17.542  0.00  0.00    +0.000 A 
ATOM      3  N   UNL     1       3.695   2.668  17.857  0.00  0.00    +0.000 NA
ATOM      4  C   UNL     1       3.046   2.533  19.016  0.00  0.00    +0.000 A 
ATOM      5  C   UNL     1       2.741   3.577  19.863  0.00  0.00    +0.000 A 
ATOM      6  C   UNL     1       3.182   4.832  19.478  0.00  0.00    +0.000 A 
ATOM      7  N   UNL     1       3.846   4.973  18.291  0.00  0.00    +0.000 NA
ATOM      8  H   UNL     1       5.062   3.056  16.128  0.00  0.00    +0.000 HD
ENDROOT
BRANCH   5   9
ATOM      9  C   UNL     1       1.974   3.264  21.075  0.00  0.00    +0.000 C 
ATOM     10  N   UNL     1       0.664   2.882  20.917  0.00  0.00    +0.000 N 
ATOM     11  O   UNL     1       2.492   3.325  22.178  0.00  0.00    +0.000 OA
ATOM     12  H   UNL     1       0.146   2.989  20.052  0.00  0.00    +0.000 HD
ATOM     13  H   UNL     1       0.110   2.790  21.759  0.00  0.00    +0.000 HD
ENDBRANCH   5   9
BRANCH   6  14
ATOM     14  N   UNL     1       2.871   6.006  20.210  0.00  0.00    +0.000 N 
ATOM     15  H   UNL     1       3.228   6.009  21.161  0.00  0.00    +0.000 HD
BRANCH  14  16
ATOM     16  C   UNL     1       2.377   7.232  19.711  0.00  0.00    +0.000 A 
ATOM     17  C   UNL     1       2.563   7.600  18.374  0.00  0.00    +0.000 A 
ATOM     18  C   UNL     1       1.924   8.728  17.837  0.00  0.00    +0.000 A 
ATOM     19  C   UNL     1       1.086   9.502  18.638  0.00  0.00    +0.000 A 
ATOM     20  C   UNL     1       0.911   9.185  19.988  0.00  0.00    +0.000 A 
ATOM     21  C   UNL     1       1.580   8.065  20.512  0.00  0.00    +0.000 A 
BRANCH  20  22
ATOM     22  C   UNL     1      -0.049   9.959  20.853  0.00  0.00    +0.000 C 
ATOM     23  F   UNL     1       0.548  10.972  21.544  0.00  0.00    +0.000 F 
ATOM     24  F   UNL     1      -1.041  10.549  20.128  0.00  0.00    +0.000 F 
ATOM     25  F   UNL     1      -0.674   9.192  21.789  0.00  0.00    +0.000 F 
ENDBRANCH  20  22
ENDBRANCH  14  16
ENDBRANCH   6  14
BRANCH   1  26
ATOM     26  C   UNL     1       5.674   5.057  16.182  0.00  0.00    +0.000 C 
BRANCH  26  27
ATOM     27  C   UNL     1       7.081   4.467  16.195  0.00  0.00    +0.000 C 
BRANCH  27  28
ATOM     28  C   UNL     1       7.717   4.499  17.591  0.00  0.00    +0.000 C 
BRANCH  28  29
ATOM     29  C   UNL     1       7.315   5.744  18.379  0.00  0.00    +0.000 C 
BRANCH  29  30
ATOM     30  N   UNL     1       6.752   5.380  19.675  0.00  0.00    +0.000 NA
ATOM     31  H   UNL     1       6.107   4.601  19.562  0.00  0.00    +0.000 HD
ATOM     32  H   UNL     1       6.208   6.161  20.039  0.00  0.00    +0.000 HD
ENDBRANCH  29  30
ENDBRANCH  28  29
ENDBRANCH  27  28
ENDBRANCH  26  27
ENDBRANCH   1  26
TORSDOF 9
ENDMDL
MODEL 3
REMARK VINA RESULT:      -8.2      1.195      1.359
REMARK  Name = 
REMARK  9 active torsions:
REMARK  status: ('A' for Active; 'I' for Inactive)
REMARK    1  A    between atoms: N_1  and  C_2
REMARK    2  A    between atoms: C_2  and  C_3
REMARK    3  A    between atoms: C_3  and  C_4
REMARK    4  A    between atoms: C_4  and  C_5
REMARK    5  A    between atoms: C_5  and  N_6
REMARK    6  A    between atoms: C_10  and  C_11
REMARK    7  A    between atoms: C_14  and  N_15
REMARK    8  A    between atoms: N_15  and  C_16
REMARK    9  A    between atoms: C_20  and  C_21
REMARK                            x       y       z     vdW  Elec       q    Type
REMARK                         _______ _______ _______ _____ _____    ______ ____
ROOT
ATOM      1  N   UNL     1       6.739   3.624  12.997  0.00  0.00    +0.000 N 
ATOM      2  C   UNL     1       6.542   4.043  14.306  0.00  0.00    +0.000 A 
ATOM      3  N   UNL     1       7.194   5.149  14.614  0.00  0.00    +0.000 NA
ATOM      4  C   UNL     1       7.054   5.576  15.871  0.00  0.00    +0.000 A 
ATOM      5  C   UNL     1       6.300   4.936  16.831  0.00  0.00    +0.000 A 
ATOM      6  C   UNL     1       5.624   3.797  16.425  0.00  0.00    +0.000 A 
ATOM      7  N   UNL     1       5.767   3.357  15.138  0.00  0.00    +0.000 NA
ATOM      8  H   UNL     1       7.041   4.453  12.492  0.00  0.00    +0.000 HD
ENDROOT
BRANCH   5   9
ATOM      9  C   UNL     1       6.295   5.509  18.182  0.00  0.00    +0.000 C 
ATOM     10  N   UNL     1       7.403   5.298  18.966  0.00  0.00    +0.000 N 
ATOM     11  O   UNL     1       5.346   6.164  18.582  0.00  0.00    +0.000 OA
ATOM     12  H   UNL     1       8.126   4.622  18.750  0.00  0.00    +0.000 HD
ATOM     13  H   UNL     1       7.340   5.587  19.934  0.00  0.00    +0.000 HD
ENDBRANCH   5   9
BRANCH   6  14
ATOM     14  N   UNL     1       4.877   2.994  17.324  0.00  0.00    +0.000 N 
ATOM     15  H   UNL     1       5.380   2.184  17.673  0.00  0.00    +0.000 HD
BRANCH  14  16
ATOM     16  C   UNL     1       3.665   3.318  17.971  0.00  0.00    +0.000 A 
ATOM     17  C   UNL     1       2.517   3.649  17.241  0.00  0.00    +0.000 A 
ATOM     18  C   UNL     1       1.273   3.797  17.873  0.00  0.00    +0.000 A 
ATOM     19  C   UNL     1       1.164   3.613  19.251  0.00  0.00    +0.000 A 
ATOM     20  C   UNL     1       2.299   3.322  20.015  0.00  0.00    +0.000 A 
ATOM     21  C   UNL     1       3.540   3.202  19.364  0.00  0.00    +0.000 A 
BRANCH  20  22
ATOM     22  C   UNL     1       2.193   3.042  21.491  0.00  0.00    +0.000 C 
ATOM     23  F   UNL     1       0.966   2.579  21.863  0.00  0.00    +0.000 F 
ATOM     24  F   UNL     1       3.081   2.094  21.904  0.00  0.00    +0.000 F 
ATOM     25  F   UNL     1       2.425   4.137  22.267  0.00  0.00    +0.000 F 
ENDBRANCH  20  22
ENDBRANCH  14  16
ENDBRANCH   6  14
BRANCH   1  26
ATOM     26  C   UNL     1       5.654   2.891  12.388  0.00  0.00    +0.000 C 
BRANCH  26  27
ATOM     27  C   UNL     1       4.604   3.873  11.879  0.00  0.00    +0.000 C 
BRANCH  27  28
ATOM     28  C   UNL     1       3.753   3.287  10.745  0.00  0.00    +0.000 C 
BRANCH  28  29
ATOM     29  C   UNL     1       2.915   4.355  10.044  0.00  0.00    +0.000 C 
BRANCH  29  30
ATOM     30  N   UNL     1       3.060   4.262   8.595  0.00  0.00    +0.000 NA
ATOM     31  H   UNL     1       3.898   3.730   8.368  0.00  0.00    +0.000 HD
ATOM     32  H   UNL     1       3.190   5.195   8.207  0.00  0.00    +0.000 HD
ENDBRANCH  29  30
ENDBRANCH  28  29
ENDBRANCH  27  28
ENDBRANCH  26  27
ENDBRANCH   1  26
TORSDOF 9
ENDMDL
MODEL 4
REMARK VINA RESULT:      -8.2      1.283      1.523
REMARK  Name = 
REMARK  9 active torsions:
REMARK  status: ('A' for Active; 'I' for Inactive)
REMARK    1  A    between atoms: N_1  and  C_2
REMARK    2  A    between atoms: C_2  and  C_3
REMARK    3  A    between atoms: C_3  and  C_4
REMARK    4  A    between atoms: C_4  and  C_5
REMARK    5  A    between atoms: C_5  and  N_6
REMARK    6  A    between atoms: C_10  and  C_11
REMARK    7  A    between atoms: C_14  and  N_15
REMARK    8  A    between atoms: N_15  and  C_16
REMARK    9  A    between atoms: C_20  and  C_21
REMARK                            x       y       z     vdW  Elec       q    Type
REMARK                         _______ _______ _______ _____ _____    ______ ____
ROOT
ATOM      1  N   UNL     1       6.608   4.578  13.761  0.00  0.00    +0.000 N 
ATOM      2  C   UNL     1       6.743   4.847  15.116  0.00  0.00    +0.000 A 
ATOM      3  N   UNL     1       7.576   5.837  15.382  0.00  0.00    +0.000 NA
ATOM      4  C   UNL     1       7.755   6.114  16.675  0.00  0.00    +0.000 A 
ATOM      5  C   UNL     1       7.146   5.436  17.709  0.00  0.00    +0.000 A 
ATOM      6  C   UNL     1       6.265   4.429  17.351  0.00  0.00    +0.000 A 
ATOM      7  N   UNL     1       6.080   4.141  16.026  0.00  0.00    +0.000 NA
ATOM      8  H   UNL     1       6.898   5.430  13.288  0.00  0.00    +0.000 HD
ENDROOT
BRANCH   5   9
ATOM      9  C   UNL     1       7.494   5.834  19.079  0.00  0.00    +0.000 C 
ATOM     10  N   UNL     1       8.445   6.813  19.233  0.00  0.00    +0.000 N 
ATOM     11  O   UNL     1       6.942   5.324  20.040  0.00  0.00    +0.000 OA
ATOM     12  H   UNL     1       9.051   7.133  18.486  0.00  0.00    +0.000 HD
ATOM     13  H   UNL     1       8.768   6.992  20.175  0.00  0.00    +0.000 HD
ENDBRANCH   5   9
BRANCH   6  14
ATOM     14  N   UNL     1       5.630   3.597  18.307  0.00  0.00    +0.000 N 
ATOM     15  H   UNL     1       6.212   3.364  19.107  0.00  0.00    +0.000 HD
BRANCH  14  16
ATOM     16  C   UNL     1       4.256   3.287  18.408  0.00  0.00    +0.000 A 
ATOM     17  C   UNL     1       3.647   2.390  17.524  0.00  0.00    +0.000 A 
ATOM     18  C   UNL     1       2.330   1.947  17.731  0.00  0.00    +0.000 A 
ATOM     19  C   UNL     1       1.608   2.401  18.833  0.00  0.00    +0.000 A 
ATOM     20  C   UNL     1       2.173   3.330  19.713  0.00  0.00    +0.000 A 
ATOM     21  C   UNL     1       3.484   3.778  19.473  0.00  0.00    +0.000 A 
BRANCH  20  22
ATOM     22  C   UNL     1       1.442   3.774  20.952  0.00  0.00    +0.000 C 
ATOM     23  F   UNL     1       0.882   2.742  21.645  0.00  0.00    +0.000 F 
ATOM     24  F   UNL     1       2.260   4.407  21.840  0.00  0.00    +0.000 F 
ATOM     25  F   UNL     1       0.423   4.642  20.698  0.00  0.00    +0.000 F 
ENDBRANCH  20  22
ENDBRANCH  14  16
ENDBRANCH   6  14
BRANCH   1  26
ATOM     26  C   UNL     1       5.338   4.036  13.337  0.00  0.00    +0.000 C 
BRANCH  26  27
ATOM     27  C   UNL     1       5.580   2.889  12.361  0.00  0.00    +0.000 C 
BRANCH  27  28
ATOM     28  C   UNL     1       6.868   3.074  11.546  0.00  0.00    +0.000 C 
BRANCH  28  29
ATOM     29  C   UNL     1       7.440   1.743  11.065  0.00  0.00    +0.000 C 
BRANCH  29  30
ATOM     30  N   UNL     1       6.510   0.650  11.333  0.00  0.00    +0.000 NA
ATOM     31  H   UNL     1       5.617   0.842  10.883  0.00  0.00    +0.000 HD
ATOM     32  H   UNL     1       6.330   0.597  12.334  0.00  0.00    +0.000 HD
ENDBRANCH  29  30
ENDBRANCH  28  29
ENDBRANCH  27  28
ENDBRANCH  26  27
ENDBRANCH   1  26
TORSDOF 9
ENDMDL
MODEL 5
REMARK VINA RESULT:      -8.1      1.016      1.360
REMARK  Name = 
REMARK  9 active torsions:
REMARK  status: ('A' for Active; 'I' for Inactive)
REMARK    1  A    between atoms: N_1  and  C_2
REMARK    2  A    between atoms: C_2  and  C_3
REMARK    3  A    between atoms: C_3  and  C_4
REMARK    4  A    between atoms: C_4  and  C_5
REMARK    5  A    between atoms: C_5  and  N_6
REMARK    6  A    between atoms: C_10  and  C_11
REMARK    7  A    between atoms: C_14  and  N_15
REMARK    8  A    between atoms: N_15  and  C_16
REMARK    9  A    between atoms: C_20  and  C_21
REMARK                            x       y       z     vdW  Elec       q    Type
REMARK                         _______ _______ _______ _____ _____    ______ ____
ROOT
ATOM      1  N   UNL     1       6.749   4.534  13.573  0.00  0.00    +0.000 N 
ATOM      2  C   UNL     1       6.654   4.725  14.944  0.00  0.00    +0.000 A 
ATOM      3  N   UNL     1       7.400   5.717  15.396  0.00  0.00    +0.000 NA
ATOM      4  C   UNL     1       7.359   5.921  16.715  0.00  0.00    +0.000 A 
ATOM      5  C   UNL     1       6.614   5.168  17.596  0.00  0.00    +0.000 A 
ATOM      6  C   UNL     1       5.836   4.163  17.044  0.00  0.00    +0.000 A 
ATOM      7  N   UNL     1       5.877   3.951  15.694  0.00  0.00    +0.000 NA
ATOM      8  H   UNL     1       7.083   5.420  13.201  0.00  0.00    +0.000 HD
ENDROOT
BRANCH   5   9
ATOM      9  C   UNL     1       6.722   5.492  19.024  0.00  0.00    +0.000 C 
ATOM     10  N   UNL     1       7.983   5.557  19.566  0.00  0.00    +0.000 N 
ATOM     11  O   UNL     1       5.728   5.711  19.695  0.00  0.00    +0.000 OA
ATOM     12  H   UNL     1       8.815   5.211  19.102  0.00  0.00    +0.000 HD
ATOM     13  H   UNL     1       8.044   5.655  20.571  0.00  0.00    +0.000 HD
ENDBRANCH   5   9
BRANCH   6  14
ATOM     14  N   UNL     1       5.083   3.261  17.837  0.00  0.00    +0.000 N 
ATOM     15  H   UNL     1       5.626   2.495  18.224  0.00  0.00    +0.000 HD
BRANCH  14  16
ATOM     16  C   UNL     1       3.779   3.440  18.350  0.00  0.00    +0.000 A 
ATOM     17  C   UNL     1       2.694   3.698  17.505  0.00  0.00    +0.000 A 
ATOM     18  C   UNL     1       1.378   3.699  17.994  0.00  0.00    +0.000 A 
ATOM     19  C   UNL     1       1.134   3.441  19.341  0.00  0.00    +0.000 A 
ATOM     20  C   UNL     1       2.200   3.221  20.221  0.00  0.00    +0.000 A 
ATOM     21  C   UNL     1       3.511   3.248  19.715  0.00  0.00    +0.000 A 
BRANCH  20  22
ATOM     22  C   UNL     1       1.957   2.863  21.664  0.00  0.00    +0.000 C 
ATOM     23  F   UNL     1       2.224   3.887  22.523  0.00  0.00    +0.000 F 
ATOM     24  F   UNL     1       0.661   2.516  21.902  0.00  0.00    +0.000 F 
ATOM     25  F   UNL     1       2.712   1.814  22.095  0.00  0.00    +0.000 F 
ENDBRANCH  20  22
ENDBRANCH  14  16
ENDBRANCH   6  14
BRANCH   1  26
ATOM     26  C   UNL     1       5.583   3.989  12.918  0.00  0.00    +0.000 C 
BRANCH  26  27
ATOM     27  C   UNL     1       6.025   3.001  11.843  0.00  0.00    +0.000 C 
BRANCH  27  28
ATOM     28  C   UNL     1       4.839   2.405  11.072  0.00  0.00    +0.000 C 
BRANCH  28  29
ATOM     29  C   UNL     1       3.579   3.256  11.206  0.00  0.00    +0.000 C 
BRANCH  29  30
ATOM     30  N   UNL     1       3.345   4.034   9.993  0.00  0.00    +0.000 NA
ATOM     31  H   UNL     1       2.653   3.565   9.413  0.00  0.00    +0.000 HD
ATOM     32  H   UNL     1       4.205   4.077   9.448  0.00  0.00    +0.000 HD
ENDBRANCH  29  30
ENDBRANCH  28  29
ENDBRANCH  27  28
ENDBRANCH  26  27
ENDBRANCH   1  26
TORSDOF 9
ENDMDL
MODEL 6
REMARK VINA RESULT:      -8.1      4.073      6.180
REMARK  Name = 
REMARK  9 active torsions:
REMARK  status: ('A' for Active; 'I' for Inactive)
REMARK    1  A    between atoms: N_1  and  C_2
REMARK    2  A    between atoms: C_2  and  C_3
REMARK    3  A    between atoms: C_3  and  C_4
REMARK    4  A    between atoms: C_4  and  C_5
REMARK    5  A    between atoms: C_5  and  N_6
REMARK    6  A    between atoms: C_10  and  C_11
REMARK    7  A    between atoms: C_14  and  N_15
REMARK    8  A    between atoms: N_15  and  C_16
REMARK    9  A    between atoms: C_20  and  C_21
REMARK                            x       y       z     vdW  Elec       q    Type
REMARK                         _______ _______ _______ _____ _____    ______ ____
ROOT
ATOM      1  N   UNL     1       6.369   4.309  18.501  0.00  0.00    +0.000 N 
ATOM      2  C   UNL     1       5.158   4.114  19.151  0.00  0.00    +0.000 A 
ATOM      3  N   UNL     1       4.839   2.843  19.311  0.00  0.00    +0.000 NA
ATOM      4  C   UNL     1       3.669   2.608  19.911  0.00  0.00    +0.000 A 
ATOM      5  C   UNL     1       2.806   3.591  20.344  0.00  0.00    +0.000 A 
ATOM      6  C   UNL     1       3.222   4.900  20.166  0.00  0.00    +0.000 A 
ATOM      7  N   UNL     1       4.419   5.143  19.551  0.00  0.00    +0.000 NA
ATOM      8  H   UNL     1       6.883   3.440  18.625  0.00  0.00    +0.000 HD
ENDROOT
BRANCH   5   9
ATOM      9  C   UNL     1       1.533   3.161  20.938  0.00  0.00    +0.000 C 
ATOM     10  N   UNL     1       1.586   2.491  22.136  0.00  0.00    +0.000 N 
ATOM     11  O   UNL     1       0.471   3.409  20.392  0.00  0.00    +0.000 OA
ATOM     12  H   UNL     1       2.437   2.109  22.531  0.00  0.00    +0.000 HD
ATOM     13  H   UNL     1       0.720   2.090  22.473  0.00  0.00    +0.000 HD
ENDBRANCH   5   9
BRANCH   6  14
ATOM     14  N   UNL     1       2.403   6.010  20.491  0.00  0.00    +0.000 N 
ATOM     15  H   UNL     1       2.075   6.018  21.452  0.00  0.00    +0.000 HD
BRANCH  14  16
ATOM     16  C   UNL     1       2.216   7.195  19.745  0.00  0.00    +0.000 A 
ATOM     17  C   UNL     1       2.652   7.296  18.419  0.00  0.00    +0.000 A 
ATOM     18  C   UNL     1       2.311   8.402  17.625  0.00  0.00    +0.000 A 
ATOM     19  C   UNL     1       1.524   9.424  18.154  0.00  0.00    +0.000 A 
ATOM     20  C   UNL     1       1.106   9.373  19.487  0.00  0.00    +0.000 A 
ATOM     21  C   UNL     1       1.479   8.267  20.272  0.00  0.00    +0.000 A 
BRANCH  20  22
ATOM     22  C   UNL     1       0.190  10.425  20.057  0.00  0.00    +0.000 C 
ATOM     23  F   UNL     1      -0.586   9.964  21.080  0.00  0.00    +0.000 F 
ATOM     24  F   UNL     1       0.875  11.486  20.570  0.00  0.00    +0.000 F 
ATOM     25  F   UNL     1      -0.675  10.943  19.142  0.00  0.00    +0.000 F 
ENDBRANCH  20  22
ENDBRANCH  14  16
ENDBRANCH   6  14
BRANCH   1  26
ATOM     26  C   UNL     1       7.093   5.511  18.839  0.00  0.00    +0.000 C 
BRANCH  26  27
ATOM     27  C   UNL     1       7.328   6.331  17.574  0.00  0.00    +0.000 C 
BRANCH  27  28
ATOM     28  C   UNL     1       6.034   6.576  16.785  0.00  0.00    +0.000 C 
BRANCH  28  29
ATOM     29  C   UNL     1       5.981   5.757  15.498  0.00  0.00    +0.000 C 
BRANCH  29  30
ATOM     30  N   UNL     1       7.317   5.323  15.102  0.00  0.00    +0.000 NA
ATOM     31  H   UNL     1       7.343   5.167  14.097  0.00  0.00    +0.000 HD
ATOM     32  H   UNL     1       7.527   4.429  15.544  0.00  0.00    +0.000 HD
ENDBRANCH  29  30
ENDBRANCH  28  29
ENDBRANCH  27  28
ENDBRANCH  26  27
ENDBRANCH   1  26
TORSDOF 9
ENDMDL
MODEL 7
REMARK VINA RESULT:      -8.1      4.013      6.112
REMARK  Name = 
REMARK  9 active torsions:
REMARK  status: ('A' for Active; 'I' for Inactive)
REMARK    1  A    between atoms: N_1  and  C_2
REMARK    2  A    between atoms: C_2  and  C_3
REMARK    3  A    between atoms: C_3  and  C_4
REMARK    4  A    between atoms: C_4  and  C_5
REMARK    5  A    between atoms: C_5  and  N_6
REMARK    6  A    between atoms: C_10  and  C_11
REMARK    7  A    between atoms: C_14  and  N_15
REMARK    8  A    between atoms: N_15  and  C_16
REMARK    9  A    between atoms: C_20  and  C_21
REMARK                            x       y       z     vdW  Elec       q    Type
REMARK                         _______ _______ _______ _____ _____    ______ ____
ROOT
ATOM      1  N   UNL     1       6.348   4.163  18.367  0.00  0.00    +0.000 N 
ATOM      2  C   UNL     1       5.172   4.015  19.089  0.00  0.00    +0.000 A 
ATOM      3  N   UNL     1       4.843   2.756  19.317  0.00  0.00    +0.000 NA
ATOM      4  C   UNL     1       3.704   2.566  19.988  0.00  0.00    +0.000 A 
ATOM      5  C   UNL     1       2.880   3.579  20.426  0.00  0.00    +0.000 A 
ATOM      6  C   UNL     1       3.306   4.873  20.173  0.00  0.00    +0.000 A 
ATOM      7  N   UNL     1       4.471   5.072  19.486  0.00  0.00    +0.000 NA
ATOM      8  H   UNL     1       6.856   3.291  18.499  0.00  0.00    +0.000 HD
ENDROOT
BRANCH   5   9
ATOM      9  C   UNL     1       1.635   3.196  21.104  0.00  0.00    +0.000 C 
ATOM     10  N   UNL     1       0.475   3.230  20.368  0.00  0.00    +0.000 N 
ATOM     11  O   UNL     1       1.639   2.843  22.271  0.00  0.00    +0.000 OA
ATOM     12  H   UNL     1       0.395   3.680  19.463  0.00  0.00    +0.000 HD
ATOM     13  H   UNL     1      -0.390   3.086  20.872  0.00  0.00    +0.000 HD
ENDBRANCH   5   9
BRANCH   6  14
ATOM     14  N   UNL     1       2.522   6.009  20.496  0.00  0.00    +0.000 N 
ATOM     15  H   UNL     1       2.248   6.061  21.473  0.00  0.00    +0.000 HD
BRANCH  14  16
ATOM     16  C   UNL     1       2.312   7.166  19.714  0.00  0.00    +0.000 A 
ATOM     17  C   UNL     1       2.818   7.266  18.413  0.00  0.00    +0.000 A 
ATOM     18  C   UNL     1       2.461   8.335  17.575  0.00  0.00    +0.000 A 
ATOM     19  C   UNL     1       1.589   9.320  18.035  0.00  0.00    +0.000 A 
ATOM     20  C   UNL     1       1.098   9.271  19.344  0.00  0.00    +0.000 A 
ATOM     21  C   UNL     1       1.487   8.205  20.174  0.00  0.00    +0.000 A 
BRANCH  20  22
ATOM     22  C   UNL     1       0.094  10.280  19.837  0.00  0.00    +0.000 C 
ATOM     23  F   UNL     1       0.641  11.504  20.088  0.00  0.00    +0.000 F 
ATOM     24  F   UNL     1      -0.903  10.505  18.934  0.00  0.00    +0.000 F 
ATOM     25  F   UNL     1      -0.524   9.909  20.993  0.00  0.00    +0.000 F 
ENDBRANCH  20  22
ENDBRANCH  14  16
ENDBRANCH   6  14
BRANCH   1  26
ATOM     26  C   UNL     1       7.108   5.365  18.617  0.00  0.00    +0.000 C 
BRANCH  26  27
ATOM     27  C   UNL     1       7.093   6.240  17.367  0.00  0.00    +0.000 C 
BRANCH  27  28
ATOM     28  C   UNL     1       6.974   5.417  16.077  0.00  0.00    +0.000 C 
BRANCH  28  29
ATOM     29  C   UNL     1       5.590   5.538  15.443  0.00  0.00    +0.000 C 
BRANCH  29  30
ATOM     30  N   UNL     1       5.156   6.931  15.404  0.00  0.00    +0.000 NA
ATOM     31  H   UNL     1       4.354   7.023  14.784  0.00  0.00    +0.000 HD
ATOM     32  H   UNL     1       5.900   7.506  15.010  0.00  0.00    +0.000 HD
ENDBRANCH  29  30
ENDBRANCH  28  29
ENDBRANCH  27  28
ENDBRANCH  26  27
ENDBRANCH   1  26
TORSDOF 9
ENDMDL
MODEL 8
REMARK VINA RESULT:      -8.0      3.910      6.534
REMARK  Name = 
REMARK  9 active torsions:
REMARK  status: ('A' for Active; 'I' for Inactive)
REMARK    1  A    between atoms: N_1  and  C_2
REMARK    2  A    between atoms: C_2  and  C_3
REMARK    3  A    between atoms: C_3  and  C_4
REMARK    4  A    between atoms: C_4  and  C_5
REMARK    5  A    between atoms: C_5  and  N_6
REMARK    6  A    between atoms: C_10  and  C_11
REMARK    7  A    between atoms: C_14  and  N_15
REMARK    8  A    between atoms: N_15  and  C_16
REMARK    9  A    between atoms: C_20  and  C_21
REMARK                            x       y       z     vdW  Elec       q    Type
REMARK                         _______ _______ _______ _____ _____    ______ ____
ROOT
ATOM      1  N   UNL     1       7.310   6.448  16.845  0.00  0.00    +0.000 N 
ATOM      2  C   UNL     1       6.156   5.711  17.071  0.00  0.00    +0.000 A 
ATOM      3  N   UNL     1       6.039   4.653  16.288  0.00  0.00    +0.000 NA
ATOM      4  C   UNL     1       4.930   3.927  16.454  0.00  0.00    +0.000 A 
ATOM      5  C   UNL     1       3.934   4.224  17.358  0.00  0.00    +0.000 A 
ATOM      6  C   UNL     1       4.141   5.333  18.162  0.00  0.00    +0.000 A 
ATOM      7  N   UNL     1       5.275   6.078  17.995  0.00  0.00    +0.000 NA
ATOM      8  H   UNL     1       7.955   5.805  16.390  0.00  0.00    +0.000 HD
ENDROOT
BRANCH   5   9
ATOM      9  C   UNL     1       2.753   3.351  17.376  0.00  0.00    +0.000 C 
ATOM     10  N   UNL     1       2.954   2.017  17.639  0.00  0.00    +0.000 N 
ATOM     11  O   UNL     1       1.637   3.801  17.182  0.00  0.00    +0.000 OA
ATOM     12  H   UNL     1       3.864   1.571  17.628  0.00  0.00    +0.000 HD
ATOM     13  H   UNL     1       2.157   1.404  17.526  0.00  0.00    +0.000 HD
ENDBRANCH   5   9
BRANCH   6  14
ATOM     14  N   UNL     1       3.167   5.801  19.079  0.00  0.00    +0.000 N 
ATOM     15  H   UNL     1       3.040   5.204  19.892  0.00  0.00    +0.000 HD
BRANCH  14  16
ATOM     16  C   UNL     1       2.568   7.079  19.129  0.00  0.00    +0.000 A 
ATOM     17  C   UNL     1       2.510   7.899  17.996  0.00  0.00    +0.000 A 
ATOM     18  C   UNL     1       1.763   9.088  17.999  0.00  0.00    +0.000 A 
ATOM     19  C   UNL     1       1.063   9.469  19.142  0.00  0.00    +0.000 A 
ATOM     20  C   UNL     1       1.133   8.693  20.303  0.00  0.00    +0.000 A 
ATOM     21  C   UNL     1       1.906   7.519  20.286  0.00  0.00    +0.000 A 
BRANCH  20  22
ATOM     22  C   UNL     1       0.323   9.042  21.524  0.00  0.00    +0.000 C 
ATOM     23  F   UNL     1      -0.220  10.293  21.468  0.00  0.00    +0.000 F 
ATOM     24  F   UNL     1      -0.729   8.196  21.709  0.00  0.00    +0.000 F 
ATOM     25  F   UNL     1       1.042   9.005  22.680  0.00  0.00    +0.000 F 
ENDBRANCH  20  22
ENDBRANCH  14  16
ENDBRANCH   6  14
BRANCH   1  26
ATOM     26  C   UNL     1       7.847   7.163  17.979  0.00  0.00    +0.000 C 
BRANCH  26  27
ATOM     27  C   UNL     1       7.952   8.645  17.636  0.00  0.00    +0.000 C 
BRANCH  27  28
ATOM     28  C   UNL     1       8.790   9.426  18.657  0.00  0.00    +0.000 C 
BRANCH  28  29
ATOM     29  C   UNL     1       9.174  10.813  18.146  0.00  0.00    +0.000 C 
BRANCH  29  30
ATOM     30  N   UNL     1      10.361  11.311  18.835  0.00  0.00    +0.000 NA
ATOM     31  H   UNL     1      10.143  11.481  19.814  0.00  0.00    +0.000 HD
ATOM     32  H   UNL     1      10.634  12.207  18.434  0.00  0.00    +0.000 HD
ENDBRANCH  29  30
ENDBRANCH  28  29
ENDBRANCH  27  28
ENDBRANCH  26  27
ENDBRANCH   1  26
TORSDOF 9
ENDMDL
MODEL 9
REMARK VINA RESULT:      -8.0      1.470      1.871
REMARK  Name = 
REMARK  9 active torsions:
REMARK  status: ('A' for Active; 'I' for Inactive)
REMARK    1  A    between atoms: N_1  and  C_2
REMARK    2  A    between atoms: C_2  and  C_3
REMARK    3  A    between atoms: C_3  and  C_4
REMARK    4  A    between atoms: C_4  and  C_5
REMARK    5  A    between atoms: C_5  and  N_6
REMARK    6  A    between atoms: C_10  and  C_11
REMARK    7  A    between atoms: C_14  and  N_15
REMARK    8  A    between atoms: N_15  and  C_16
REMARK    9  A    between atoms: C_20  and  C_21
REMARK                            x       y       z     vdW  Elec       q    Type
REMARK                         _______ _______ _______ _____ _____    ______ ____
ROOT
ATOM      1  N   UNL     1       6.521   4.189  13.449  0.00  0.00    +0.000 N 
ATOM      2  C   UNL     1       6.620   4.525  14.792  0.00  0.00    +0.000 A 
ATOM      3  N   UNL     1       7.475   5.502  15.035  0.00  0.00    +0.000 NA
ATOM      4  C   UNL     1       7.620   5.842  16.317  0.00  0.00    +0.000 A 
ATOM      5  C   UNL     1       6.956   5.239  17.363  0.00  0.00    +0.000 A 
ATOM      6  C   UNL     1       6.055   4.241  17.027  0.00  0.00    +0.000 A 
ATOM      7  N   UNL     1       5.905   3.890  15.714  0.00  0.00    +0.000 NA
ATOM      8  H   UNL     1       6.854   5.006  12.943  0.00  0.00    +0.000 HD
ENDROOT
BRANCH   5   9
ATOM      9  C   UNL     1       7.271   5.698  18.722  0.00  0.00    +0.000 C 
ATOM     10  N   UNL     1       8.106   6.782  18.847  0.00  0.00    +0.000 N 
ATOM     11  O   UNL     1       6.792   5.145  19.698  0.00  0.00    +0.000 OA
ATOM     12  H   UNL     1       8.663   7.157  18.088  0.00  0.00    +0.000 HD
ATOM     13  H   UNL     1       8.417   7.013  19.782  0.00  0.00    +0.000 HD
ENDBRANCH   5   9
BRANCH   6  14
ATOM     14  N   UNL     1       5.363   3.481  18.003  0.00  0.00    +0.000 N 
ATOM     15  H   UNL     1       5.964   2.902  18.583  0.00  0.00    +0.000 HD
BRANCH  14  16
ATOM     16  C   UNL     1       4.023   3.630  18.425  0.00  0.00    +0.000 A 
ATOM     17  C   UNL     1       2.994   3.870  17.507  0.00  0.00    +0.000 A 
ATOM     18  C   UNL     1       1.648   3.841  17.902  0.00  0.00    +0.000 A 
ATOM     19  C   UNL     1       1.316   3.568  19.228  0.00  0.00    +0.000 A 
ATOM     20  C   UNL     1       2.321   3.364  20.179  0.00  0.00    +0.000 A 
ATOM     21  C   UNL     1       3.664   3.422  19.766  0.00  0.00    +0.000 A 
BRANCH  20  22
ATOM     22  C   UNL     1       1.986   2.991  21.599  0.00  0.00    +0.000 C 
ATOM     23  F   UNL     1       2.237   3.993  22.491  0.00  0.00    +0.000 F 
ATOM     24  F   UNL     1       0.668   2.684  21.759  0.00  0.00    +0.000 F 
ATOM     25  F   UNL     1       2.681   1.912  22.054  0.00  0.00    +0.000 F 
ENDBRANCH  20  22
ENDBRANCH  14  16
ENDBRANCH   6  14
BRANCH   1  26
ATOM     26  C   UNL     1       5.249   3.665  13.010  0.00  0.00    +0.000 C 
BRANCH  26  27
ATOM     27  C   UNL     1       5.366   3.209  11.559  0.00  0.00    +0.000 C 
BRANCH  27  28
ATOM     28  C   UNL     1       5.338   1.681  11.420  0.00  0.00    +0.000 C 
BRANCH  28  29
ATOM     29  C   UNL     1       6.679   1.122  10.949  0.00  0.00    +0.000 C 
BRANCH  29  30
ATOM     30  N   UNL     1       7.757   2.070  11.208  0.00  0.00    +0.000 NA
ATOM     31  H   UNL     1       8.628   1.712  10.822  0.00  0.00    +0.000 HD
ATOM     32  H   UNL     1       7.896   2.158  12.214  0.00  0.00    +0.000 HD
ENDBRANCH  29  30
ENDBRANCH  28  29
ENDBRANCH  27  28
ENDBRANCH  26  27
ENDBRANCH   1  26
TORSDOF 9
ENDMDL
