MODEL 1
REMARK VINA RESULT:      -9.1      0.000      0.000
REMARK  Name = 
REMARK  9 active torsions:
REMARK  status: ('A' for Active; 'I' for Inactive)
REMARK    1  A    between atoms: C_1  and  C_2
REMARK    2  A    between atoms: C_5  and  O_6
REMARK    3  A    between atoms: O_6  and  C_7
REMARK    4  A    between atoms: C_7  and  C_8
REMARK    5  A    between atoms: C_8  and  N_9
REMARK    6  A    between atoms: C_10  and  C_11
REMARK    7  A    between atoms: N_15  and  C_16
REMARK    8  A    between atoms: C_16  and  C_17
REMARK    9  A    between atoms: C_32  and  C_33
REMARK                            x       y       z     vdW  Elec       q    Type
REMARK                         _______ _______ _______ _____ _____    ______ ____
ROOT
ATOM      1  N   UNL     1       4.376   4.979  17.870  0.00  0.00    +0.000 N 
ATOM      2  C   UNL     1       5.440   4.294  18.450  0.00  0.00    +0.000 A 
ATOM      3  N   UNL     1       4.998   3.263  19.145  0.00  0.00    +0.000 NA
ATOM      4  C   UNL     1       3.650   3.204  18.949  0.00  0.00    +0.000 A 
ATOM      5  C   UNL     1       2.733   2.261  19.432  0.00  0.00    +0.000 A 
ATOM      6  C   UNL     1       1.387   2.388  19.067  0.00  0.00    +0.000 A 
ATOM      7  C   UNL     1       0.973   3.435  18.247  0.00  0.00    +0.000 A 
ATOM      8  C   UNL     1       1.879   4.395  17.770  0.00  0.00    +0.000 A 
ATOM      9  C   UNL     1       3.225   4.247  18.144  0.00  0.00    +0.000 A 
ENDROOT
BRANCH   2  10
ATOM     10  C   UNL     1       6.908   4.613  18.340  0.00  0.00    +0.000 C 
ATOM     11  C   UNL     1       7.238   6.084  18.635  0.00  0.00    +0.000 C 
ATOM     12  C   UNL     1       7.385   6.720  17.275  0.00  0.00    +0.000 C 
ATOM     13  O   UNL     1       7.558   7.911  17.074  0.00  0.00    +0.000 OA
ATOM     14  N   UNL     1       7.396   5.717  16.325  0.00  0.00    +0.000 N 
ATOM     15  C   UNL     1       7.429   4.411  16.919  0.00  0.00    +0.000 C 
BRANCH  14  16
ATOM     16  C   UNL     1       7.593   5.925  14.903  0.00  0.00    +0.000 C 
BRANCH  16  17
ATOM     17  C   UNL     1       6.872   4.919  14.029  0.00  0.00    +0.000 A 
ATOM     18  C   UNL     1       5.603   4.417  14.364  0.00  0.00    +0.000 A 
ATOM     19  C   UNL     1       4.937   3.532  13.511  0.00  0.00    +0.000 A 
ATOM     20  C   UNL     1       5.527   3.163  12.310  0.00  0.00    +0.000 A 
ATOM     21  F   UNL     1       4.884   2.324  11.487  0.00  0.00    +0.000 F 
ATOM     22  C   UNL     1       6.771   3.659  11.945  0.00  0.00    +0.000 A 
ATOM     23  C   UNL     1       7.443   4.536  12.800  0.00  0.00    +0.000 A 
ENDBRANCH  16  17
ENDBRANCH  14  16
ENDBRANCH   2  10
BRANCH   1  24
ATOM     24  C   UNL     1       4.327   6.232  17.115  0.00  0.00    +0.000 C 
BRANCH  24  25
ATOM     25  C   UNL     1       3.892   7.483  17.862  0.00  0.00    +0.000 C 
BRANCH  25  26
ATOM     26  O   UNL     1       2.491   7.737  17.793  0.00  0.00    +0.000 OA
BRANCH  26  31
ATOM     27  C   UNL     1       0.074   9.267  22.732  0.00  0.00    +0.000 C 
ATOM     28  C   UNL     1       0.686   8.822  21.437  0.00  0.00    +0.000 A 
ATOM     29  C   UNL     1       1.255   7.557  21.313  0.00  0.00    +0.000 A 
ATOM     30  C   UNL     1       1.856   7.169  20.112  0.00  0.00    +0.000 A 
ATOM     31  C   UNL     1       1.905   8.037  19.009  0.00  0.00    +0.000 A 
ATOM     32  C   UNL     1       1.327   9.309  19.123  0.00  0.00    +0.000 A 
ATOM     33  C   UNL     1       1.268  10.252  17.956  0.00  0.00    +0.000 C 
ATOM     34  C   UNL     1       0.726   9.689  20.338  0.00  0.00    +0.000 A 
ENDBRANCH  26  31
ENDBRANCH  25  26
ENDBRANCH  24  25
ENDBRANCH   1  24
TORSDOF 7
ENDMDL
MODEL 2
REMARK VINA RESULT:      -8.6      0.646      1.487
REMARK  Name = 
REMARK  9 active torsions:
REMARK  status: ('A' for Active; 'I' for Inactive)
REMARK    1  A    between atoms: C_1  and  C_2
REMARK    2  A    between atoms: C_5  and  O_6
REMARK    3  A    between atoms: O_6  and  C_7
REMARK    4  A    between atoms: C_7  and  C_8
REMARK    5  A    between atoms: C_8  and  N_9
REMARK    6  A    between atoms: C_10  and  C_11
REMARK    7  A    between atoms: N_15  and  C_16
REMARK    8  A    between atoms: C_16  and  C_17
REMARK    9  A    between atoms: C_32  and  C_33
REMARK                            x       y       z     vdW  Elec       q    Type
REMARK                         _______ _______ _______ _____ _____    ______ ____
ROOT
ATOM      1  N   UNL     1       4.282   4.915  17.887  0.00  0.00    +0.000 N 
ATOM      2  C   UNL     1       5.353   4.270  18.502  0.00  0.00    +0.000 A 
ATOM      3  N   UNL     1       4.923   3.253  19.225  0.00  0.00    +0.000 NA
ATOM      4  C   UNL     1       3.579   3.161  19.014  0.00  0.00    +0.000 A 
ATOM      5  C   UNL     1       2.674   2.215  19.516  0.00  0.00    +0.000 A 
ATOM      6  C   UNL     1       1.331   2.302  19.131  0.00  0.00    +0.000 A 
ATOM      7  C   UNL     1       0.907   3.314  18.273  0.00  0.00    +0.000 A 
ATOM      8  C   UNL     1       1.799   4.277  17.776  0.00  0.00    +0.000 A 
ATOM      9  C   UNL     1       3.143   4.169  18.170  0.00  0.00    +0.000 A 
ENDROOT
BRANCH   2  10
ATOM     10  C   UNL     1       6.816   4.616  18.400  0.00  0.00    +0.000 C 
ATOM     11  C   UNL     1       7.120   6.087  18.722  0.00  0.00    +0.000 C 
ATOM     12  C   UNL     1       7.258   6.750  17.374  0.00  0.00    +0.000 C 
ATOM     13  O   UNL     1       7.411   7.947  17.195  0.00  0.00    +0.000 OA
ATOM     14  N   UNL     1       7.287   5.764  16.406  0.00  0.00    +0.000 N 
ATOM     15  C   UNL     1       7.341   4.449  16.976  0.00  0.00    +0.000 C 
BRANCH  14  16
ATOM     16  C   UNL     1       7.482   6.002  14.988  0.00  0.00    +0.000 C 
BRANCH  16  17
ATOM     17  C   UNL     1       6.828   4.966  14.096  0.00  0.00    +0.000 A 
ATOM     18  C   UNL     1       5.578   4.401  14.403  0.00  0.00    +0.000 A 
ATOM     19  C   UNL     1       4.974   3.489  13.533  0.00  0.00    +0.000 A 
ATOM     20  C   UNL     1       5.607   3.153  12.344  0.00  0.00    +0.000 A 
ATOM     21  F   UNL     1       5.022   2.287  11.506  0.00  0.00    +0.000 F 
ATOM     22  C   UNL     1       6.833   3.709  12.007  0.00  0.00    +0.000 A 
ATOM     23  C   UNL     1       7.443   4.615  12.879  0.00  0.00    +0.000 A 
ENDBRANCH  16  17
ENDBRANCH  14  16
ENDBRANCH   2  10
BRANCH   1  24
ATOM     24  C   UNL     1       4.218   6.141  17.092  0.00  0.00    +0.000 C 
BRANCH  24  25
ATOM     25  C   UNL     1       3.850   7.427  17.816  0.00  0.00    +0.000 C 
BRANCH  25  26
ATOM     26  O   UNL     1       2.809   7.270  18.776  0.00  0.00    +0.000 OA
BRANCH  26  31
ATOM     27  C   UNL     1      -0.854  11.600  19.414  0.00  0.00    +0.000 C 
ATOM     28  C   UNL     1       0.141  10.493  19.228  0.00  0.00    +0.000 A 
ATOM     29  C   UNL     1       0.822  10.341  18.022  0.00  0.00    +0.000 A 
ATOM     30  C   UNL     1       1.718   9.282  17.848  0.00  0.00    +0.000 A 
ATOM     31  C   UNL     1       1.952   8.350  18.872  0.00  0.00    +0.000 A 
ATOM     32  C   UNL     1       1.277   8.501  20.091  0.00  0.00    +0.000 A 
ATOM     33  C   UNL     1       1.546   7.593  21.255  0.00  0.00    +0.000 C 
ATOM     34  C   UNL     1       0.375   9.570  20.255  0.00  0.00    +0.000 A 
ENDBRANCH  26  31
ENDBRANCH  25  26
ENDBRANCH  24  25
ENDBRANCH   1  24
TORSDOF 7
ENDMDL
MODEL 3
REMARK VINA RESULT:      -8.5      1.325      2.012
REMARK  Name = 
REMARK  9 active torsions:
REMARK  status: ('A' for Active; 'I' for Inactive)
REMARK    1  A    between atoms: C_1  and  C_2
REMARK    2  A    between atoms: C_5  and  O_6
REMARK    3  A    between atoms: O_6  and  C_7
REMARK    4  A    between atoms: C_7  and  C_8
REMARK    5  A    between atoms: C_8  and  N_9
REMARK    6  A    between atoms: C_10  and  C_11
REMARK    7  A    between atoms: N_15  and  C_16
REMARK    8  A    between atoms: C_16  and  C_17
REMARK    9  A    between atoms: C_32  and  C_33
REMARK                            x       y       z     vdW  Elec       q    Type
REMARK                         _______ _______ _______ _____ _____    ______ ____
ROOT
ATOM      1  N   UNL     1       3.719   4.611  18.643  0.00  0.00    +0.000 N 
ATOM      2  C   UNL     1       4.955   4.040  18.936  0.00  0.00    +0.000 A 
ATOM      3  N   UNL     1       4.859   3.251  19.989  0.00  0.00    +0.000 NA
ATOM      4  C   UNL     1       3.541   3.220  20.339  0.00  0.00    +0.000 A 
ATOM      5  C   UNL     1       2.921   2.487  21.360  0.00  0.00    +0.000 A 
ATOM      6  C   UNL     1       1.532   2.591  21.511  0.00  0.00    +0.000 A 
ATOM      7  C   UNL     1       0.790   3.412  20.665  0.00  0.00    +0.000 A 
ATOM      8  C   UNL     1       1.401   4.163  19.649  0.00  0.00    +0.000 A 
ATOM      9  C   UNL     1       2.793   4.041  19.511  0.00  0.00    +0.000 A 
ENDROOT
BRANCH   2  10
ATOM     10  C   UNL     1       6.255   4.237  18.201  0.00  0.00    +0.000 C 
ATOM     11  C   UNL     1       6.863   5.634  18.398  0.00  0.00    +0.000 C 
ATOM     12  C   UNL     1       6.482   6.393  17.151  0.00  0.00    +0.000 C 
ATOM     13  O   UNL     1       6.699   7.577  16.959  0.00  0.00    +0.000 OA
ATOM     14  N   UNL     1       5.950   5.497  16.243  0.00  0.00    +0.000 N 
ATOM     15  C   UNL     1       6.073   4.139  16.688  0.00  0.00    +0.000 C 
BRANCH  14  16
ATOM     16  C   UNL     1       5.531   5.834  14.895  0.00  0.00    +0.000 C 
BRANCH  16  17
ATOM     17  C   UNL     1       6.034   4.873  13.837  0.00  0.00    +0.000 A 
ATOM     18  C   UNL     1       5.217   3.862  13.301  0.00  0.00    +0.000 A 
ATOM     19  C   UNL     1       5.690   3.025  12.287  0.00  0.00    +0.000 A 
ATOM     20  C   UNL     1       6.973   3.207  11.789  0.00  0.00    +0.000 A 
ATOM     21  F   UNL     1       7.421   2.412  10.809  0.00  0.00    +0.000 F 
ATOM     22  C   UNL     1       7.794   4.209  12.287  0.00  0.00    +0.000 A 
ATOM     23  C   UNL     1       7.327   5.042  13.307  0.00  0.00    +0.000 A 
ENDBRANCH  16  17
ENDBRANCH  14  16
ENDBRANCH   2  10
BRANCH   1  24
ATOM     24  C   UNL     1       3.328   5.626  17.664  0.00  0.00    +0.000 C 
BRANCH  24  25
ATOM     25  C   UNL     1       3.338   7.077  18.118  0.00  0.00    +0.000 C 
BRANCH  25  26
ATOM     26  O   UNL     1       2.502   7.335  19.242  0.00  0.00    +0.000 OA
BRANCH  26  31
ATOM     27  C   UNL     1      -0.801  11.986  19.047  0.00  0.00    +0.000 C 
ATOM     28  C   UNL     1       0.102  10.789  19.077  0.00  0.00    +0.000 A 
ATOM     29  C   UNL     1       0.831  10.416  17.950  0.00  0.00    +0.000 A 
ATOM     30  C   UNL     1       1.641   9.276  17.980  0.00  0.00    +0.000 A 
ATOM     31  C   UNL     1       1.737   8.482  19.134  0.00  0.00    +0.000 A 
ATOM     32  C   UNL     1       1.013   8.856  20.275  0.00  0.00    +0.000 A 
ATOM     33  C   UNL     1       1.139   8.101  21.567  0.00  0.00    +0.000 C 
ATOM     34  C   UNL     1       0.200  10.004  20.233  0.00  0.00    +0.000 A 
ENDBRANCH  26  31
ENDBRANCH  25  26
ENDBRANCH  24  25
ENDBRANCH   1  24
TORSDOF 7
ENDMDL
MODEL 4
REMARK VINA RESULT:      -8.5      5.988     11.058
REMARK  Name = 
REMARK  9 active torsions:
REMARK  status: ('A' for Active; 'I' for Inactive)
REMARK    1  A    between atoms: C_1  and  C_2
REMARK    2  A    between atoms: C_5  and  O_6
REMARK    3  A    between atoms: O_6  and  C_7
REMARK    4  A    between atoms: C_7  and  C_8
REMARK    5  A    between atoms: C_8  and  N_9
REMARK    6  A    between atoms: C_10  and  C_11
REMARK    7  A    between atoms: N_15  and  C_16
REMARK    8  A    between atoms: C_16  and  C_17
REMARK    9  A    between atoms: C_32  and  C_33
REMARK                            x       y       z     vdW  Elec       q    Type
REMARK                         _______ _______ _______ _____ _____    ______ ____
ROOT
ATOM      1  N   UNL     1       0.215  10.870  18.736  0.00  0.00    +0.000 N 
ATOM      2  C   UNL     1      -1.067  11.040  18.219  0.00  0.00    +0.000 A 
ATOM      3  N   UNL     1      -1.382  12.321  18.185  0.00  0.00    +0.000 NA
ATOM      4  C   UNL     1      -0.277  13.010  18.588  0.00  0.00    +0.000 A 
ATOM      5  C   UNL     1      -0.089  14.396  18.675  0.00  0.00    +0.000 A 
ATOM      6  C   UNL     1       1.159  14.879  19.089  0.00  0.00    +0.000 A 
ATOM      7  C   UNL     1       2.186  13.995  19.413  0.00  0.00    +0.000 A 
ATOM      8  C   UNL     1       2.006  12.604  19.346  0.00  0.00    +0.000 A 
ATOM      9  C   UNL     1       0.749  12.141  18.924  0.00  0.00    +0.000 A 
ENDROOT
BRANCH   2  10
ATOM     10  C   UNL     1      -2.013   9.971  17.737  0.00  0.00    +0.000 C 
ATOM     11  C   UNL     1      -2.080   9.859  16.206  0.00  0.00    +0.000 C 
ATOM     12  C   UNL     1      -3.334  10.608  15.826  0.00  0.00    +0.000 C 
ATOM     13  O   UNL     1      -3.697  10.830  14.683  0.00  0.00    +0.000 OA
ATOM     14  N   UNL     1      -4.036  10.896  16.982  0.00  0.00    +0.000 N 
ATOM     15  C   UNL     1      -3.456  10.269  18.135  0.00  0.00    +0.000 C 
BRANCH  14  16
ATOM     16  C   UNL     1      -5.332  11.545  17.023  0.00  0.00    +0.000 C 
BRANCH  16  17
ATOM     17  C   UNL     1      -5.909  11.677  18.418  0.00  0.00    +0.000 A 
ATOM     18  C   UNL     1      -6.934  10.834  18.882  0.00  0.00    +0.000 A 
ATOM     19  C   UNL     1      -7.409  10.943  20.192  0.00  0.00    +0.000 A 
ATOM     20  C   UNL     1      -6.848  11.880  21.050  0.00  0.00    +0.000 A 
ATOM     21  F   UNL     1      -7.296  11.976  22.309  0.00  0.00    +0.000 F 
ATOM     22  C   UNL     1      -5.823  12.712  20.623  0.00  0.00    +0.000 A 
ATOM     23  C   UNL     1      -5.352  12.611  19.311  0.00  0.00    +0.000 A 
ENDBRANCH  16  17
ENDBRANCH  14  16
ENDBRANCH   2  10
BRANCH   1  24
ATOM     24  C   UNL     1       0.968   9.664  19.081  0.00  0.00    +0.000 C 
BRANCH  24  25
ATOM     25  C   UNL     1       1.595   8.879  17.939  0.00  0.00    +0.000 C 
BRANCH  25  26
ATOM     26  O   UNL     1       2.826   8.249  18.280  0.00  0.00    +0.000 OA
BRANCH  26  31
ATOM     27  C   UNL     1       2.967   2.575  17.679  0.00  0.00    +0.000 C 
ATOM     28  C   UNL     1       2.917   4.060  17.883  0.00  0.00    +0.000 A 
ATOM     29  C   UNL     1       1.830   4.657  18.517  0.00  0.00    +0.000 A 
ATOM     30  C   UNL     1       1.778   6.047  18.667  0.00  0.00    +0.000 A 
ATOM     31  C   UNL     1       2.808   6.870  18.185  0.00  0.00    +0.000 A 
ATOM     32  C   UNL     1       3.909   6.276  17.554  0.00  0.00    +0.000 A 
ATOM     33  C   UNL     1       5.084   7.090  17.093  0.00  0.00    +0.000 C 
ATOM     34  C   UNL     1       3.950   4.876  17.406  0.00  0.00    +0.000 A 
ENDBRANCH  26  31
ENDBRANCH  25  26
ENDBRANCH  24  25
ENDBRANCH   1  24
TORSDOF 7
ENDMDL
MODEL 5
REMARK VINA RESULT:      -8.4      5.506     10.847
REMARK  Name = 
REMARK  9 active torsions:
REMARK  status: ('A' for Active; 'I' for Inactive)
REMARK    1  A    between atoms: C_1  and  C_2
REMARK    2  A    between atoms: C_5  and  O_6
REMARK    3  A    between atoms: O_6  and  C_7
REMARK    4  A    between atoms: C_7  and  C_8
REMARK    5  A    between atoms: C_8  and  N_9
REMARK    6  A    between atoms: C_10  and  C_11
REMARK    7  A    between atoms: N_15  and  C_16
REMARK    8  A    between atoms: C_16  and  C_17
REMARK    9  A    between atoms: C_32  and  C_33
REMARK                            x       y       z     vdW  Elec       q    Type
REMARK                         _______ _______ _______ _____ _____    ______ ____
ROOT
ATOM      1  N   UNL     1      -0.213  10.308  18.263  0.00  0.00    +0.000 N 
ATOM      2  C   UNL     1      -0.436  11.101  19.385  0.00  0.00    +0.000 A 
ATOM      3  N   UNL     1      -1.637  11.645  19.333  0.00  0.00    +0.000 NA
ATOM      4  C   UNL     1      -2.250  11.139  18.225  0.00  0.00    +0.000 A 
ATOM      5  C   UNL     1      -3.553  11.368  17.760  0.00  0.00    +0.000 A 
ATOM      6  C   UNL     1      -3.978  10.703  16.604  0.00  0.00    +0.000 A 
ATOM      7  C   UNL     1      -3.118   9.838  15.930  0.00  0.00    +0.000 A 
ATOM      8  C   UNL     1      -1.807   9.613  16.375  0.00  0.00    +0.000 A 
ATOM      9  C   UNL     1      -1.402  10.285  17.540  0.00  0.00    +0.000 A 
ENDROOT
BRANCH   2  10
ATOM     10  C   UNL     1       0.502  11.345  20.539  0.00  0.00    +0.000 C 
ATOM     11  C   UNL     1       0.451  10.246  21.611  0.00  0.00    +0.000 C 
ATOM     12  C   UNL     1      -0.427  10.816  22.698  0.00  0.00    +0.000 C 
ATOM     13  O   UNL     1      -0.792  10.211  23.692  0.00  0.00    +0.000 OA
ATOM     14  N   UNL     1      -0.648  12.152  22.422  0.00  0.00    +0.000 N 
ATOM     15  C   UNL     1       0.136  12.610  21.311  0.00  0.00    +0.000 C 
BRANCH  14  16
ATOM     16  C   UNL     1      -1.388  13.062  23.275  0.00  0.00    +0.000 C 
BRANCH  16  17
ATOM     17  C   UNL     1      -2.893  12.943  23.141  0.00  0.00    +0.000 A 
ATOM     18  C   UNL     1      -3.732  12.819  24.262  0.00  0.00    +0.000 A 
ATOM     19  C   UNL     1      -5.120  12.767  24.112  0.00  0.00    +0.000 A 
ATOM     20  C   UNL     1      -5.677  12.860  22.844  0.00  0.00    +0.000 A 
ATOM     21  F   UNL     1      -7.009  12.821  22.702  0.00  0.00    +0.000 F 
ATOM     22  C   UNL     1      -4.873  13.002  21.722  0.00  0.00    +0.000 A 
ATOM     23  C   UNL     1      -3.484  13.045  21.868  0.00  0.00    +0.000 A 
ENDBRANCH  16  17
ENDBRANCH  14  16
ENDBRANCH   2  10
BRANCH   1  24
ATOM     24  C   UNL     1       0.980   9.597  17.800  0.00  0.00    +0.000 C 
BRANCH  24  25
ATOM     25  C   UNL     1       1.652   8.646  18.778  0.00  0.00    +0.000 C 
BRANCH  25  26
ATOM     26  O   UNL     1       1.754   7.307  18.301  0.00  0.00    +0.000 OA
BRANCH  26  31
ATOM     27  C   UNL     1       7.049   5.176  18.360  0.00  0.00    +0.000 C 
ATOM     28  C   UNL     1       5.655   5.729  18.297  0.00  0.00    +0.000 A 
ATOM     29  C   UNL     1       5.305   6.672  17.333  0.00  0.00    +0.000 A 
ATOM     30  C   UNL     1       4.013   7.208  17.309  0.00  0.00    +0.000 A 
ATOM     31  C   UNL     1       3.045   6.817  18.248  0.00  0.00    +0.000 A 
ATOM     32  C   UNL     1       3.388   5.862  19.216  0.00  0.00    +0.000 A 
ATOM     33  C   UNL     1       2.377   5.337  20.193  0.00  0.00    +0.000 C 
ATOM     34  C   UNL     1       4.692   5.331  19.232  0.00  0.00    +0.000 A 
ENDBRANCH  26  31
ENDBRANCH  25  26
ENDBRANCH  24  25
ENDBRANCH   1  24
TORSDOF 7
ENDMDL
MODEL 6
REMARK VINA RESULT:      -8.3      1.287      1.605
REMARK  Name = 
REMARK  9 active torsions:
REMARK  status: ('A' for Active; 'I' for Inactive)
REMARK    1  A    between atoms: C_1  and  C_2
REMARK    2  A    between atoms: C_5  and  O_6
REMARK    3  A    between atoms: O_6  and  C_7
REMARK    4  A    between atoms: C_7  and  C_8
REMARK    5  A    between atoms: C_8  and  N_9
REMARK    6  A    between atoms: C_10  and  C_11
REMARK    7  A    between atoms: N_15  and  C_16
REMARK    8  A    between atoms: C_16  and  C_17
REMARK    9  A    between atoms: C_32  and  C_33
REMARK                            x       y       z     vdW  Elec       q    Type
REMARK                         _______ _______ _______ _____ _____    ______ ____
ROOT
ATOM      1  N   UNL     1       3.931   4.909  18.933  0.00  0.00    +0.000 N 
ATOM      2  C   UNL     1       5.079   4.121  18.992  0.00  0.00    +0.000 A 
ATOM      3  N   UNL     1       4.914   3.133  19.850  0.00  0.00    +0.000 NA
ATOM      4  C   UNL     1       3.626   3.204  20.290  0.00  0.00    +0.000 A 
ATOM      5  C   UNL     1       2.951   2.349  21.173  0.00  0.00    +0.000 A 
ATOM      6  C   UNL     1       1.603   2.605  21.454  0.00  0.00    +0.000 A 
ATOM      7  C   UNL     1       0.954   3.692  20.873  0.00  0.00    +0.000 A 
ATOM      8  C   UNL     1       1.623   4.565  20.001  0.00  0.00    +0.000 A 
ATOM      9  C   UNL     1       2.973   4.288  19.727  0.00  0.00    +0.000 A 
ENDROOT
BRANCH   2  10
ATOM     10  C   UNL     1       6.357   4.301  18.215  0.00  0.00    +0.000 C 
ATOM     11  C   UNL     1       7.006   5.679  18.414  0.00  0.00    +0.000 C 
ATOM     12  C   UNL     1       6.599   6.469  17.195  0.00  0.00    +0.000 C 
ATOM     13  O   UNL     1       6.838   7.652  17.016  0.00  0.00    +0.000 OA
ATOM     14  N   UNL     1       6.014   5.603  16.291  0.00  0.00    +0.000 N 
ATOM     15  C   UNL     1       6.120   4.235  16.708  0.00  0.00    +0.000 C 
BRANCH  14  16
ATOM     16  C   UNL     1       5.557   5.975  14.965  0.00  0.00    +0.000 C 
BRANCH  16  17
ATOM     17  C   UNL     1       6.035   5.046  13.867  0.00  0.00    +0.000 A 
ATOM     18  C   UNL     1       7.340   5.115  13.349  0.00  0.00    +0.000 A 
ATOM     19  C   UNL     1       7.770   4.210  12.376  0.00  0.00    +0.000 A 
ATOM     20  C   UNL     1       6.906   3.218  11.931  0.00  0.00    +0.000 A 
ATOM     21  F   UNL     1       7.323   2.344  11.006  0.00  0.00    +0.000 F 
ATOM     22  C   UNL     1       5.619   3.116  12.439  0.00  0.00    +0.000 A 
ATOM     23  C   UNL     1       5.183   4.025  13.406  0.00  0.00    +0.000 A 
ENDBRANCH  16  17
ENDBRANCH  14  16
ENDBRANCH   2  10
BRANCH   1  24
ATOM     24  C   UNL     1       3.653   6.165  18.236  0.00  0.00    +0.000 C 
BRANCH  24  25
ATOM     25  C   UNL     1       3.197   7.346  19.078  0.00  0.00    +0.000 C 
BRANCH  25  26
ATOM     26  O   UNL     1       1.889   7.811  18.756  0.00  0.00    +0.000 OA
BRANCH  26  31
ATOM     27  C   UNL     1      -0.762  10.835  22.807  0.00  0.00    +0.000 C 
ATOM     28  C   UNL     1      -0.084  10.000  21.761  0.00  0.00    +0.000 A 
ATOM     29  C   UNL     1       0.635   8.860  22.114  0.00  0.00    +0.000 A 
ATOM     30  C   UNL     1       1.295   8.112  21.135  0.00  0.00    +0.000 A 
ATOM     31  C   UNL     1       1.254   8.486  19.782  0.00  0.00    +0.000 A 
ATOM     32  C   UNL     1       0.526   9.627  19.418  0.00  0.00    +0.000 A 
ATOM     33  C   UNL     1       0.370  10.034  17.981  0.00  0.00    +0.000 C 
ATOM     34  C   UNL     1      -0.133  10.375  20.413  0.00  0.00    +0.000 A 
ENDBRANCH  26  31
ENDBRANCH  25  26
ENDBRANCH  24  25
ENDBRANCH   1  24
TORSDOF 7
ENDMDL
MODEL 7
REMARK VINA RESULT:      -8.3      5.971     10.941
REMARK  Name = 
REMARK  9 active torsions:
REMARK  status: ('A' for Active; 'I' for Inactive)
REMARK    1  A    between atoms: C_1  and  C_2
REMARK    2  A    between atoms: C_5  and  O_6
REMARK    3  A    between atoms: O_6  and  C_7
REMARK    4  A    between atoms: C_7  and  C_8
REMARK    5  A    between atoms: C_8  and  N_9
REMARK    6  A    between atoms: C_10  and  C_11
REMARK    7  A    between atoms: N_15  and  C_16
REMARK    8  A    between atoms: C_16  and  C_17
REMARK    9  A    between atoms: C_32  and  C_33
REMARK                            x       y       z     vdW  Elec       q    Type
REMARK                         _______ _______ _______ _____ _____    ______ ____
ROOT
ATOM      1  N   UNL     1       0.531  11.066  18.373  0.00  0.00    +0.000 N 
ATOM      2  C   UNL     1      -0.861  11.072  18.397  0.00  0.00    +0.000 A 
ATOM      3  N   UNL     1      -1.306  12.180  18.958  0.00  0.00    +0.000 NA
ATOM      4  C   UNL     1      -0.215  12.954  19.221  0.00  0.00    +0.000 A 
ATOM      5  C   UNL     1      -0.164  14.244  19.768  0.00  0.00    +0.000 A 
ATOM      6  C   UNL     1       1.084  14.861  19.915  0.00  0.00    +0.000 A 
ATOM      7  C   UNL     1       2.248  14.199  19.531  0.00  0.00    +0.000 A 
ATOM      8  C   UNL     1       2.213  12.901  18.998  0.00  0.00    +0.000 A 
ATOM      9  C   UNL     1       0.950  12.303  18.853  0.00  0.00    +0.000 A 
ENDROOT
BRANCH   2  10
ATOM     10  C   UNL     1      -1.794  10.013  17.870  0.00  0.00    +0.000 C 
ATOM     11  C   UNL     1      -1.829   9.937  16.336  0.00  0.00    +0.000 C 
ATOM     12  C   UNL     1      -3.076  10.691  15.947  0.00  0.00    +0.000 C 
ATOM     13  O   UNL     1      -3.415  10.940  14.802  0.00  0.00    +0.000 OA
ATOM     14  N   UNL     1      -3.803  10.950  17.093  0.00  0.00    +0.000 N 
ATOM     15  C   UNL     1      -3.246  10.298  18.244  0.00  0.00    +0.000 C 
BRANCH  14  16
ATOM     16  C   UNL     1      -5.102  11.595  17.122  0.00  0.00    +0.000 C 
BRANCH  16  17
ATOM     17  C   UNL     1      -5.727  11.657  18.502  0.00  0.00    +0.000 A 
ATOM     18  C   UNL     1      -5.336  12.614  19.454  0.00  0.00    +0.000 A 
ATOM     19  C   UNL     1      -5.968  12.682  20.698  0.00  0.00    +0.000 A 
ATOM     20  C   UNL     1      -7.008  11.809  20.989  0.00  0.00    +0.000 A 
ATOM     21  F   UNL     1      -7.621  11.882  22.177  0.00  0.00    +0.000 F 
ATOM     22  C   UNL     1      -7.426  10.866  20.060  0.00  0.00    +0.000 A 
ATOM     23  C   UNL     1      -6.790  10.790  18.818  0.00  0.00    +0.000 A 
ENDBRANCH  16  17
ENDBRANCH  14  16
ENDBRANCH   2  10
BRANCH   1  24
ATOM     24  C   UNL     1       1.489  10.035  17.971  0.00  0.00    +0.000 C 
BRANCH  24  25
ATOM     25  C   UNL     1       1.619   8.812  18.866  0.00  0.00    +0.000 C 
BRANCH  25  26
ATOM     26  O   UNL     1       2.568   7.857  18.401  0.00  0.00    +0.000 OA
BRANCH  26  31
ATOM     27  C   UNL     1       2.670   2.791  21.029  0.00  0.00    +0.000 C 
ATOM     28  C   UNL     1       2.649   4.144  20.381  0.00  0.00    +0.000 A 
ATOM     29  C   UNL     1       1.867   5.173  20.902  0.00  0.00    +0.000 A 
ATOM     30  C   UNL     1       1.827   6.418  20.266  0.00  0.00    +0.000 A 
ATOM     31  C   UNL     1       2.564   6.662  19.097  0.00  0.00    +0.000 A 
ATOM     32  C   UNL     1       3.360   5.635  18.572  0.00  0.00    +0.000 A 
ATOM     33  C   UNL     1       4.239   5.856  17.375  0.00  0.00    +0.000 C 
ATOM     34  C   UNL     1       3.391   4.385  19.218  0.00  0.00    +0.000 A 
ENDBRANCH  26  31
ENDBRANCH  25  26
ENDBRANCH  24  25
ENDBRANCH   1  24
TORSDOF 7
ENDMDL
MODEL 8
REMARK VINA RESULT:      -8.2      1.642      2.598
REMARK  Name = 
REMARK  9 active torsions:
REMARK  status: ('A' for Active; 'I' for Inactive)
REMARK    1  A    between atoms: C_1  and  C_2
REMARK    2  A    between atoms: C_5  and  O_6
REMARK    3  A    between atoms: O_6  and  C_7
REMARK    4  A    between atoms: C_7  and  C_8
REMARK    5  A    between atoms: C_8  and  N_9
REMARK    6  A    between atoms: C_10  and  C_11
REMARK    7  A    between atoms: N_15  and  C_16
REMARK    8  A    between atoms: C_16  and  C_17
REMARK    9  A    between atoms: C_32  and  C_33
REMARK                            x       y       z     vdW  Elec       q    Type
REMARK                         _______ _______ _______ _____ _____    ______ ____
ROOT
ATOM      1  N   UNL     1       2.795   5.228  19.592  0.00  0.00    +0.000 N 
ATOM      2  C   UNL     1       3.865   5.233  18.700  0.00  0.00    +0.000 A 
ATOM      3  N   UNL     1       3.940   4.078  18.066  0.00  0.00    +0.000 NA
ATOM      4  C   UNL     1       2.864   3.340  18.462  0.00  0.00    +0.000 A 
ATOM      5  C   UNL     1       2.470   2.064  18.037  0.00  0.00    +0.000 A 
ATOM      6  C   UNL     1       1.296   1.515  18.567  0.00  0.00    +0.000 A 
ATOM      7  C   UNL     1       0.544   2.222  19.502  0.00  0.00    +0.000 A 
ATOM      8  C   UNL     1       0.937   3.494  19.949  0.00  0.00    +0.000 A 
ATOM      9  C   UNL     1       2.114   4.029  19.401  0.00  0.00    +0.000 A 
ENDROOT
BRANCH   2  10
ATOM     10  C   UNL     1       4.834   6.355  18.434  0.00  0.00    +0.000 C 
ATOM     11  C   UNL     1       4.417   7.259  17.264  0.00  0.00    +0.000 C 
ATOM     12  C   UNL     1       5.244   6.775  16.098  0.00  0.00    +0.000 C 
ATOM     13  O   UNL     1       5.141   7.178  14.952  0.00  0.00    +0.000 OA
ATOM     14  N   UNL     1       6.193   5.891  16.576  0.00  0.00    +0.000 N 
ATOM     15  C   UNL     1       6.204   5.834  18.009  0.00  0.00    +0.000 C 
BRANCH  14  16
ATOM     16  C   UNL     1       7.224   5.267  15.769  0.00  0.00    +0.000 C 
BRANCH  16  17
ATOM     17  C   UNL     1       6.694   4.549  14.543  0.00  0.00    +0.000 A 
ATOM     18  C   UNL     1       5.508   3.796  14.576  0.00  0.00    +0.000 A 
ATOM     19  C   UNL     1       5.015   3.191  13.417  0.00  0.00    +0.000 A 
ATOM     20  C   UNL     1       5.694   3.352  12.216  0.00  0.00    +0.000 A 
ATOM     21  F   UNL     1       5.214   2.781  11.103  0.00  0.00    +0.000 F 
ATOM     22  C   UNL     1       6.857   4.107  12.152  0.00  0.00    +0.000 A 
ATOM     23  C   UNL     1       7.357   4.706  13.311  0.00  0.00    +0.000 A 
ENDBRANCH  16  17
ENDBRANCH  14  16
ENDBRANCH   2  10
BRANCH   1  24
ATOM     24  C   UNL     1       2.364   6.203  20.594  0.00  0.00    +0.000 C 
BRANCH  24  25
ATOM     25  C   UNL     1       1.845   7.541  20.091  0.00  0.00    +0.000 C 
BRANCH  25  26
ATOM     26  O   UNL     1       1.572   8.479  21.128  0.00  0.00    +0.000 OA
BRANCH  26  31
ATOM     27  C   UNL     1      -2.055  12.696  19.846  0.00  0.00    +0.000 C 
ATOM     28  C   UNL     1      -1.067  11.612  20.160  0.00  0.00    +0.000 A 
ATOM     29  C   UNL     1      -0.228  11.103  19.172  0.00  0.00    +0.000 A 
ATOM     30  C   UNL     1       0.662  10.066  19.468  0.00  0.00    +0.000 A 
ATOM     31  C   UNL     1       0.732   9.512  20.757  0.00  0.00    +0.000 A 
ATOM     32  C   UNL     1      -0.104  10.025  21.759  0.00  0.00    +0.000 A 
ATOM     33  C   UNL     1      -0.018   9.539  23.177  0.00  0.00    +0.000 C 
ATOM     34  C   UNL     1      -0.997  11.068  21.449  0.00  0.00    +0.000 A 
ENDBRANCH  26  31
ENDBRANCH  25  26
ENDBRANCH  24  25
ENDBRANCH   1  24
TORSDOF 7
ENDMDL
MODEL 9
REMARK VINA RESULT:      -8.2      1.385      2.037
REMARK  Name = 
REMARK  9 active torsions:
REMARK  status: ('A' for Active; 'I' for Inactive)
REMARK    1  A    between atoms: C_1  and  C_2
REMARK    2  A    between atoms: C_5  and  O_6
REMARK    3  A    between atoms: O_6  and  C_7
REMARK    4  A    between atoms: C_7  and  C_8
REMARK    5  A    between atoms: C_8  and  N_9
REMARK    6  A    between atoms: C_10  and  C_11
REMARK    7  A    between atoms: N_15  and  C_16
REMARK    8  A    between atoms: C_16  and  C_17
REMARK    9  A    between atoms: C_32  and  C_33
REMARK                            x       y       z     vdW  Elec       q    Type
REMARK                         _______ _______ _______ _____ _____    ______ ____
ROOT
ATOM      1  N   UNL     1       2.868   5.225  19.495  0.00  0.00    +0.000 N 
ATOM      2  C   UNL     1       4.048   5.133  18.760  0.00  0.00    +0.000 A 
ATOM      3  N   UNL     1       4.208   3.907  18.299  0.00  0.00    +0.000 NA
ATOM      4  C   UNL     1       3.089   3.208  18.644  0.00  0.00    +0.000 A 
ATOM      5  C   UNL     1       2.755   1.880  18.342  0.00  0.00    +0.000 A 
ATOM      6  C   UNL     1       1.521   1.384  18.779  0.00  0.00    +0.000 A 
ATOM      7  C   UNL     1       0.651   2.194  19.505  0.00  0.00    +0.000 A 
ATOM      8  C   UNL     1       0.980   3.520  19.828  0.00  0.00    +0.000 A 
ATOM      9  C   UNL     1       2.220   4.000  19.375  0.00  0.00    +0.000 A 
ENDROOT
BRANCH   2  10
ATOM     10  C   UNL     1       5.044   6.228  18.480  0.00  0.00    +0.000 C 
ATOM     11  C   UNL     1       4.607   7.178  17.353  0.00  0.00    +0.000 C 
ATOM     12  C   UNL     1       5.363   6.698  16.139  0.00  0.00    +0.000 C 
ATOM     13  O   UNL     1       5.222   7.136  15.009  0.00  0.00    +0.000 OA
ATOM     14  N   UNL     1       6.300   5.769  16.549  0.00  0.00    +0.000 N 
ATOM     15  C   UNL     1       6.374   5.672  17.978  0.00  0.00    +0.000 C 
BRANCH  14  16
ATOM     16  C   UNL     1       7.270   5.132  15.679  0.00  0.00    +0.000 C 
BRANCH  16  17
ATOM     17  C   UNL     1       6.659   4.451  14.471  0.00  0.00    +0.000 A 
ATOM     18  C   UNL     1       5.398   3.833  14.524  0.00  0.00    +0.000 A 
ATOM     19  C   UNL     1       4.835   3.260  13.380  0.00  0.00    +0.000 A 
ATOM     20  C   UNL     1       5.520   3.321  12.174  0.00  0.00    +0.000 A 
ATOM     21  F   UNL     1       4.975   2.782  11.076  0.00  0.00    +0.000 F 
ATOM     22  C   UNL     1       6.759   3.941  12.089  0.00  0.00    +0.000 A 
ATOM     23  C   UNL     1       7.328   4.507  13.233  0.00  0.00    +0.000 A 
ENDBRANCH  16  17
ENDBRANCH  14  16
ENDBRANCH   2  10
BRANCH   1  24
ATOM     24  C   UNL     1       2.308   6.315  20.294  0.00  0.00    +0.000 C 
BRANCH  24  25
ATOM     25  C   UNL     1       1.543   7.403  19.556  0.00  0.00    +0.000 C 
BRANCH  25  26
ATOM     26  O   UNL     1       1.909   8.725  19.938  0.00  0.00    +0.000 OA
BRANCH  26  31
ATOM     27  C   UNL     1      -1.808  11.485  23.277  0.00  0.00    +0.000 C 
ATOM     28  C   UNL     1      -0.846  10.718  22.418  0.00  0.00    +0.000 A 
ATOM     29  C   UNL     1      -0.040   9.721  22.964  0.00  0.00    +0.000 A 
ATOM     30  C   UNL     1       0.879   9.039  22.161  0.00  0.00    +0.000 A 
ATOM     31  C   UNL     1       1.017   9.340  20.796  0.00  0.00    +0.000 A 
ATOM     32  C   UNL     1       0.204  10.337  20.238  0.00  0.00    +0.000 A 
ATOM     33  C   UNL     1       0.239  10.647  18.769  0.00  0.00    +0.000 C 
ATOM     34  C   UNL     1      -0.717  11.018  21.056  0.00  0.00    +0.000 A 
ENDBRANCH  26  31
ENDBRANCH  25  26
ENDBRANCH  24  25
ENDBRANCH   1  24
TORSDOF 7
ENDMDL
