MODEL 1
REMARK VINA RESULT:      -6.7      0.000      0.000
REMARK  Name = 
REMARK  8 active torsions:
REMARK  status: ('A' for Active; 'I' for Inactive)
REMARK    1  A    between atoms: C_1  and  C_2
REMARK    2  A    between atoms: C_2  and  O_3
REMARK    3  A    between atoms: O_3  and  C_4
REMARK    4  A    between atoms: C_7  and  C_8
REMARK    5  A    between atoms: C_10  and  C_11
REMARK    6  A    between atoms: C_12  and  C_13
REMARK    7  A    between atoms: C_13  and  C_14
REMARK    8  A    between atoms: N_16  and  O_17
REMARK                            x       y       z     vdW  Elec       q    Type
REMARK                         _______ _______ _______ _____ _____    ______ ____
ROOT
ATOM      1  C   UNL     1       4.653   4.564  18.740  0.00  0.00    +0.000 A 
ATOM      2  N   UNL     1       4.626   3.307  18.328  0.00  0.00    +0.000 NA
ATOM      3  C   UNL     1       3.513   2.718  18.897  0.00  0.00    +0.000 A 
ATOM      4  C   UNL     1       3.234   1.296  18.585  0.00  0.00    +0.000 C 
ATOM      5  C   UNL     1       2.840   3.625  19.706  0.00  0.00    +0.000 A 
ATOM      6  N   UNL     1       3.595   4.775  19.597  0.00  0.00    +0.000 N 
ENDROOT
BRANCH   1  10
ATOM      7  C   UNL     1       7.639   7.526  17.840  0.00  0.00    +0.000 A 
ATOM      8  C   UNL     1       6.424   7.528  17.158  0.00  0.00    +0.000 A 
ATOM      9  C   UNL     1       5.453   6.558  17.431  0.00  0.00    +0.000 A 
ATOM     10  C   UNL     1       5.675   5.563  18.392  0.00  0.00    +0.000 A 
ATOM     11  C   UNL     1       6.923   5.539  19.032  0.00  0.00    +0.000 A 
ATOM     12  C   UNL     1       7.895   6.514  18.764  0.00  0.00    +0.000 A 
BRANCH   7  13
ATOM     13  O   UNL     1       8.502   8.529  17.490  0.00  0.00    +0.000 OA
BRANCH  13  15
ATOM     14  C   UNL     1       9.252  10.073  19.148  0.00  0.00    +0.000 C 
ATOM     15  C   UNL     1       8.233   9.813  18.052  0.00  0.00    +0.000 C 
ENDBRANCH  13  15
ENDBRANCH   7  13
ENDBRANCH   1  10
BRANCH   5  16
ATOM     16  C   UNL     1       1.654   3.566  20.532  0.00  0.00    +0.000 C 
ATOM     17  C   UNL     1       1.515   2.580  21.659  0.00  0.00    +0.000 C 
ATOM     18  O   UNL     1       0.713   4.340  20.319  0.00  0.00    +0.000 OA
ENDBRANCH   5  16
BRANCH   6  19
ATOM     19  O   UNL     1       3.358   5.967  20.292  0.00  0.00    +0.000 OA
ATOM     20  H   UNL     1       3.371   6.622  19.565  0.00  0.00    +0.000 HD
ENDBRANCH   6  19
TORSDOF 5
ENDMDL
MODEL 2
REMARK VINA RESULT:      -6.5      2.802      3.796
REMARK  Name = 
REMARK  8 active torsions:
REMARK  status: ('A' for Active; 'I' for Inactive)
REMARK    1  A    between atoms: C_1  and  C_2
REMARK    2  A    between atoms: C_2  and  O_3
REMARK    3  A    between atoms: O_3  and  C_4
REMARK    4  A    between atoms: C_7  and  C_8
REMARK    5  A    between atoms: C_10  and  C_11
REMARK    6  A    between atoms: C_12  and  C_13
REMARK    7  A    between atoms: C_13  and  C_14
REMARK    8  A    between atoms: N_16  and  O_17
REMARK                            x       y       z     vdW  Elec       q    Type
REMARK                         _______ _______ _______ _____ _____    ______ ____
ROOT
ATOM      1  C   UNL     1       4.127   4.871  18.601  0.00  0.00    +0.000 A 
ATOM      2  N   UNL     1       3.253   5.770  19.024  0.00  0.00    +0.000 NA
ATOM      3  C   UNL     1       2.562   5.198  20.075  0.00  0.00    +0.000 A 
ATOM      4  C   UNL     1       1.519   6.006  20.751  0.00  0.00    +0.000 C 
ATOM      5  C   UNL     1       2.999   3.899  20.299  0.00  0.00    +0.000 A 
ATOM      6  N   UNL     1       3.975   3.718  19.341  0.00  0.00    +0.000 N 
ENDROOT
BRANCH   1  10
ATOM      7  C   UNL     1       6.891   5.253  15.328  0.00  0.00    +0.000 A 
ATOM      8  C   UNL     1       7.203   5.795  16.574  0.00  0.00    +0.000 A 
ATOM      9  C   UNL     1       6.303   5.691  17.640  0.00  0.00    +0.000 A 
ATOM     10  C   UNL     1       5.070   5.044  17.485  0.00  0.00    +0.000 A 
ATOM     11  C   UNL     1       4.745   4.552  16.212  0.00  0.00    +0.000 A 
ATOM     12  C   UNL     1       5.649   4.650  15.144  0.00  0.00    +0.000 A 
BRANCH   7  13
ATOM     13  O   UNL     1       7.854   5.413  14.369  0.00  0.00    +0.000 OA
BRANCH  13  15
ATOM     14  C   UNL     1       7.975   5.901  12.036  0.00  0.00    +0.000 C 
ATOM     15  C   UNL     1       7.551   4.882  13.079  0.00  0.00    +0.000 C 
ENDBRANCH  13  15
ENDBRANCH   7  13
ENDBRANCH   1  10
BRANCH   5  16
ATOM     16  C   UNL     1       2.641   2.852  21.231  0.00  0.00    +0.000 C 
ATOM     17  C   UNL     1       1.217   2.608  21.649  0.00  0.00    +0.000 C 
ATOM     18  O   UNL     1       3.519   2.127  21.712  0.00  0.00    +0.000 OA
ENDBRANCH   5  16
BRANCH   6  19
ATOM     19  O   UNL     1       4.676   2.528  19.114  0.00  0.00    +0.000 OA
ATOM     20  H   UNL     1       5.446   2.849  18.602  0.00  0.00    +0.000 HD
ENDBRANCH   6  19
TORSDOF 5
ENDMDL
MODEL 3
REMARK VINA RESULT:      -6.5      0.181      1.115
REMARK  Name = 
REMARK  8 active torsions:
REMARK  status: ('A' for Active; 'I' for Inactive)
REMARK    1  A    between atoms: C_1  and  C_2
REMARK    2  A    between atoms: C_2  and  O_3
REMARK    3  A    between atoms: O_3  and  C_4
REMARK    4  A    between atoms: C_7  and  C_8
REMARK    5  A    between atoms: C_10  and  C_11
REMARK    6  A    between atoms: C_12  and  C_13
REMARK    7  A    between atoms: C_13  and  C_14
REMARK    8  A    between atoms: N_16  and  O_17
REMARK                            x       y       z     vdW  Elec       q    Type
REMARK                         _______ _______ _______ _____ _____    ______ ____
ROOT
ATOM      1  C   UNL     1       4.616   4.530  18.776  0.00  0.00    +0.000 A 
ATOM      2  N   UNL     1       4.666   3.266  18.388  0.00  0.00    +0.000 NA
ATOM      3  C   UNL     1       3.576   2.628  18.948  0.00  0.00    +0.000 A 
ATOM      4  C   UNL     1       3.381   1.187  18.658  0.00  0.00    +0.000 C 
ATOM      5  C   UNL     1       2.839   3.511  19.726  0.00  0.00    +0.000 A 
ATOM      6  N   UNL     1       3.531   4.698  19.609  0.00  0.00    +0.000 N 
ENDROOT
BRANCH   1  10
ATOM      7  C   UNL     1       7.458   7.553  17.642  0.00  0.00    +0.000 A 
ATOM      8  C   UNL     1       7.788   6.613  18.617  0.00  0.00    +0.000 A 
ATOM      9  C   UNL     1       6.864   5.636  19.005  0.00  0.00    +0.000 A 
ATOM     10  C   UNL     1       5.589   5.578  18.428  0.00  0.00    +0.000 A 
ATOM     11  C   UNL     1       5.249   6.563  17.489  0.00  0.00    +0.000 A 
ATOM     12  C   UNL     1       6.177   7.539  17.094  0.00  0.00    +0.000 A 
BRANCH   7  13
ATOM     13  O   UNL     1       8.447   8.451  17.344  0.00  0.00    +0.000 OA
BRANCH  13  15
ATOM     14  C   UNL     1       9.225  10.002  18.983  0.00  0.00    +0.000 C 
ATOM     15  C   UNL     1       8.258   9.779  17.832  0.00  0.00    +0.000 C 
ENDBRANCH  13  15
ENDBRANCH   7  13
ENDBRANCH   1  10
BRANCH   5  16
ATOM     16  C   UNL     1       1.641   3.402  20.531  0.00  0.00    +0.000 C 
ATOM     17  C   UNL     1       1.576   2.523  21.749  0.00  0.00    +0.000 C 
ATOM     18  O   UNL     1       0.629   4.042  20.222  0.00  0.00    +0.000 OA
ENDBRANCH   5  16
BRANCH   6  19
ATOM     19  O   UNL     1       3.216   5.889  20.275  0.00  0.00    +0.000 OA
ATOM     20  H   UNL     1       4.099   6.299  20.370  0.00  0.00    +0.000 HD
ENDBRANCH   6  19
TORSDOF 5
ENDMDL
MODEL 4
REMARK VINA RESULT:      -6.5      3.913      5.361
REMARK  Name = 
REMARK  8 active torsions:
REMARK  status: ('A' for Active; 'I' for Inactive)
REMARK    1  A    between atoms: C_1  and  C_2
REMARK    2  A    between atoms: C_2  and  O_3
REMARK    3  A    between atoms: O_3  and  C_4
REMARK    4  A    between atoms: C_7  and  C_8
REMARK    5  A    between atoms: C_10  and  C_11
REMARK    6  A    between atoms: C_12  and  C_13
REMARK    7  A    between atoms: C_13  and  C_14
REMARK    8  A    between atoms: N_16  and  O_17
REMARK                            x       y       z     vdW  Elec       q    Type
REMARK                         _______ _______ _______ _____ _____    ______ ____
ROOT
ATOM      1  C   UNL     1       2.692   7.446  18.421  0.00  0.00    +0.000 A 
ATOM      2  N   UNL     1       2.148   8.511  17.856  0.00  0.00    +0.000 NA
ATOM      3  C   UNL     1       1.418   9.158  18.834  0.00  0.00    +0.000 A 
ATOM      4  C   UNL     1       0.709  10.408  18.469  0.00  0.00    +0.000 C 
ATOM      5  C   UNL     1       1.487   8.465  20.036  0.00  0.00    +0.000 A 
ATOM      6  N   UNL     1       2.285   7.380  19.736  0.00  0.00    +0.000 N 
ENDROOT
BRANCH   1  10
ATOM      7  C   UNL     1       5.173   4.609  16.346  0.00  0.00    +0.000 A 
ATOM      8  C   UNL     1       3.993   4.190  16.960  0.00  0.00    +0.000 A 
ATOM      9  C   UNL     1       3.189   5.102  17.652  0.00  0.00    +0.000 A 
ATOM     10  C   UNL     1       3.545   6.453  17.747  0.00  0.00    +0.000 A 
ATOM     11  C   UNL     1       4.761   6.852  17.173  0.00  0.00    +0.000 A 
ATOM     12  C   UNL     1       5.566   5.940  16.473  0.00  0.00    +0.000 A 
BRANCH   7  13
ATOM     13  O   UNL     1       5.867   3.627  15.695  0.00  0.00    +0.000 OA
BRANCH  13  15
ATOM     14  C   UNL     1       5.623   3.792  13.326  0.00  0.00    +0.000 C 
ATOM     15  C   UNL     1       6.551   4.024  14.506  0.00  0.00    +0.000 C 
ENDBRANCH  13  15
ENDBRANCH   7  13
ENDBRANCH   1  10
BRANCH   5  16
ATOM     16  C   UNL     1       0.930   8.660  21.357  0.00  0.00    +0.000 C 
ATOM     17  C   UNL     1      -0.545   8.544  21.626  0.00  0.00    +0.000 C 
ATOM     18  O   UNL     1       1.674   8.935  22.306  0.00  0.00    +0.000 OA
ENDBRANCH   5  16
BRANCH   6  19
ATOM     19  O   UNL     1       2.598   6.337  20.616  0.00  0.00    +0.000 OA
ATOM     20  H   UNL     1       1.724   6.144  21.009  0.00  0.00    +0.000 HD
ENDBRANCH   6  19
TORSDOF 5
ENDMDL
MODEL 5
REMARK VINA RESULT:      -6.4      3.100      3.790
REMARK  Name = 
REMARK  8 active torsions:
REMARK  status: ('A' for Active; 'I' for Inactive)
REMARK    1  A    between atoms: C_1  and  C_2
REMARK    2  A    between atoms: C_2  and  O_3
REMARK    3  A    between atoms: O_3  and  C_4
REMARK    4  A    between atoms: C_7  and  C_8
REMARK    5  A    between atoms: C_10  and  C_11
REMARK    6  A    between atoms: C_12  and  C_13
REMARK    7  A    between atoms: C_13  and  C_14
REMARK    8  A    between atoms: N_16  and  O_17
REMARK                            x       y       z     vdW  Elec       q    Type
REMARK                         _______ _______ _______ _____ _____    ______ ____
ROOT
ATOM      1  C   UNL     1       3.985   3.720  17.617  0.00  0.00    +0.000 A 
ATOM      2  N   UNL     1       2.712   3.456  17.371  0.00  0.00    +0.000 NA
ATOM      3  C   UNL     1       2.156   3.010  18.554  0.00  0.00    +0.000 A 
ATOM      4  C   UNL     1       0.717   2.654  18.563  0.00  0.00    +0.000 C 
ATOM      5  C   UNL     1       3.113   2.971  19.561  0.00  0.00    +0.000 A 
ATOM      6  N   UNL     1       4.260   3.409  18.931  0.00  0.00    +0.000 N 
ENDROOT
BRANCH   1  10
ATOM      7  C   UNL     1       6.930   5.046  14.775  0.00  0.00    +0.000 A 
ATOM      8  C   UNL     1       6.631   5.827  15.890  0.00  0.00    +0.000 A 
ATOM      9  C   UNL     1       5.663   5.413  16.811  0.00  0.00    +0.000 A 
ATOM     10  C   UNL     1       4.969   4.208  16.638  0.00  0.00    +0.000 A 
ATOM     11  C   UNL     1       5.239   3.458  15.484  0.00  0.00    +0.000 A 
ATOM     12  C   UNL     1       6.214   3.869  14.562  0.00  0.00    +0.000 A 
BRANCH   7  13
ATOM     13  O   UNL     1       7.899   5.554  13.954  0.00  0.00    +0.000 OA
BRANCH  13  15
ATOM     14  C   UNL     1       8.119   6.326  11.706  0.00  0.00    +0.000 C 
ATOM     15  C   UNL     1       7.861   5.121  12.594  0.00  0.00    +0.000 C 
ENDBRANCH  13  15
ENDBRANCH   7  13
ENDBRANCH   1  10
BRANCH   5  16
ATOM     16  C   UNL     1       3.106   2.590  20.956  0.00  0.00    +0.000 C 
ATOM     17  C   UNL     1       1.943   2.892  21.860  0.00  0.00    +0.000 C 
ATOM     18  O   UNL     1       4.079   2.001  21.441  0.00  0.00    +0.000 OA
ENDBRANCH   5  16
BRANCH   6  19
ATOM     19  O   UNL     1       5.529   3.482  19.519  0.00  0.00    +0.000 OA
ATOM     20  H   UNL     1       5.341   4.002  20.326  0.00  0.00    +0.000 HD
ENDBRANCH   6  19
TORSDOF 5
ENDMDL
MODEL 6
REMARK VINA RESULT:      -6.4      3.040      3.741
REMARK  Name = 
REMARK  8 active torsions:
REMARK  status: ('A' for Active; 'I' for Inactive)
REMARK    1  A    between atoms: C_1  and  C_2
REMARK    2  A    between atoms: C_2  and  O_3
REMARK    3  A    between atoms: O_3  and  C_4
REMARK    4  A    between atoms: C_7  and  C_8
REMARK    5  A    between atoms: C_10  and  C_11
REMARK    6  A    between atoms: C_12  and  C_13
REMARK    7  A    between atoms: C_13  and  C_14
REMARK    8  A    between atoms: N_16  and  O_17
REMARK                            x       y       z     vdW  Elec       q    Type
REMARK                         _______ _______ _______ _____ _____    ______ ____
ROOT
ATOM      1  C   UNL     1       3.947   3.779  17.718  0.00  0.00    +0.000 A 
ATOM      2  N   UNL     1       2.657   3.672  17.444  0.00  0.00    +0.000 NA
ATOM      3  C   UNL     1       2.037   3.211  18.589  0.00  0.00    +0.000 A 
ATOM      4  C   UNL     1       0.567   3.014  18.561  0.00  0.00    +0.000 C 
ATOM      5  C   UNL     1       2.967   3.002  19.599  0.00  0.00    +0.000 A 
ATOM      6  N   UNL     1       4.164   3.354  19.011  0.00  0.00    +0.000 N 
ENDROOT
BRANCH   1  10
ATOM      7  C   UNL     1       6.939   5.173  14.962  0.00  0.00    +0.000 A 
ATOM      8  C   UNL     1       6.321   3.940  14.759  0.00  0.00    +0.000 A 
ATOM      9  C   UNL     1       5.359   3.470  15.660  0.00  0.00    +0.000 A 
ATOM     10  C   UNL     1       4.993   4.221  16.784  0.00  0.00    +0.000 A 
ATOM     11  C   UNL     1       5.662   5.434  17.006  0.00  0.00    +0.000 A 
ATOM     12  C   UNL     1       6.623   5.910  16.101  0.00  0.00    +0.000 A 
BRANCH   7  13
ATOM     13  O   UNL     1       7.856   5.525  14.008  0.00  0.00    +0.000 OA
BRANCH  13  15
ATOM     14  C   UNL     1       8.007   6.115  11.701  0.00  0.00    +0.000 C 
ATOM     15  C   UNL     1       7.612   5.032  12.691  0.00  0.00    +0.000 C 
ENDBRANCH  13  15
ENDBRANCH   7  13
ENDBRANCH   1  10
BRANCH   5  16
ATOM     16  C   UNL     1       2.897   2.533  20.966  0.00  0.00    +0.000 C 
ATOM     17  C   UNL     1       1.639   2.642  21.783  0.00  0.00    +0.000 C 
ATOM     18  O   UNL     1       3.892   2.026  21.497  0.00  0.00    +0.000 OA
ENDBRANCH   5  16
BRANCH   6  19
ATOM     19  O   UNL     1       5.424   3.249  19.614  0.00  0.00    +0.000 OA
ATOM     20  H   UNL     1       5.505   4.120  20.051  0.00  0.00    +0.000 HD
ENDBRANCH   6  19
TORSDOF 5
ENDMDL
MODEL 7
REMARK VINA RESULT:      -6.3      3.039      3.897
REMARK  Name = 
REMARK  8 active torsions:
REMARK  status: ('A' for Active; 'I' for Inactive)
REMARK    1  A    between atoms: C_1  and  C_2
REMARK    2  A    between atoms: C_2  and  O_3
REMARK    3  A    between atoms: O_3  and  C_4
REMARK    4  A    between atoms: C_7  and  C_8
REMARK    5  A    between atoms: C_10  and  C_11
REMARK    6  A    between atoms: C_12  and  C_13
REMARK    7  A    between atoms: C_13  and  C_14
REMARK    8  A    between atoms: N_16  and  O_17
REMARK                            x       y       z     vdW  Elec       q    Type
REMARK                         _______ _______ _______ _____ _____    ______ ____
ROOT
ATOM      1  C   UNL     1       4.263   4.715  18.460  0.00  0.00    +0.000 A 
ATOM      2  N   UNL     1       3.486   5.701  18.877  0.00  0.00    +0.000 NA
ATOM      3  C   UNL     1       2.763   5.218  19.951  0.00  0.00    +0.000 A 
ATOM      4  C   UNL     1       1.814   6.135  20.627  0.00  0.00    +0.000 C 
ATOM      5  C   UNL     1       3.079   3.888  20.196  0.00  0.00    +0.000 A 
ATOM      6  N   UNL     1       4.017   3.597  19.226  0.00  0.00    +0.000 N 
ENDROOT
BRANCH   1  10
ATOM      7  C   UNL     1       7.054   4.986  15.197  0.00  0.00    +0.000 A 
ATOM      8  C   UNL     1       5.688   5.146  14.966  0.00  0.00    +0.000 A 
ATOM      9  C   UNL     1       4.771   5.042  16.017  0.00  0.00    +0.000 A 
ATOM     10  C   UNL     1       5.198   4.776  17.325  0.00  0.00    +0.000 A 
ATOM     11  C   UNL     1       6.568   4.562  17.535  0.00  0.00    +0.000 A 
ATOM     12  C   UNL     1       7.490   4.671  16.482  0.00  0.00    +0.000 A 
BRANCH   7  13
ATOM     13  O   UNL     1       7.848   5.118  14.091  0.00  0.00    +0.000 OA
BRANCH  13  15
ATOM     14  C   UNL     1       7.145   3.779  12.244  0.00  0.00    +0.000 C 
ATOM     15  C   UNL     1       7.171   5.178  12.835  0.00  0.00    +0.000 C 
ENDBRANCH  13  15
ENDBRANCH   7  13
ENDBRANCH   1  10
BRANCH   5  16
ATOM     16  C   UNL     1       2.642   2.898  21.156  0.00  0.00    +0.000 C 
ATOM     17  C   UNL     1       1.191   2.714  21.507  0.00  0.00    +0.000 C 
ATOM     18  O   UNL     1       3.471   2.173  21.718  0.00  0.00    +0.000 OA
ENDBRANCH   5  16
BRANCH   6  19
ATOM     19  O   UNL     1       4.598   2.341  19.013  0.00  0.00    +0.000 OA
ATOM     20  H   UNL     1       4.345   1.867  19.831  0.00  0.00    +0.000 HD
ENDBRANCH   6  19
TORSDOF 5
ENDMDL
MODEL 8
REMARK VINA RESULT:      -6.3      4.219      5.735
REMARK  Name = 
REMARK  8 active torsions:
REMARK  status: ('A' for Active; 'I' for Inactive)
REMARK    1  A    between atoms: C_1  and  C_2
REMARK    2  A    between atoms: C_2  and  O_3
REMARK    3  A    between atoms: O_3  and  C_4
REMARK    4  A    between atoms: C_7  and  C_8
REMARK    5  A    between atoms: C_10  and  C_11
REMARK    6  A    between atoms: C_12  and  C_13
REMARK    7  A    between atoms: C_13  and  C_14
REMARK    8  A    between atoms: N_16  and  O_17
REMARK                            x       y       z     vdW  Elec       q    Type
REMARK                         _______ _______ _______ _____ _____    ______ ____
ROOT
ATOM      1  C   UNL     1       2.202   7.860  18.799  0.00  0.00    +0.000 A 
ATOM      2  N   UNL     1       1.737   8.958  18.227  0.00  0.00    +0.000 NA
ATOM      3  C   UNL     1       1.125   9.702  19.218  0.00  0.00    +0.000 A 
ATOM      4  C   UNL     1       0.524  11.005  18.847  0.00  0.00    +0.000 C 
ATOM      5  C   UNL     1       1.188   9.040  20.437  0.00  0.00    +0.000 A 
ATOM      6  N   UNL     1       1.860   7.873  20.135  0.00  0.00    +0.000 N 
ENDROOT
BRANCH   1  10
ATOM      7  C   UNL     1       4.300   4.611  16.916  0.00  0.00    +0.000 A 
ATOM      8  C   UNL     1       4.821   5.903  16.866  0.00  0.00    +0.000 A 
ATOM      9  C   UNL     1       4.137   6.969  17.461  0.00  0.00    +0.000 A 
ATOM     10  C   UNL     1       2.917   6.769  18.118  0.00  0.00    +0.000 A 
ATOM     11  C   UNL     1       2.376   5.475  18.113  0.00  0.00    +0.000 A 
ATOM     12  C   UNL     1       3.063   4.403  17.523  0.00  0.00    +0.000 A 
BRANCH   7  13
ATOM     13  O   UNL     1       5.064   3.655  16.305  0.00  0.00    +0.000 OA
BRANCH  13  15
ATOM     14  C   UNL     1       6.009   3.902  14.127  0.00  0.00    +0.000 C 
ATOM     15  C   UNL     1       6.223   4.123  15.615  0.00  0.00    +0.000 C 
ENDBRANCH  13  15
ENDBRANCH   7  13
ENDBRANCH   1  10
BRANCH   5  16
ATOM     16  C   UNL     1       0.724   9.327  21.777  0.00  0.00    +0.000 C 
ATOM     17  C   UNL     1      -0.698   9.727  22.059  0.00  0.00    +0.000 C 
ATOM     18  O   UNL     1       1.505   9.250  22.732  0.00  0.00    +0.000 OA
ENDBRANCH   5  16
BRANCH   6  19
ATOM     19  O   UNL     1       2.115   6.829  21.032  0.00  0.00    +0.000 OA
ATOM     20  H   UNL     1       2.762   6.294  20.531  0.00  0.00    +0.000 HD
ENDBRANCH   6  19
TORSDOF 5
ENDMDL
MODEL 9
REMARK VINA RESULT:      -6.2      4.363      5.817
REMARK  Name = 
REMARK  8 active torsions:
REMARK  status: ('A' for Active; 'I' for Inactive)
REMARK    1  A    between atoms: C_1  and  C_2
REMARK    2  A    between atoms: C_2  and  O_3
REMARK    3  A    between atoms: O_3  and  C_4
REMARK    4  A    between atoms: C_7  and  C_8
REMARK    5  A    between atoms: C_10  and  C_11
REMARK    6  A    between atoms: C_12  and  C_13
REMARK    7  A    between atoms: C_13  and  C_14
REMARK    8  A    between atoms: N_16  and  O_17
REMARK                            x       y       z     vdW  Elec       q    Type
REMARK                         _______ _______ _______ _____ _____    ______ ____
ROOT
ATOM      1  C   UNL     1       2.396   7.425  18.882  0.00  0.00    +0.000 A 
ATOM      2  N   UNL     1       2.088   7.326  20.165  0.00  0.00    +0.000 NA
ATOM      3  C   UNL     1       1.359   8.452  20.494  0.00  0.00    +0.000 A 
ATOM      4  C   UNL     1       0.869   8.588  21.887  0.00  0.00    +0.000 C 
ATOM      5  C   UNL     1       1.228   9.290  19.394  0.00  0.00    +0.000 A 
ATOM      6  N   UNL     1       1.908   8.620  18.398  0.00  0.00    +0.000 N 
ENDROOT
BRANCH   1  10
ATOM      7  C   UNL     1       4.704   4.514  16.715  0.00  0.00    +0.000 A 
ATOM      8  C   UNL     1       5.148   5.832  16.806  0.00  0.00    +0.000 A 
ATOM      9  C   UNL     1       4.395   6.791  17.494  0.00  0.00    +0.000 A 
ATOM     10  C   UNL     1       3.181   6.454  18.106  0.00  0.00    +0.000 A 
ATOM     11  C   UNL     1       2.718   5.137  17.960  0.00  0.00    +0.000 A 
ATOM     12  C   UNL     1       3.475   4.173  17.276  0.00  0.00    +0.000 A 
BRANCH   7  13
ATOM     13  O   UNL     1       5.530   3.671  16.023  0.00  0.00    +0.000 OA
BRANCH  13  15
ATOM     14  C   UNL     1       6.108   3.890  13.718  0.00  0.00    +0.000 C 
ATOM     15  C   UNL     1       6.464   4.292  15.139  0.00  0.00    +0.000 C 
ENDBRANCH  13  15
ENDBRANCH   7  13
ENDBRANCH   1  10
BRANCH   5  16
ATOM     16  C   UNL     1       0.595  10.569  19.159  0.00  0.00    +0.000 C 
ATOM     17  C   UNL     1      -0.819  10.680  18.659  0.00  0.00    +0.000 C 
ATOM     18  O   UNL     1       1.221  11.615  19.367  0.00  0.00    +0.000 OA
ENDBRANCH   5  16
BRANCH   6  19
ATOM     19  O   UNL     1       2.120   9.099  17.099  0.00  0.00    +0.000 OA
ATOM     20  H   UNL     1       2.380  10.026  17.273  0.00  0.00    +0.000 HD
ENDBRANCH   6  19
TORSDOF 5
ENDMDL
