MODEL 1
REMARK VINA RESULT:      -7.3      0.000      0.000
REMARK  Name = 
REMARK  9 active torsions:
REMARK  status: ('A' for Active; 'I' for Inactive)
REMARK    1  A    between atoms: C_1  and  C_2
REMARK    2  A    between atoms: N_5  and  C_6
REMARK    3  A    between atoms: C_6  and  C_7
REMARK    4  A    between atoms: C_12  and  C_14
REMARK    5  A    between atoms: C_14  and  C_15
REMARK    6  A    between atoms: C_15  and  C_16
REMARK    7  A    between atoms: C_17  and  C_18
REMARK    8  A    between atoms: N_20  and  C_21
REMARK    9  A    between atoms: C_22  and  C_23
REMARK                            x       y       z     vdW  Elec       q    Type
REMARK                         _______ _______ _______ _____ _____    ______ ____
ROOT
ATOM      1  C   UNL     1       3.485   3.627  19.534  0.00  0.00    +0.000 C 
ATOM      2  C   UNL     1       3.061   2.299  20.182  0.00  0.00    +0.000 C 
ATOM      3  C   UNL     1       2.604   2.681  21.578  0.00  0.00    +0.000 C 
ATOM      4  C   UNL     1       2.084   4.100  21.439  0.00  0.00    +0.000 C 
ATOM      5  N   UNL     1       2.519   4.577  20.132  0.00  0.00    +0.000 N 
ATOM      6  C   UNL     1       2.238   5.859  19.669  0.00  0.00    +0.000 C 
ATOM      7  O   UNL     1       2.682   6.291  18.609  0.00  0.00    +0.000 OA
ENDROOT
BRANCH   1   8
ATOM      8  C   UNL     1       3.556   3.510  18.003  0.00  0.00    +0.000 C 
BRANCH   8  13
ATOM      9  C   UNL     1       7.302   4.916  14.942  0.00  0.00    +0.000 C 
ATOM     10  C   UNL     1       6.477   4.582  16.129  0.00  0.00    +0.000 A 
ATOM     11  C   UNL     1       6.855   4.598  17.488  0.00  0.00    +0.000 A 
ATOM     12  N   UNL     1       5.867   4.228  18.305  0.00  0.00    +0.000 NA
ATOM     13  N   UNL     1       4.839   3.963  17.470  0.00  0.00    +0.000 N 
ATOM     14  C   UNL     1       5.162   4.170  16.157  0.00  0.00    +0.000 A 
ENDBRANCH   8  13
ENDBRANCH   1   8
BRANCH   6  15
ATOM     15  C   UNL     1       1.328   6.697  20.577  0.00  0.00    +0.000 C 
BRANCH  15  16
ATOM     16  C   UNL     1       1.872   8.076  20.953  0.00  0.00    +0.000 C 
BRANCH  16  17
ATOM     17  C   UNL     1       0.893   9.172  20.624  0.00  0.00    +0.000 A 
ATOM     18  C   UNL     1      -0.042   9.819  21.484  0.00  0.00    +0.000 A 
ATOM     19  C   UNL     1      -0.307   9.601  22.927  0.00  0.00    +0.000 C 
ATOM     20  N   UNL     1      -0.763  10.743  20.838  0.00  0.00    +0.000 NA
ATOM     21  N   UNL     1      -0.295  10.713  19.580  0.00  0.00    +0.000 N 
ATOM     22  C   UNL     1      -0.860  11.620  18.608  0.00  0.00    +0.000 C 
ATOM     23  C   UNL     1       0.690   9.778  19.388  0.00  0.00    +0.000 A 
ATOM     24  C   UNL     1       1.353   9.536  18.083  0.00  0.00    +0.000 C 
ENDBRANCH  16  17
ENDBRANCH  15  16
ENDBRANCH   6  15
TORSDOF 5
ENDMDL
MODEL 2
REMARK VINA RESULT:      -7.1      0.751      1.826
REMARK  Name = 
REMARK  9 active torsions:
REMARK  status: ('A' for Active; 'I' for Inactive)
REMARK    1  A    between atoms: C_1  and  C_2
REMARK    2  A    between atoms: N_5  and  C_6
REMARK    3  A    between atoms: C_6  and  C_7
REMARK    4  A    between atoms: C_12  and  C_14
REMARK    5  A    between atoms: C_14  and  C_15
REMARK    6  A    between atoms: C_15  and  C_16
REMARK    7  A    between atoms: C_17  and  C_18
REMARK    8  A    between atoms: N_20  and  C_21
REMARK    9  A    between atoms: C_22  and  C_23
REMARK                            x       y       z     vdW  Elec       q    Type
REMARK                         _______ _______ _______ _____ _____    ______ ____
ROOT
ATOM      1  C   UNL     1       2.834   3.601  19.051  0.00  0.00    +0.000 C 
ATOM      2  C   UNL     1       2.095   2.290  19.366  0.00  0.00    +0.000 C 
ATOM      3  C   UNL     1       1.612   2.454  20.795  0.00  0.00    +0.000 C 
ATOM      4  C   UNL     1       1.406   3.949  20.963  0.00  0.00    +0.000 C 
ATOM      5  N   UNL     1       2.037   4.588  19.815  0.00  0.00    +0.000 N 
ATOM      6  C   UNL     1       2.063   5.969  19.645  0.00  0.00    +0.000 C 
ATOM      7  O   UNL     1       2.672   6.511  18.728  0.00  0.00    +0.000 OA
ENDROOT
BRANCH   1   8
ATOM      8  C   UNL     1       3.006   3.803  17.537  0.00  0.00    +0.000 C 
BRANCH   8  13
ATOM      9  C   UNL     1       7.226   4.829  14.983  0.00  0.00    +0.000 C 
ATOM     10  C   UNL     1       6.228   4.585  16.055  0.00  0.00    +0.000 A 
ATOM     11  C   UNL     1       6.428   4.587  17.451  0.00  0.00    +0.000 A 
ATOM     12  N   UNL     1       5.314   4.316  18.134  0.00  0.00    +0.000 NA
ATOM     13  N   UNL     1       4.382   4.132  17.174  0.00  0.00    +0.000 N 
ATOM     14  C   UNL     1       4.889   4.292  15.913  0.00  0.00    +0.000 A 
ENDBRANCH   8  13
ENDBRANCH   1   8
BRANCH   6  15
ATOM     15  C   UNL     1       1.272   6.771  20.688  0.00  0.00    +0.000 C 
BRANCH  15  16
ATOM     16  C   UNL     1       1.843   8.149  21.023  0.00  0.00    +0.000 C 
BRANCH  16  17
ATOM     17  C   UNL     1       0.880   9.253  20.675  0.00  0.00    +0.000 A 
ATOM     18  C   UNL     1       0.626   9.845  19.403  0.00  0.00    +0.000 A 
ATOM     19  C   UNL     1       1.227   9.541  18.082  0.00  0.00    +0.000 C 
ATOM     20  N   UNL     1      -0.293  10.815  19.476  0.00  0.00    +0.000 NA
ATOM     21  N   UNL     1      -0.646  10.846  20.770  0.00  0.00    +0.000 N 
ATOM     22  C   UNL     1      -1.654  11.791  21.192  0.00  0.00    +0.000 C 
ATOM     23  C   UNL     1       0.036   9.940  21.542  0.00  0.00    +0.000 A 
ATOM     24  C   UNL     1      -0.158   9.793  23.006  0.00  0.00    +0.000 C 
ENDBRANCH  16  17
ENDBRANCH  15  16
ENDBRANCH   6  15
TORSDOF 5
ENDMDL
MODEL 3
REMARK VINA RESULT:      -7.0      1.972      7.378
REMARK  Name = 
REMARK  9 active torsions:
REMARK  status: ('A' for Active; 'I' for Inactive)
REMARK    1  A    between atoms: C_1  and  C_2
REMARK    2  A    between atoms: N_5  and  C_6
REMARK    3  A    between atoms: C_6  and  C_7
REMARK    4  A    between atoms: C_12  and  C_14
REMARK    5  A    between atoms: C_14  and  C_15
REMARK    6  A    between atoms: C_15  and  C_16
REMARK    7  A    between atoms: C_17  and  C_18
REMARK    8  A    between atoms: N_20  and  C_21
REMARK    9  A    between atoms: C_22  and  C_23
REMARK                            x       y       z     vdW  Elec       q    Type
REMARK                         _______ _______ _______ _____ _____    ______ ____
ROOT
ATOM      1  C   UNL     1       1.737   5.276  19.700  0.00  0.00    +0.000 C 
ATOM      2  C   UNL     1       1.390   4.185  20.727  0.00  0.00    +0.000 C 
ATOM      3  C   UNL     1       1.052   2.964  19.891  0.00  0.00    +0.000 C 
ATOM      4  C   UNL     1       1.878   3.120  18.628  0.00  0.00    +0.000 C 
ATOM      5  N   UNL     1       2.387   4.487  18.628  0.00  0.00    +0.000 N 
ATOM      6  C   UNL     1       3.175   4.995  17.601  0.00  0.00    +0.000 C 
ATOM      7  O   UNL     1       3.527   6.170  17.557  0.00  0.00    +0.000 OA
ENDROOT
BRANCH   1   8
ATOM      8  C   UNL     1       2.519   6.430  20.346  0.00  0.00    +0.000 C 
BRANCH   8  13
ATOM      9  C   UNL     1       0.620  10.845  18.834  0.00  0.00    +0.000 C 
ATOM     10  C   UNL     1       0.962   9.629  19.613  0.00  0.00    +0.000 A 
ATOM     11  C   UNL     1       0.562   9.289  20.922  0.00  0.00    +0.000 A 
ATOM     12  N   UNL     1       1.061   8.120  21.329  0.00  0.00    +0.000 NA
ATOM     13  N   UNL     1       1.796   7.698  20.277  0.00  0.00    +0.000 N 
ATOM     14  C   UNL     1       1.756   8.571  19.225  0.00  0.00    +0.000 A 
ENDBRANCH   8  13
ENDBRANCH   1   8
BRANCH   6  15
ATOM     15  C   UNL     1       3.579   3.980  16.523  0.00  0.00    +0.000 C 
BRANCH  15  16
ATOM     16  C   UNL     1       4.994   3.415  16.656  0.00  0.00    +0.000 C 
BRANCH  16  17
ATOM     17  C   UNL     1       5.992   4.215  15.862  0.00  0.00    +0.000 A 
ATOM     18  C   UNL     1       6.921   5.193  16.326  0.00  0.00    +0.000 A 
ATOM     19  C   UNL     1       7.165   5.686  17.704  0.00  0.00    +0.000 C 
ATOM     20  N   UNL     1       7.645   5.710  15.327  0.00  0.00    +0.000 NA
ATOM     21  N   UNL     1       7.210   5.070  14.231  0.00  0.00    +0.000 N 
ATOM     22  C   UNL     1       7.812   5.389  12.957  0.00  0.00    +0.000 C 
ATOM     23  C   UNL     1       6.207   4.171  14.489  0.00  0.00    +0.000 A 
ATOM     24  C   UNL     1       5.544   3.353  13.442  0.00  0.00    +0.000 C 
ENDBRANCH  16  17
ENDBRANCH  15  16
ENDBRANCH   6  15
TORSDOF 5
ENDMDL
MODEL 4
REMARK VINA RESULT:      -7.0      1.968      8.152
REMARK  Name = 
REMARK  9 active torsions:
REMARK  status: ('A' for Active; 'I' for Inactive)
REMARK    1  A    between atoms: C_1  and  C_2
REMARK    2  A    between atoms: N_5  and  C_6
REMARK    3  A    between atoms: C_6  and  C_7
REMARK    4  A    between atoms: C_12  and  C_14
REMARK    5  A    between atoms: C_14  and  C_15
REMARK    6  A    between atoms: C_15  and  C_16
REMARK    7  A    between atoms: C_17  and  C_18
REMARK    8  A    between atoms: N_20  and  C_21
REMARK    9  A    between atoms: C_22  and  C_23
REMARK                            x       y       z     vdW  Elec       q    Type
REMARK                         _______ _______ _______ _____ _____    ______ ____
ROOT
ATOM      1  C   UNL     1      -0.169   9.856  20.080  0.00  0.00    +0.000 C 
ATOM      2  C   UNL     1      -0.124  10.403  21.517  0.00  0.00    +0.000 C 
ATOM      3  C   UNL     1       0.397   9.248  22.352  0.00  0.00    +0.000 C 
ATOM      4  C   UNL     1       1.277   8.453  21.405  0.00  0.00    +0.000 C 
ATOM      5  N   UNL     1       1.005   8.953  20.063  0.00  0.00    +0.000 N 
ATOM      6  C   UNL     1       1.623   8.436  18.929  0.00  0.00    +0.000 C 
ATOM      7  O   UNL     1       1.327   8.794  17.793  0.00  0.00    +0.000 OA
ENDROOT
BRANCH   1   8
ATOM      8  C   UNL     1      -0.246  10.990  19.046  0.00  0.00    +0.000 C 
BRANCH   8  13
ATOM      9  C   UNL     1      -4.821  11.775  17.089  0.00  0.00    +0.000 C 
ATOM     10  C   UNL     1      -3.456  11.264  17.370  0.00  0.00    +0.000 A 
ATOM     11  C   UNL     1      -2.765  10.219  16.723  0.00  0.00    +0.000 A 
ATOM     12  N   UNL     1      -1.551  10.006  17.236  0.00  0.00    +0.000 NA
ATOM     13  N   UNL     1      -1.455  10.916  18.229  0.00  0.00    +0.000 N 
ATOM     14  C   UNL     1      -2.574  11.695  18.337  0.00  0.00    +0.000 A 
ENDBRANCH   8  13
ENDBRANCH   1   8
BRANCH   6  15
ATOM     15  C   UNL     1       2.709   7.386  19.198  0.00  0.00    +0.000 C 
BRANCH  15  16
ATOM     16  C   UNL     1       2.855   6.307  18.124  0.00  0.00    +0.000 C 
BRANCH  16  17
ATOM     17  C   UNL     1       4.129   5.521  18.291  0.00  0.00    +0.000 A 
ATOM     18  C   UNL     1       4.355   4.344  19.065  0.00  0.00    +0.000 A 
ATOM     19  C   UNL     1       3.410   3.571  19.907  0.00  0.00    +0.000 C 
ATOM     20  N   UNL     1       5.623   3.928  18.985  0.00  0.00    +0.000 NA
ATOM     21  N   UNL     1       6.214   4.806  18.160  0.00  0.00    +0.000 N 
ATOM     22  C   UNL     1       7.612   4.629  17.843  0.00  0.00    +0.000 C 
ATOM     23  C   UNL     1       5.369   5.794  17.723  0.00  0.00    +0.000 A 
ATOM     24  C   UNL     1       5.786   6.896  16.820  0.00  0.00    +0.000 C 
ENDBRANCH  16  17
ENDBRANCH  15  16
ENDBRANCH   6  15
TORSDOF 5
ENDMDL
MODEL 5
REMARK VINA RESULT:      -7.0      2.046      8.126
REMARK  Name = 
REMARK  9 active torsions:
REMARK  status: ('A' for Active; 'I' for Inactive)
REMARK    1  A    between atoms: C_1  and  C_2
REMARK    2  A    between atoms: N_5  and  C_6
REMARK    3  A    between atoms: C_6  and  C_7
REMARK    4  A    between atoms: C_12  and  C_14
REMARK    5  A    between atoms: C_14  and  C_15
REMARK    6  A    between atoms: C_15  and  C_16
REMARK    7  A    between atoms: C_17  and  C_18
REMARK    8  A    between atoms: N_20  and  C_21
REMARK    9  A    between atoms: C_22  and  C_23
REMARK                            x       y       z     vdW  Elec       q    Type
REMARK                         _______ _______ _______ _____ _____    ______ ____
ROOT
ATOM      1  C   UNL     1      -0.295   9.940  20.119  0.00  0.00    +0.000 C 
ATOM      2  C   UNL     1      -0.280  10.383  21.592  0.00  0.00    +0.000 C 
ATOM      3  C   UNL     1       0.247   9.179  22.351  0.00  0.00    +0.000 C 
ATOM      4  C   UNL     1       1.154   8.468  21.364  0.00  0.00    +0.000 C 
ATOM      5  N   UNL     1       0.894   9.059  20.057  0.00  0.00    +0.000 N 
ATOM      6  C   UNL     1       1.539   8.635  18.898  0.00  0.00    +0.000 C 
ATOM      7  O   UNL     1       1.254   9.069  17.787  0.00  0.00    +0.000 OA
ENDROOT
BRANCH   1   8
ATOM      8  C   UNL     1      -0.373  11.145  19.168  0.00  0.00    +0.000 C 
BRANCH   8  13
ATOM      9  C   UNL     1      -3.571  10.207  15.389  0.00  0.00    +0.000 C 
ATOM     10  C   UNL     1      -2.952  10.680  16.653  0.00  0.00    +0.000 A 
ATOM     11  C   UNL     1      -3.525  11.487  17.657  0.00  0.00    +0.000 A 
ATOM     12  N   UNL     1      -2.684  11.739  18.662  0.00  0.00    +0.000 NA
ATOM     13  N   UNL     1      -1.551  11.095  18.305  0.00  0.00    +0.000 N 
ATOM     14  C   UNL     1      -1.674  10.442  17.110  0.00  0.00    +0.000 A 
ENDBRANCH   8  13
ENDBRANCH   1   8
BRANCH   6  15
ATOM     15  C   UNL     1       2.638   7.584  19.110  0.00  0.00    +0.000 C 
BRANCH  15  16
ATOM     16  C   UNL     1       2.563   6.367  18.188  0.00  0.00    +0.000 C 
BRANCH  16  17
ATOM     17  C   UNL     1       3.465   5.255  18.656  0.00  0.00    +0.000 A 
ATOM     18  C   UNL     1       4.877   5.129  18.501  0.00  0.00    +0.000 A 
ATOM     19  C   UNL     1       5.842   6.047  17.848  0.00  0.00    +0.000 C 
ATOM     20  N   UNL     1       5.340   3.994  19.036  0.00  0.00    +0.000 NA
ATOM     21  N   UNL     1       4.253   3.396  19.547  0.00  0.00    +0.000 N 
ATOM     22  C   UNL     1       4.412   2.130  20.225  0.00  0.00    +0.000 C 
ATOM     23  C   UNL     1       3.095   4.099  19.336  0.00  0.00    +0.000 A 
ATOM     24  C   UNL     1       1.758   3.640  19.786  0.00  0.00    +0.000 C 
ENDBRANCH  16  17
ENDBRANCH  15  16
ENDBRANCH   6  15
TORSDOF 5
ENDMDL
MODEL 6
REMARK VINA RESULT:      -6.9      1.744      7.109
REMARK  Name = 
REMARK  9 active torsions:
REMARK  status: ('A' for Active; 'I' for Inactive)
REMARK    1  A    between atoms: C_1  and  C_2
REMARK    2  A    between atoms: N_5  and  C_6
REMARK    3  A    between atoms: C_6  and  C_7
REMARK    4  A    between atoms: C_12  and  C_14
REMARK    5  A    between atoms: C_14  and  C_15
REMARK    6  A    between atoms: C_15  and  C_16
REMARK    7  A    between atoms: C_17  and  C_18
REMARK    8  A    between atoms: N_20  and  C_21
REMARK    9  A    between atoms: C_22  and  C_23
REMARK                            x       y       z     vdW  Elec       q    Type
REMARK                         _______ _______ _______ _____ _____    ______ ____
ROOT
ATOM      1  C   UNL     1       1.863   5.516  19.989  0.00  0.00    +0.000 C 
ATOM      2  C   UNL     1       1.850   4.602  21.225  0.00  0.00    +0.000 C 
ATOM      3  C   UNL     1       1.618   3.208  20.670  0.00  0.00    +0.000 C 
ATOM      4  C   UNL     1       2.229   3.240  19.281  0.00  0.00    +0.000 C 
ATOM      5  N   UNL     1       2.490   4.640  18.972  0.00  0.00    +0.000 N 
ATOM      6  C   UNL     1       3.034   5.053  17.759  0.00  0.00    +0.000 C 
ATOM      7  O   UNL     1       3.169   6.236  17.464  0.00  0.00    +0.000 OA
ENDROOT
BRANCH   1   8
ATOM      8  C   UNL     1       2.514   6.874  20.298  0.00  0.00    +0.000 C 
BRANCH   8  13
ATOM      9  C   UNL     1      -0.227  10.954  19.191  0.00  0.00    +0.000 C 
ATOM     10  C   UNL     1       0.337   9.746  19.843  0.00  0.00    +0.000 A 
ATOM     11  C   UNL     1      -0.029   9.168  21.077  0.00  0.00    +0.000 A 
ATOM     12  N   UNL     1       0.693   8.085  21.376  0.00  0.00    +0.000 NA
ATOM     13  N   UNL     1       1.539   7.962  20.331  0.00  0.00    +0.000 N 
ATOM     14  C   UNL     1       1.353   8.934  19.387  0.00  0.00    +0.000 A 
ENDBRANCH   8  13
ENDBRANCH   1   8
BRANCH   6  15
ATOM     15  C   UNL     1       3.460   3.920  16.815  0.00  0.00    +0.000 C 
BRANCH  15  16
ATOM     16  C   UNL     1       4.899   3.433  16.986  0.00  0.00    +0.000 C 
BRANCH  16  17
ATOM     17  C   UNL     1       5.887   4.567  16.900  0.00  0.00    +0.000 A 
ATOM     18  C   UNL     1       6.539   5.095  15.746  0.00  0.00    +0.000 A 
ATOM     19  C   UNL     1       6.425   4.684  14.326  0.00  0.00    +0.000 C 
ATOM     20  N   UNL     1       7.366   6.100  16.054  0.00  0.00    +0.000 NA
ATOM     21  N   UNL     1       7.244   6.240  17.383  0.00  0.00    +0.000 N 
ATOM     22  C   UNL     1       8.007   7.273  18.045  0.00  0.00    +0.000 C 
ATOM     23  C   UNL     1       6.381   5.337  17.948  0.00  0.00    +0.000 A 
ATOM     24  C   UNL     1       6.091   5.271  19.403  0.00  0.00    +0.000 C 
ENDBRANCH  16  17
ENDBRANCH  15  16
ENDBRANCH   6  15
TORSDOF 5
ENDMDL
MODEL 7
REMARK VINA RESULT:      -6.9      1.798      7.160
REMARK  Name = 
REMARK  9 active torsions:
REMARK  status: ('A' for Active; 'I' for Inactive)
REMARK    1  A    between atoms: C_1  and  C_2
REMARK    2  A    between atoms: N_5  and  C_6
REMARK    3  A    between atoms: C_6  and  C_7
REMARK    4  A    between atoms: C_12  and  C_14
REMARK    5  A    between atoms: C_14  and  C_15
REMARK    6  A    between atoms: C_15  and  C_16
REMARK    7  A    between atoms: C_17  and  C_18
REMARK    8  A    between atoms: N_20  and  C_21
REMARK    9  A    between atoms: C_22  and  C_23
REMARK                            x       y       z     vdW  Elec       q    Type
REMARK                         _______ _______ _______ _____ _____    ______ ____
ROOT
ATOM      1  C   UNL     1       1.811   5.834  19.583  0.00  0.00    +0.000 C 
ATOM      2  C   UNL     1       1.539   5.039  20.871  0.00  0.00    +0.000 C 
ATOM      3  C   UNL     1       1.287   3.618  20.400  0.00  0.00    +0.000 C 
ATOM      4  C   UNL     1       2.101   3.484  19.126  0.00  0.00    +0.000 C 
ATOM      5  N   UNL     1       2.514   4.831  18.751  0.00  0.00    +0.000 N 
ATOM      6  C   UNL     1       3.266   5.096  17.611  0.00  0.00    +0.000 C 
ATOM      7  O   UNL     1       3.536   6.236  17.247  0.00  0.00    +0.000 OA
ENDROOT
BRANCH   1   8
ATOM      8  C   UNL     1       2.511   7.170  19.882  0.00  0.00    +0.000 C 
BRANCH   8  13
ATOM      9  C   UNL     1      -0.708  11.041  20.076  0.00  0.00    +0.000 C 
ATOM     10  C   UNL     1       0.272  10.018  19.631  0.00  0.00    +0.000 A 
ATOM     11  C   UNL     1       0.801   9.821  18.338  0.00  0.00    +0.000 A 
ATOM     12  N   UNL     1       1.656   8.797  18.280  0.00  0.00    +0.000 NA
ATOM     13  N   UNL     1       1.678   8.321  19.543  0.00  0.00    +0.000 N 
ATOM     14  C   UNL     1       0.867   9.032  20.386  0.00  0.00    +0.000 A 
ENDBRANCH   8  13
ENDBRANCH   1   8
BRANCH   6  15
ATOM     15  C   UNL     1       3.740   3.857  16.839  0.00  0.00    +0.000 C 
BRANCH  15  16
ATOM     16  C   UNL     1       5.201   3.466  17.065  0.00  0.00    +0.000 C 
BRANCH  16  17
ATOM     17  C   UNL     1       6.120   4.655  16.964  0.00  0.00    +0.000 A 
ATOM     18  C   UNL     1       6.720   5.221  15.801  0.00  0.00    +0.000 A 
ATOM     19  C   UNL     1       6.606   4.806  14.382  0.00  0.00    +0.000 C 
ATOM     20  N   UNL     1       7.493   6.272  16.097  0.00  0.00    +0.000 NA
ATOM     21  N   UNL     1       7.387   6.403  17.428  0.00  0.00    +0.000 N 
ATOM     22  C   UNL     1       8.100   7.477  18.079  0.00  0.00    +0.000 C 
ATOM     23  C   UNL     1       6.587   5.450  18.006  0.00  0.00    +0.000 A 
ATOM     24  C   UNL     1       6.327   5.366  19.465  0.00  0.00    +0.000 C 
ENDBRANCH  16  17
ENDBRANCH  15  16
ENDBRANCH   6  15
TORSDOF 5
ENDMDL
MODEL 8
REMARK VINA RESULT:      -6.9      1.406      2.364
REMARK  Name = 
REMARK  9 active torsions:
REMARK  status: ('A' for Active; 'I' for Inactive)
REMARK    1  A    between atoms: C_1  and  C_2
REMARK    2  A    between atoms: N_5  and  C_6
REMARK    3  A    between atoms: C_6  and  C_7
REMARK    4  A    between atoms: C_12  and  C_14
REMARK    5  A    between atoms: C_14  and  C_15
REMARK    6  A    between atoms: C_15  and  C_16
REMARK    7  A    between atoms: C_17  and  C_18
REMARK    8  A    between atoms: N_20  and  C_21
REMARK    9  A    between atoms: C_22  and  C_23
REMARK                            x       y       z     vdW  Elec       q    Type
REMARK                         _______ _______ _______ _____ _____    ______ ____
ROOT
ATOM      1  C   UNL     1       3.460   3.871  18.220  0.00  0.00    +0.000 C 
ATOM      2  C   UNL     1       2.642   2.664  17.733  0.00  0.00    +0.000 C 
ATOM      3  C   UNL     1       1.637   2.407  18.841  0.00  0.00    +0.000 C 
ATOM      4  C   UNL     1       1.399   3.768  19.469  0.00  0.00    +0.000 C 
ATOM      5  N   UNL     1       2.438   4.652  18.954  0.00  0.00    +0.000 N 
ATOM      6  C   UNL     1       2.545   5.987  19.334  0.00  0.00    +0.000 C 
ATOM      7  O   UNL     1       3.472   6.705  18.972  0.00  0.00    +0.000 OA
ENDROOT
BRANCH   1   8
ATOM      8  C   UNL     1       4.216   4.544  17.064  0.00  0.00    +0.000 C 
BRANCH   8  13
ATOM      9  C   UNL     1       8.007   7.782  17.794  0.00  0.00    +0.000 C 
ATOM     10  C   UNL     1       7.114   6.597  17.828  0.00  0.00    +0.000 A 
ATOM     11  C   UNL     1       7.315   5.371  18.496  0.00  0.00    +0.000 A 
ATOM     12  N   UNL     1       6.314   4.509  18.307  0.00  0.00    +0.000 NA
ATOM     13  N   UNL     1       5.457   5.177  17.506  0.00  0.00    +0.000 N 
ATOM     14  C   UNL     1       5.897   6.436  17.202  0.00  0.00    +0.000 A 
ENDBRANCH   8  13
ENDBRANCH   1   8
BRANCH   6  15
ATOM     15  C   UNL     1       1.416   6.501  20.238  0.00  0.00    +0.000 C 
BRANCH  15  16
ATOM     16  C   UNL     1       1.761   7.733  21.076  0.00  0.00    +0.000 C 
BRANCH  16  17
ATOM     17  C   UNL     1       0.919   8.922  20.695  0.00  0.00    +0.000 A 
ATOM     18  C   UNL     1       0.803   9.561  19.425  0.00  0.00    +0.000 A 
ATOM     19  C   UNL     1       1.467   9.235  18.139  0.00  0.00    +0.000 C 
ATOM     20  N   UNL     1      -0.035  10.603  19.463  0.00  0.00    +0.000 NA
ATOM     21  N   UNL     1      -0.473  10.635  20.730  0.00  0.00    +0.000 N 
ATOM     22  C   UNL     1      -1.426  11.653  21.109  0.00  0.00    +0.000 C 
ATOM     23  C   UNL     1       0.076   9.659  21.521  0.00  0.00    +0.000 A 
ATOM     24  C   UNL     1      -0.230   9.496  22.964  0.00  0.00    +0.000 C 
ENDBRANCH  16  17
ENDBRANCH  15  16
ENDBRANCH   6  15
TORSDOF 5
ENDMDL
MODEL 9
REMARK VINA RESULT:      -6.8      2.526      5.170
REMARK  Name = 
REMARK  9 active torsions:
REMARK  status: ('A' for Active; 'I' for Inactive)
REMARK    1  A    between atoms: C_1  and  C_2
REMARK    2  A    between atoms: N_5  and  C_6
REMARK    3  A    between atoms: C_6  and  C_7
REMARK    4  A    between atoms: C_12  and  C_14
REMARK    5  A    between atoms: C_14  and  C_15
REMARK    6  A    between atoms: C_15  and  C_16
REMARK    7  A    between atoms: C_17  and  C_18
REMARK    8  A    between atoms: N_20  and  C_21
REMARK    9  A    between atoms: C_22  and  C_23
REMARK                            x       y       z     vdW  Elec       q    Type
REMARK                         _______ _______ _______ _____ _____    ______ ____
ROOT
ATOM      1  C   UNL     1       7.054   4.432  17.136  0.00  0.00    +0.000 C 
ATOM      2  C   UNL     1       7.274   5.217  15.831  0.00  0.00    +0.000 C 
ATOM      3  C   UNL     1       6.395   4.518  14.810  0.00  0.00    +0.000 C 
ATOM      4  C   UNL     1       5.245   3.946  15.618  0.00  0.00    +0.000 C 
ATOM      5  N   UNL     1       5.629   4.047  17.020  0.00  0.00    +0.000 N 
ATOM      6  C   UNL     1       4.816   3.595  18.056  0.00  0.00    +0.000 C 
ATOM      7  O   UNL     1       5.178   3.597  19.229  0.00  0.00    +0.000 OA
ENDROOT
BRANCH   1   8
ATOM      8  C   UNL     1       7.505   5.241  18.363  0.00  0.00    +0.000 C 
BRANCH   8  13
ATOM      9  C   UNL     1       8.806  10.107  18.284  0.00  0.00    +0.000 C 
ATOM     10  C   UNL     1       8.130   8.805  18.057  0.00  0.00    +0.000 A 
ATOM     11  C   UNL     1       6.974   8.543  17.293  0.00  0.00    +0.000 A 
ATOM     12  N   UNL     1       6.624   7.255  17.308  0.00  0.00    +0.000 NA
ATOM     13  N   UNL     1       7.557   6.676  18.094  0.00  0.00    +0.000 N 
ATOM     14  C   UNL     1       8.483   7.571  18.557  0.00  0.00    +0.000 A 
ENDBRANCH   8  13
ENDBRANCH   1   8
BRANCH   6  15
ATOM     15  C   UNL     1       3.429   3.096  17.628  0.00  0.00    +0.000 C 
BRANCH  15  16
ATOM     16  C   UNL     1       2.383   4.189  17.405  0.00  0.00    +0.000 C 
BRANCH  16  17
ATOM     17  C   UNL     1       2.073   4.934  18.676  0.00  0.00    +0.000 A 
ATOM     18  C   UNL     1       1.514   4.433  19.889  0.00  0.00    +0.000 A 
ATOM     19  C   UNL     1       1.090   3.054  20.235  0.00  0.00    +0.000 C 
ATOM     20  N   UNL     1       1.367   5.394  20.808  0.00  0.00    +0.000 NA
ATOM     21  N   UNL     1       1.837   6.501  20.214  0.00  0.00    +0.000 N 
ATOM     22  C   UNL     1       1.838   7.740  20.957  0.00  0.00    +0.000 C 
ATOM     23  C   UNL     1       2.262   6.289  18.927  0.00  0.00    +0.000 A 
ATOM     24  C   UNL     1       2.804   7.358  18.051  0.00  0.00    +0.000 C 
ENDBRANCH  16  17
ENDBRANCH  15  16
ENDBRANCH   6  15
TORSDOF 5
ENDMDL
