MODEL 1
REMARK VINA RESULT:      -8.3      0.000      0.000
REMARK  Name = 
REMARK  9 active torsions:
REMARK  status: ('A' for Active; 'I' for Inactive)
REMARK    1  A    between atoms: C_1  and  C_2
REMARK    2  A    between atoms: C_2  and  C_3
REMARK    3  A    between atoms: C_3  and  C_4
REMARK    4  A    between atoms: C_3  and  N_5
REMARK    5  A    between atoms: N_5  and  C_6
REMARK    6  A    between atoms: C_11  and  N_12
REMARK    7  A    between atoms: C_15  and  O_16
REMARK    8  A    between atoms: O_16  and  C_17
REMARK    9  A    between atoms: C_30  and  C_31
REMARK                            x       y       z     vdW  Elec       q    Type
REMARK                         _______ _______ _______ _____ _____    ______ ____
ROOT
ATOM      1  C   UNL     1       2.614   5.125  18.200  0.00  0.00    +0.000 A 
ATOM      2  N   UNL     1       3.536   4.375  17.555  0.00  0.00    +0.000 NA
ATOM      3  C   UNL     1       4.651   5.007  17.125  0.00  0.00    +0.000 A 
ATOM      4  C   UNL     1       4.880   6.353  17.389  0.00  0.00    +0.000 A 
ATOM      5  N   UNL     1       3.989   7.102  18.085  0.00  0.00    +0.000 NA
ATOM      6  C   UNL     1       2.844   6.497  18.510  0.00  0.00    +0.000 A 
ATOM      7  C   UNL     1       6.084   7.059  16.824  0.00  0.00    +0.000 C 
ATOM      8  C   UNL     1       7.185   6.071  16.441  0.00  0.00    +0.000 C 
ATOM      9  N   UNL     1       6.629   4.987  15.629  0.00  0.00    +0.000 N 
ATOM     10  C   UNL     1       7.047   4.828  14.328  0.00  0.00    +0.000 C 
ATOM     11  C   UNL     1       6.467   3.724  13.472  0.00  0.00    +0.000 C 
ATOM     12  O   UNL     1       7.881   5.581  13.819  0.00  0.00    +0.000 OA
ATOM     13  C   UNL     1       5.626   4.180  16.327  0.00  0.00    +0.000 C 
ENDROOT
BRANCH   6  14
ATOM     14  N   UNL     1       1.920   7.299  19.147  0.00  0.00    +0.000 N 
ATOM     15  C   UNL     1       1.284   8.362  18.393  0.00  0.00    +0.000 C 
ATOM     16  C   UNL     1       1.630   9.688  19.045  0.00  0.00    +0.000 C 
ATOM     17  C   UNL     1       1.198   9.709  20.520  0.00  0.00    +0.000 C 
ATOM     18  C   UNL     1       1.814   8.511  21.259  0.00  0.00    +0.000 C 
ATOM     19  C   UNL     1       1.559   7.178  20.549  0.00  0.00    +0.000 C 
BRANCH  17  20
ATOM     20  O   UNL     1      -0.231   9.636  20.667  0.00  0.00    +0.000 OA
BRANCH  20  21
ATOM     21  C   UNL     1      -0.864  10.753  21.145  0.00  0.00    +0.000 A 
ATOM     22  C   UNL     1      -1.419  11.748  20.336  0.00  0.00    +0.000 A 
ATOM     23  C   UNL     1      -2.112  12.818  20.904  0.00  0.00    +0.000 A 
ATOM     24  C   UNL     1      -2.228  12.906  22.286  0.00  0.00    +0.000 A 
ATOM     25  F   UNL     1      -2.891  13.940  22.821  0.00  0.00    +0.000 F 
ATOM     26  C   UNL     1      -1.676  11.942  23.114  0.00  0.00    +0.000 A 
ATOM     27  C   UNL     1      -1.008  10.864  22.535  0.00  0.00    +0.000 A 
ATOM     28  F   UNL     1      -0.479   9.932  23.344  0.00  0.00    +0.000 F 
ENDBRANCH  20  21
ENDBRANCH  17  20
ENDBRANCH   6  14
BRANCH   1  29
ATOM     29  N   UNL     1       1.388   4.508  18.518  0.00  0.00    +0.000 N 
ATOM     30  H   UNL     1       0.814   5.211  18.972  0.00  0.00    +0.000 HD
BRANCH  29  31
ATOM     31  C   UNL     1       1.465   3.267  19.291  0.00  0.00    +0.000 C 
ATOM     32  C   UNL     1       0.533   2.196  18.709  0.00  0.00    +0.000 C 
BRANCH  31  34
ATOM     33  C   UNL     1       2.042   2.999  21.794  0.00  0.00    +0.000 C 
ATOM     34  C   UNL     1       1.090   3.584  20.753  0.00  0.00    +0.000 C 
ENDBRANCH  31  34
ENDBRANCH  29  31
ENDBRANCH   1  29
TORSDOF 6
ENDMDL
MODEL 2
REMARK VINA RESULT:      -8.2      0.832      1.180
REMARK  Name = 
REMARK  9 active torsions:
REMARK  status: ('A' for Active; 'I' for Inactive)
REMARK    1  A    between atoms: C_1  and  C_2
REMARK    2  A    between atoms: C_2  and  C_3
REMARK    3  A    between atoms: C_3  and  C_4
REMARK    4  A    between atoms: C_3  and  N_5
REMARK    5  A    between atoms: N_5  and  C_6
REMARK    6  A    between atoms: C_11  and  N_12
REMARK    7  A    between atoms: C_15  and  O_16
REMARK    8  A    between atoms: O_16  and  C_17
REMARK    9  A    between atoms: C_30  and  C_31
REMARK                            x       y       z     vdW  Elec       q    Type
REMARK                         _______ _______ _______ _____ _____    ______ ____
ROOT
ATOM      1  C   UNL     1       2.604   5.120  18.172  0.00  0.00    +0.000 A 
ATOM      2  N   UNL     1       3.530   4.369  17.533  0.00  0.00    +0.000 NA
ATOM      3  C   UNL     1       4.646   5.002  17.106  0.00  0.00    +0.000 A 
ATOM      4  C   UNL     1       4.873   6.349  17.367  0.00  0.00    +0.000 A 
ATOM      5  N   UNL     1       3.978   7.098  18.058  0.00  0.00    +0.000 NA
ATOM      6  C   UNL     1       2.832   6.493  18.480  0.00  0.00    +0.000 A 
ATOM      7  C   UNL     1       6.079   7.053  16.806  0.00  0.00    +0.000 C 
ATOM      8  C   UNL     1       7.182   6.066  16.430  0.00  0.00    +0.000 C 
ATOM      9  N   UNL     1       6.630   4.979  15.619  0.00  0.00    +0.000 N 
ATOM     10  C   UNL     1       7.053   4.817  14.320  0.00  0.00    +0.000 C 
ATOM     11  C   UNL     1       6.478   3.712  13.464  0.00  0.00    +0.000 C 
ATOM     12  O   UNL     1       7.889   5.570  13.812  0.00  0.00    +0.000 OA
ATOM     13  C   UNL     1       5.625   4.174  16.314  0.00  0.00    +0.000 C 
ENDROOT
BRANCH   6  14
ATOM     14  N   UNL     1       1.904   7.296  19.112  0.00  0.00    +0.000 N 
ATOM     15  C   UNL     1       1.281   8.365  18.356  0.00  0.00    +0.000 C 
ATOM     16  C   UNL     1       1.626   9.686  19.019  0.00  0.00    +0.000 C 
ATOM     17  C   UNL     1       1.179   9.702  20.489  0.00  0.00    +0.000 C 
ATOM     18  C   UNL     1       1.781   8.498  21.228  0.00  0.00    +0.000 C 
ATOM     19  C   UNL     1       1.528   7.169  20.509  0.00  0.00    +0.000 C 
BRANCH  17  20
ATOM     20  O   UNL     1      -0.252   9.634  20.621  0.00  0.00    +0.000 OA
BRANCH  20  21
ATOM     21  C   UNL     1      -0.877  10.720  21.177  0.00  0.00    +0.000 A 
ATOM     22  C   UNL     1      -0.937  10.974  22.549  0.00  0.00    +0.000 A 
ATOM     23  C   UNL     1      -1.531  12.143  23.028  0.00  0.00    +0.000 A 
ATOM     24  C   UNL     1      -2.090  13.046  22.131  0.00  0.00    +0.000 A 
ATOM     25  F   UNL     1      -2.662  14.163  22.602  0.00  0.00    +0.000 F 
ATOM     26  C   UNL     1      -2.057  12.814  20.766  0.00  0.00    +0.000 A 
ATOM     27  C   UNL     1      -1.439  11.656  20.298  0.00  0.00    +0.000 A 
ATOM     28  F   UNL     1      -1.409  11.440  18.973  0.00  0.00    +0.000 F 
ENDBRANCH  20  21
ENDBRANCH  17  20
ENDBRANCH   6  14
BRANCH   1  29
ATOM     29  N   UNL     1       1.378   4.503  18.487  0.00  0.00    +0.000 N 
ATOM     30  H   UNL     1       0.804   5.204  18.944  0.00  0.00    +0.000 HD
BRANCH  29  31
ATOM     31  C   UNL     1       1.453   3.258  19.253  0.00  0.00    +0.000 C 
ATOM     32  C   UNL     1       0.549   2.178  18.643  0.00  0.00    +0.000 C 
BRANCH  31  34
ATOM     33  C   UNL     1       2.168   3.434  21.728  0.00  0.00    +0.000 C 
ATOM     34  C   UNL     1       1.040   3.560  20.709  0.00  0.00    +0.000 C 
ENDBRANCH  31  34
ENDBRANCH  29  31
ENDBRANCH   1  29
TORSDOF 6
ENDMDL
MODEL 3
REMARK VINA RESULT:      -7.9      4.535      9.467
REMARK  Name = 
REMARK  9 active torsions:
REMARK  status: ('A' for Active; 'I' for Inactive)
REMARK    1  A    between atoms: C_1  and  C_2
REMARK    2  A    between atoms: C_2  and  C_3
REMARK    3  A    between atoms: C_3  and  C_4
REMARK    4  A    between atoms: C_3  and  N_5
REMARK    5  A    between atoms: N_5  and  C_6
REMARK    6  A    between atoms: C_11  and  N_12
REMARK    7  A    between atoms: C_15  and  O_16
REMARK    8  A    between atoms: O_16  and  C_17
REMARK    9  A    between atoms: C_30  and  C_31
REMARK                            x       y       z     vdW  Elec       q    Type
REMARK                         _______ _______ _______ _____ _____    ______ ____
ROOT
ATOM      1  C   UNL     1      -0.656  11.444  18.543  0.00  0.00    +0.000 A 
ATOM      2  N   UNL     1      -0.829  12.784  18.478  0.00  0.00    +0.000 NA
ATOM      3  C   UNL     1       0.244  13.557  18.756  0.00  0.00    +0.000 A 
ATOM      4  C   UNL     1       1.493  13.009  19.031  0.00  0.00    +0.000 A 
ATOM      5  N   UNL     1       1.692  11.668  19.042  0.00  0.00    +0.000 NA
ATOM      6  C   UNL     1       0.623  10.863  18.789  0.00  0.00    +0.000 A 
ATOM      7  C   UNL     1       2.652  13.885  19.425  0.00  0.00    +0.000 C 
ATOM      8  C   UNL     1       2.440  15.331  18.980  0.00  0.00    +0.000 C 
ATOM      9  N   UNL     1       1.112  15.793  19.386  0.00  0.00    +0.000 N 
ATOM     10  C   UNL     1       0.996  16.825  20.289  0.00  0.00    +0.000 C 
ATOM     11  C   UNL     1      -0.370  17.301  20.731  0.00  0.00    +0.000 C 
ATOM     12  O   UNL     1       1.988  17.375  20.774  0.00  0.00    +0.000 OA
ATOM     13  C   UNL     1       0.013  15.046  18.772  0.00  0.00    +0.000 C 
ENDROOT
BRANCH   6  14
ATOM     14  N   UNL     1       0.835   9.503  18.883  0.00  0.00    +0.000 N 
ATOM     15  C   UNL     1       0.572   8.844  20.148  0.00  0.00    +0.000 C 
ATOM     16  C   UNL     1       1.866   8.228  20.647  0.00  0.00    +0.000 C 
ATOM     17  C   UNL     1       2.450   7.251  19.615  0.00  0.00    +0.000 C 
ATOM     18  C   UNL     1       2.619   7.962  18.263  0.00  0.00    +0.000 C 
ATOM     19  C   UNL     1       1.345   8.677  17.803  0.00  0.00    +0.000 C 
BRANCH  17  20
ATOM     20  O   UNL     1       1.601   6.107  19.412  0.00  0.00    +0.000 OA
BRANCH  20  21
ATOM     21  C   UNL     1       2.218   4.920  19.116  0.00  0.00    +0.000 A 
ATOM     22  C   UNL     1       3.182   4.313  19.925  0.00  0.00    +0.000 A 
ATOM     23  C   UNL     1       3.708   3.065  19.585  0.00  0.00    +0.000 A 
ATOM     24  C   UNL     1       3.287   2.436  18.420  0.00  0.00    +0.000 A 
ATOM     25  F   UNL     1       3.802   1.241  18.102  0.00  0.00    +0.000 F 
ATOM     26  C   UNL     1       2.342   3.020  17.592  0.00  0.00    +0.000 A 
ATOM     27  C   UNL     1       1.805   4.255  17.954  0.00  0.00    +0.000 A 
ATOM     28  F   UNL     1       0.888   4.812  17.147  0.00  0.00    +0.000 F 
ENDBRANCH  20  21
ENDBRANCH  17  20
ENDBRANCH   6  14
BRANCH   1  29
ATOM     29  N   UNL     1      -1.801  10.637  18.402  0.00  0.00    +0.000 N 
ATOM     30  H   UNL     1      -1.483   9.674  18.381  0.00  0.00    +0.000 HD
BRANCH  29  31
ATOM     31  C   UNL     1      -2.688  10.955  17.282  0.00  0.00    +0.000 C 
ATOM     32  C   UNL     1      -4.161  10.886  17.706  0.00  0.00    +0.000 C 
BRANCH  31  34
ATOM     33  C   UNL     1      -3.128  10.263  14.833  0.00  0.00    +0.000 C 
ATOM     34  C   UNL     1      -2.399   9.959  16.139  0.00  0.00    +0.000 C 
ENDBRANCH  31  34
ENDBRANCH  29  31
ENDBRANCH   1  29
TORSDOF 6
ENDMDL
MODEL 4
REMARK VINA RESULT:      -7.7      4.472      9.333
REMARK  Name = 
REMARK  9 active torsions:
REMARK  status: ('A' for Active; 'I' for Inactive)
REMARK    1  A    between atoms: C_1  and  C_2
REMARK    2  A    between atoms: C_2  and  C_3
REMARK    3  A    between atoms: C_3  and  C_4
REMARK    4  A    between atoms: C_3  and  N_5
REMARK    5  A    between atoms: N_5  and  C_6
REMARK    6  A    between atoms: C_11  and  N_12
REMARK    7  A    between atoms: C_15  and  O_16
REMARK    8  A    between atoms: O_16  and  C_17
REMARK    9  A    between atoms: C_30  and  C_31
REMARK                            x       y       z     vdW  Elec       q    Type
REMARK                         _______ _______ _______ _____ _____    ______ ____
ROOT
ATOM      1  C   UNL     1      -0.582  11.602  18.585  0.00  0.00    +0.000 A 
ATOM      2  N   UNL     1      -0.693  12.947  18.497  0.00  0.00    +0.000 NA
ATOM      3  C   UNL     1       0.428  13.671  18.715  0.00  0.00    +0.000 A 
ATOM      4  C   UNL     1       1.658  13.068  18.952  0.00  0.00    +0.000 A 
ATOM      5  N   UNL     1       1.792  11.719  18.985  0.00  0.00    +0.000 NA
ATOM      6  C   UNL     1       0.675  10.963  18.793  0.00  0.00    +0.000 A 
ATOM      7  C   UNL     1       2.874  13.893  19.280  0.00  0.00    +0.000 C 
ATOM      8  C   UNL     1       2.715  15.338  18.812  0.00  0.00    +0.000 C 
ATOM      9  N   UNL     1       1.428  15.874  19.259  0.00  0.00    +0.000 N 
ATOM     10  C   UNL     1       1.400  16.929  20.143  0.00  0.00    +0.000 C 
ATOM     11  C   UNL     1       0.079  17.480  20.628  0.00  0.00    +0.000 C 
ATOM     12  O   UNL     1       2.437  17.438  20.576  0.00  0.00    +0.000 OA
ATOM     13  C   UNL     1       0.270  15.170  18.706  0.00  0.00    +0.000 C 
ENDROOT
BRANCH   6  14
ATOM     14  N   UNL     1       0.825   9.596  18.909  0.00  0.00    +0.000 N 
ATOM     15  C   UNL     1       0.565   8.975  20.194  0.00  0.00    +0.000 C 
ATOM     16  C   UNL     1       1.841   8.307  20.671  0.00  0.00    +0.000 C 
ATOM     17  C   UNL     1       2.349   7.283  19.644  0.00  0.00    +0.000 C 
ATOM     18  C   UNL     1       2.515   7.959  18.274  0.00  0.00    +0.000 C 
ATOM     19  C   UNL     1       1.265   8.726  17.833  0.00  0.00    +0.000 C 
BRANCH  17  20
ATOM     20  O   UNL     1       1.441   6.178  19.486  0.00  0.00    +0.000 OA
BRANCH  20  21
ATOM     21  C   UNL     1       1.984   4.976  19.115  0.00  0.00    +0.000 A 
ATOM     22  C   UNL     1       2.084   4.534  17.793  0.00  0.00    +0.000 A 
ATOM     23  C   UNL     1       2.719   3.326  17.497  0.00  0.00    +0.000 A 
ATOM     24  C   UNL     1       3.231   2.548  18.528  0.00  0.00    +0.000 A 
ATOM     25  F   UNL     1       3.833   1.388  18.232  0.00  0.00    +0.000 F 
ATOM     26  C   UNL     1       3.134   2.954  19.848  0.00  0.00    +0.000 A 
ATOM     27  C   UNL     1       2.521   4.174  20.131  0.00  0.00    +0.000 A 
ATOM     28  F   UNL     1       2.434   4.562  21.414  0.00  0.00    +0.000 F 
ENDBRANCH  20  21
ENDBRANCH  17  20
ENDBRANCH   6  14
BRANCH   1  29
ATOM     29  N   UNL     1      -1.770  10.850  18.508  0.00  0.00    +0.000 N 
ATOM     30  H   UNL     1      -1.507   9.873  18.583  0.00  0.00    +0.000 HD
BRANCH  29  31
ATOM     31  C   UNL     1      -2.630  11.107  17.352  0.00  0.00    +0.000 C 
ATOM     32  C   UNL     1      -4.108  11.162  17.762  0.00  0.00    +0.000 C 
BRANCH  31  34
ATOM     33  C   UNL     1      -2.972  10.275  14.931  0.00  0.00    +0.000 C 
ATOM     34  C   UNL     1      -2.390   9.992  16.313  0.00  0.00    +0.000 C 
ENDBRANCH  31  34
ENDBRANCH  29  31
ENDBRANCH   1  29
TORSDOF 6
ENDMDL
MODEL 5
REMARK VINA RESULT:      -7.6      3.856      9.256
REMARK  Name = 
REMARK  9 active torsions:
REMARK  status: ('A' for Active; 'I' for Inactive)
REMARK    1  A    between atoms: C_1  and  C_2
REMARK    2  A    between atoms: C_2  and  C_3
REMARK    3  A    between atoms: C_3  and  C_4
REMARK    4  A    between atoms: C_3  and  N_5
REMARK    5  A    between atoms: N_5  and  C_6
REMARK    6  A    between atoms: C_11  and  N_12
REMARK    7  A    between atoms: C_15  and  O_16
REMARK    8  A    between atoms: O_16  and  C_17
REMARK    9  A    between atoms: C_30  and  C_31
REMARK                            x       y       z     vdW  Elec       q    Type
REMARK                         _______ _______ _______ _____ _____    ______ ____
ROOT
ATOM      1  C   UNL     1       2.644   5.524  19.870  0.00  0.00    +0.000 A 
ATOM      2  N   UNL     1       1.616   6.019  20.596  0.00  0.00    +0.000 NA
ATOM      3  C   UNL     1       1.286   7.314  20.390  0.00  0.00    +0.000 A 
ATOM      4  C   UNL     1       1.924   8.091  19.429  0.00  0.00    +0.000 A 
ATOM      5  N   UNL     1       2.917   7.588  18.655  0.00  0.00    +0.000 NA
ATOM      6  C   UNL     1       3.287   6.293  18.857  0.00  0.00    +0.000 A 
ATOM      7  C   UNL     1       1.602   9.554  19.279  0.00  0.00    +0.000 C 
ATOM      8  C   UNL     1       0.235   9.892  19.871  0.00  0.00    +0.000 C 
ATOM      9  N   UNL     1       0.121   9.340  21.222  0.00  0.00    +0.000 N 
ATOM     10  C   UNL     1      -0.019  10.188  22.296  0.00  0.00    +0.000 C 
ATOM     11  C   UNL     1      -0.119   9.632  23.698  0.00  0.00    +0.000 C 
ATOM     12  O   UNL     1      -0.048  11.413  22.153  0.00  0.00    +0.000 OA
ATOM     13  C   UNL     1       0.202   7.879  21.272  0.00  0.00    +0.000 C 
ENDROOT
BRANCH   6  14
ATOM     14  N   UNL     1       4.352   5.829  18.111  0.00  0.00    +0.000 N 
ATOM     15  C   UNL     1       5.489   5.255  18.804  0.00  0.00    +0.000 C 
ATOM     16  C   UNL     1       6.717   6.087  18.486  0.00  0.00    +0.000 C 
ATOM     17  C   UNL     1       6.960   6.159  16.970  0.00  0.00    +0.000 C 
ATOM     18  C   UNL     1       5.698   6.679  16.265  0.00  0.00    +0.000 C 
ATOM     19  C   UNL     1       4.434   5.910  16.663  0.00  0.00    +0.000 C 
BRANCH  17  20
ATOM     20  O   UNL     1       7.283   4.873  16.411  0.00  0.00    +0.000 OA
BRANCH  20  21
ATOM     21  C   UNL     1       7.200   4.749  15.049  0.00  0.00    +0.000 A 
ATOM     22  C   UNL     1       7.993   5.460  14.145  0.00  0.00    +0.000 A 
ATOM     23  C   UNL     1       7.894   5.219  12.774  0.00  0.00    +0.000 A 
ATOM     24  C   UNL     1       6.981   4.282  12.305  0.00  0.00    +0.000 A 
ATOM     25  F   UNL     1       6.891   4.062  10.986  0.00  0.00    +0.000 F 
ATOM     26  C   UNL     1       6.172   3.571  13.177  0.00  0.00    +0.000 A 
ATOM     27  C   UNL     1       6.297   3.802  14.546  0.00  0.00    +0.000 A 
ATOM     28  F   UNL     1       5.511   3.107  15.384  0.00  0.00    +0.000 F 
ENDBRANCH  20  21
ENDBRANCH  17  20
ENDBRANCH   6  14
BRANCH   1  29
ATOM     29  N   UNL     1       3.089   4.225  20.184  0.00  0.00    +0.000 N 
ATOM     30  H   UNL     1       3.824   3.998  19.523  0.00  0.00    +0.000 HD
BRANCH  29  31
ATOM     31  C   UNL     1       2.063   3.184  20.255  0.00  0.00    +0.000 C 
ATOM     32  C   UNL     1       1.962   2.603  21.672  0.00  0.00    +0.000 C 
BRANCH  31  34
ATOM     33  C   UNL     1       2.728   2.595  17.830  0.00  0.00    +0.000 C 
ATOM     34  C   UNL     1       2.419   2.083  19.234  0.00  0.00    +0.000 C 
ENDBRANCH  31  34
ENDBRANCH  29  31
ENDBRANCH   1  29
TORSDOF 6
ENDMDL
MODEL 6
REMARK VINA RESULT:      -7.6      3.691      9.091
REMARK  Name = 
REMARK  9 active torsions:
REMARK  status: ('A' for Active; 'I' for Inactive)
REMARK    1  A    between atoms: C_1  and  C_2
REMARK    2  A    between atoms: C_2  and  C_3
REMARK    3  A    between atoms: C_3  and  C_4
REMARK    4  A    between atoms: C_3  and  N_5
REMARK    5  A    between atoms: N_5  and  C_6
REMARK    6  A    between atoms: C_11  and  N_12
REMARK    7  A    between atoms: C_15  and  O_16
REMARK    8  A    between atoms: O_16  and  C_17
REMARK    9  A    between atoms: C_30  and  C_31
REMARK                            x       y       z     vdW  Elec       q    Type
REMARK                         _______ _______ _______ _____ _____    ______ ____
ROOT
ATOM      1  C   UNL     1       1.997   6.502  20.345  0.00  0.00    +0.000 A 
ATOM      2  N   UNL     1       0.983   7.248  20.839  0.00  0.00    +0.000 NA
ATOM      3  C   UNL     1       0.754   8.442  20.248  0.00  0.00    +0.000 A 
ATOM      4  C   UNL     1       1.478   8.863  19.138  0.00  0.00    +0.000 A 
ATOM      5  N   UNL     1       2.459   8.097  18.598  0.00  0.00    +0.000 NA
ATOM      6  C   UNL     1       2.729   6.900  19.189  0.00  0.00    +0.000 A 
ATOM      7  C   UNL     1       1.268  10.233  18.550  0.00  0.00    +0.000 C 
ATOM      8  C   UNL     1      -0.091  10.810  18.944  0.00  0.00    +0.000 C 
ATOM      9  N   UNL     1      -0.291  10.687  20.389  0.00  0.00    +0.000 N 
ATOM     10  C   UNL     1      -0.406  11.821  21.160  0.00  0.00    +0.000 C 
ATOM     11  C   UNL     1      -0.594  11.709  22.656  0.00  0.00    +0.000 C 
ATOM     12  O   UNL     1      -0.342  12.949  20.665  0.00  0.00    +0.000 OA
ATOM     13  C   UNL     1      -0.317   9.303  20.867  0.00  0.00    +0.000 C 
ENDROOT
BRANCH   6  14
ATOM     14  N   UNL     1       3.782   6.176  18.668  0.00  0.00    +0.000 N 
ATOM     15  C   UNL     1       3.904   6.063  17.228  0.00  0.00    +0.000 C 
ATOM     16  C   UNL     1       3.810   4.596  16.850  0.00  0.00    +0.000 C 
ATOM     17  C   UNL     1       4.886   3.769  17.572  0.00  0.00    +0.000 C 
ATOM     18  C   UNL     1       4.785   3.994  19.089  0.00  0.00    +0.000 C 
ATOM     19  C   UNL     1       4.772   5.478  19.470  0.00  0.00    +0.000 C 
BRANCH  17  20
ATOM     20  O   UNL     1       6.215   4.128  17.157  0.00  0.00    +0.000 OA
BRANCH  20  21
ATOM     21  C   UNL     1       6.452   4.182  15.808  0.00  0.00    +0.000 A 
ATOM     22  C   UNL     1       5.923   3.281  14.881  0.00  0.00    +0.000 A 
ATOM     23  C   UNL     1       6.154   3.452  13.515  0.00  0.00    +0.000 A 
ATOM     24  C   UNL     1       6.940   4.512  13.079  0.00  0.00    +0.000 A 
ATOM     25  F   UNL     1       7.160   4.663  11.766  0.00  0.00    +0.000 F 
ATOM     26  C   UNL     1       7.489   5.413  13.976  0.00  0.00    +0.000 A 
ATOM     27  C   UNL     1       7.230   5.248  15.336  0.00  0.00    +0.000 A 
ATOM     28  F   UNL     1       7.763   6.128  16.198  0.00  0.00    +0.000 F 
ENDBRANCH  20  21
ENDBRANCH  17  20
ENDBRANCH   6  14
BRANCH   1  29
ATOM     29  N   UNL     1       2.337   5.330  21.048  0.00  0.00    +0.000 N 
ATOM     30  H   UNL     1       3.283   5.086  20.775  0.00  0.00    +0.000 HD
BRANCH  29  31
ATOM     31  C   UNL     1       1.413   4.202  20.919  0.00  0.00    +0.000 C 
ATOM     32  C   UNL     1       1.954   2.958  21.638  0.00  0.00    +0.000 C 
BRANCH  31  34
ATOM     33  C   UNL     1       0.902   2.460  19.082  0.00  0.00    +0.000 C 
ATOM     34  C   UNL     1       1.203   3.918  19.417  0.00  0.00    +0.000 C 
ENDBRANCH  31  34
ENDBRANCH  29  31
ENDBRANCH   1  29
TORSDOF 6
ENDMDL
MODEL 7
REMARK VINA RESULT:      -7.5      1.466      2.116
REMARK  Name = 
REMARK  9 active torsions:
REMARK  status: ('A' for Active; 'I' for Inactive)
REMARK    1  A    between atoms: C_1  and  C_2
REMARK    2  A    between atoms: C_2  and  C_3
REMARK    3  A    between atoms: C_3  and  C_4
REMARK    4  A    between atoms: C_3  and  N_5
REMARK    5  A    between atoms: N_5  and  C_6
REMARK    6  A    between atoms: C_11  and  N_12
REMARK    7  A    between atoms: C_15  and  O_16
REMARK    8  A    between atoms: O_16  and  C_17
REMARK    9  A    between atoms: C_30  and  C_31
REMARK                            x       y       z     vdW  Elec       q    Type
REMARK                         _______ _______ _______ _____ _____    ______ ____
ROOT
ATOM      1  C   UNL     1       3.239   4.688  17.555  0.00  0.00    +0.000 A 
ATOM      2  N   UNL     1       3.813   3.810  16.701  0.00  0.00    +0.000 NA
ATOM      3  C   UNL     1       4.888   4.243  16.004  0.00  0.00    +0.000 A 
ATOM      4  C   UNL     1       5.428   5.509  16.201  0.00  0.00    +0.000 A 
ATOM      5  N   UNL     1       4.896   6.377  17.097  0.00  0.00    +0.000 NA
ATOM      6  C   UNL     1       3.797   5.977  17.795  0.00  0.00    +0.000 A 
ATOM      7  C   UNL     1       6.570   6.003  15.352  0.00  0.00    +0.000 C 
ATOM      8  C   UNL     1       7.332   4.846  14.708  0.00  0.00    +0.000 C 
ATOM      9  N   UNL     1       6.396   3.924  14.062  0.00  0.00    +0.000 N 
ATOM     10  C   UNL     1       6.443   3.750  12.698  0.00  0.00    +0.000 C 
ATOM     11  C   UNL     1       5.470   2.816  12.015  0.00  0.00    +0.000 C 
ATOM     12  O   UNL     1       7.255   4.358  11.996  0.00  0.00    +0.000 OA
ATOM     13  C   UNL     1       5.459   3.287  14.989  0.00  0.00    +0.000 C 
ENDROOT
BRANCH   6  14
ATOM     14  N   UNL     1       3.229   6.907  18.642  0.00  0.00    +0.000 N 
ATOM     15  C   UNL     1       3.081   6.569  20.045  0.00  0.00    +0.000 C 
ATOM     16  C   UNL     1       1.603   6.597  20.392  0.00  0.00    +0.000 C 
ATOM     17  C   UNL     1       0.986   7.969  20.075  0.00  0.00    +0.000 C 
ATOM     18  C   UNL     1       1.252   8.332  18.606  0.00  0.00    +0.000 C 
ATOM     19  C   UNL     1       2.729   8.203  18.219  0.00  0.00    +0.000 C 
BRANCH  17  20
ATOM     20  O   UNL     1       1.535   9.013  20.897  0.00  0.00    +0.000 OA
BRANCH  20  21
ATOM     21  C   UNL     1       0.643   9.840  21.529  0.00  0.00    +0.000 A 
ATOM     22  C   UNL     1      -0.156   9.456  22.608  0.00  0.00    +0.000 A 
ATOM     23  C   UNL     1      -0.986  10.383  23.241  0.00  0.00    +0.000 A 
ATOM     24  C   UNL     1      -1.035  11.691  22.775  0.00  0.00    +0.000 A 
ATOM     25  F   UNL     1      -1.839  12.572  23.387  0.00  0.00    +0.000 F 
ATOM     26  C   UNL     1      -0.264  12.098  21.698  0.00  0.00    +0.000 A 
ATOM     27  C   UNL     1       0.580  11.170  21.090  0.00  0.00    +0.000 A 
ATOM     28  F   UNL     1       1.326  11.573  20.048  0.00  0.00    +0.000 F 
ENDBRANCH  20  21
ENDBRANCH  17  20
ENDBRANCH   6  14
BRANCH   1  29
ATOM     29  N   UNL     1       2.034   4.296  18.170  0.00  0.00    +0.000 N 
ATOM     30  H   UNL     1       1.802   5.014  18.847  0.00  0.00    +0.000 HD
BRANCH  29  31
ATOM     31  C   UNL     1       2.005   2.953  18.751  0.00  0.00    +0.000 C 
ATOM     32  C   UNL     1       0.565   2.445  18.900  0.00  0.00    +0.000 C 
BRANCH  31  34
ATOM     33  C   UNL     1       1.788   2.831  21.321  0.00  0.00    +0.000 C 
ATOM     34  C   UNL     1       2.714   3.003  20.120  0.00  0.00    +0.000 C 
ENDBRANCH  31  34
ENDBRANCH  29  31
ENDBRANCH   1  29
TORSDOF 6
ENDMDL
MODEL 8
REMARK VINA RESULT:      -7.5      4.282      9.497
REMARK  Name = 
REMARK  9 active torsions:
REMARK  status: ('A' for Active; 'I' for Inactive)
REMARK    1  A    between atoms: C_1  and  C_2
REMARK    2  A    between atoms: C_2  and  C_3
REMARK    3  A    between atoms: C_3  and  C_4
REMARK    4  A    between atoms: C_3  and  N_5
REMARK    5  A    between atoms: N_5  and  C_6
REMARK    6  A    between atoms: C_11  and  N_12
REMARK    7  A    between atoms: C_15  and  O_16
REMARK    8  A    between atoms: O_16  and  C_17
REMARK    9  A    between atoms: C_30  and  C_31
REMARK                            x       y       z     vdW  Elec       q    Type
REMARK                         _______ _______ _______ _____ _____    ______ ____
ROOT
ATOM      1  C   UNL     1       3.317   6.034  19.315  0.00  0.00    +0.000 A 
ATOM      2  N   UNL     1       2.289   6.329  20.144  0.00  0.00    +0.000 NA
ATOM      3  C   UNL     1       1.672   7.518  19.959  0.00  0.00    +0.000 A 
ATOM      4  C   UNL     1       2.026   8.375  18.922  0.00  0.00    +0.000 A 
ATOM      5  N   UNL     1       3.016   8.063  18.050  0.00  0.00    +0.000 NA
ATOM      6  C   UNL     1       3.672   6.883  18.227  0.00  0.00    +0.000 A 
ATOM      7  C   UNL     1       1.387   9.732  18.789  0.00  0.00    +0.000 C 
ATOM      8  C   UNL     1       0.050   9.798  19.524  0.00  0.00    +0.000 C 
ATOM      9  N   UNL     1       0.199   9.283  20.887  0.00  0.00    +0.000 N 
ATOM     10  C   UNL     1      -0.004  10.123  21.958  0.00  0.00    +0.000 C 
ATOM     11  C   UNL     1       0.164   9.610  23.370  0.00  0.00    +0.000 C 
ATOM     12  O   UNL     1      -0.307  11.309  21.802  0.00  0.00    +0.000 OA
ATOM     13  C   UNL     1       0.592   7.875  20.947  0.00  0.00    +0.000 C 
ENDROOT
BRANCH   6  14
ATOM     14  N   UNL     1       4.726   6.625  17.374  0.00  0.00    +0.000 N 
ATOM     15  C   UNL     1       4.591   5.555  16.406  0.00  0.00    +0.000 C 
ATOM     16  C   UNL     1       5.663   4.517  16.684  0.00  0.00    +0.000 C 
ATOM     17  C   UNL     1       7.066   5.142  16.638  0.00  0.00    +0.000 C 
ATOM     18  C   UNL     1       7.135   6.334  17.605  0.00  0.00    +0.000 C 
ATOM     19  C   UNL     1       5.993   7.335  17.401  0.00  0.00    +0.000 C 
BRANCH  17  20
ATOM     20  O   UNL     1       7.404   5.617  15.323  0.00  0.00    +0.000 OA
BRANCH  20  21
ATOM     21  C   UNL     1       7.067   4.813  14.266  0.00  0.00    +0.000 A 
ATOM     22  C   UNL     1       6.056   3.849  14.303  0.00  0.00    +0.000 A 
ATOM     23  C   UNL     1       5.728   3.123  13.157  0.00  0.00    +0.000 A 
ATOM     24  C   UNL     1       6.432   3.342  11.979  0.00  0.00    +0.000 A 
ATOM     25  F   UNL     1       6.112   2.635  10.887  0.00  0.00    +0.000 F 
ATOM     26  C   UNL     1       7.449   4.281  11.917  0.00  0.00    +0.000 A 
ATOM     27  C   UNL     1       7.751   5.019  13.060  0.00  0.00    +0.000 A 
ATOM     28  F   UNL     1       8.736   5.929  12.990  0.00  0.00    +0.000 F 
ENDBRANCH  20  21
ENDBRANCH  17  20
ENDBRANCH   6  14
BRANCH   1  29
ATOM     29  N   UNL     1       4.058   4.869  19.596  0.00  0.00    +0.000 N 
ATOM     30  H   UNL     1       4.773   4.796  18.881  0.00  0.00    +0.000 HD
BRANCH  29  31
ATOM     31  C   UNL     1       3.292   3.631  19.747  0.00  0.00    +0.000 C 
ATOM     32  C   UNL     1       4.213   2.449  20.081  0.00  0.00    +0.000 C 
BRANCH  31  34
ATOM     33  C   UNL     1       1.092   2.881  18.621  0.00  0.00    +0.000 C 
ATOM     34  C   UNL     1       2.525   3.374  18.433  0.00  0.00    +0.000 C 
ENDBRANCH  31  34
ENDBRANCH  29  31
ENDBRANCH   1  29
TORSDOF 6
ENDMDL
MODEL 9
REMARK VINA RESULT:      -7.4      3.864      9.211
REMARK  Name = 
REMARK  9 active torsions:
REMARK  status: ('A' for Active; 'I' for Inactive)
REMARK    1  A    between atoms: C_1  and  C_2
REMARK    2  A    between atoms: C_2  and  C_3
REMARK    3  A    between atoms: C_3  and  C_4
REMARK    4  A    between atoms: C_3  and  N_5
REMARK    5  A    between atoms: N_5  and  C_6
REMARK    6  A    between atoms: C_11  and  N_12
REMARK    7  A    between atoms: C_15  and  O_16
REMARK    8  A    between atoms: O_16  and  C_17
REMARK    9  A    between atoms: C_30  and  C_31
REMARK                            x       y       z     vdW  Elec       q    Type
REMARK                         _______ _______ _______ _____ _____    ______ ____
ROOT
ATOM      1  C   UNL     1       2.685   5.542  19.796  0.00  0.00    +0.000 A 
ATOM      2  N   UNL     1       1.652   6.028  20.521  0.00  0.00    +0.000 NA
ATOM      3  C   UNL     1       1.315   7.321  20.321  0.00  0.00    +0.000 A 
ATOM      4  C   UNL     1       1.950   8.106  19.364  0.00  0.00    +0.000 A 
ATOM      5  N   UNL     1       2.948   7.612  18.590  0.00  0.00    +0.000 NA
ATOM      6  C   UNL     1       3.326   6.318  18.787  0.00  0.00    +0.000 A 
ATOM      7  C   UNL     1       1.620   9.568  19.218  0.00  0.00    +0.000 C 
ATOM      8  C   UNL     1       0.250   9.895  19.809  0.00  0.00    +0.000 C 
ATOM      9  N   UNL     1       0.136   9.336  21.158  0.00  0.00    +0.000 N 
ATOM     10  C   UNL     1      -0.011  10.180  22.235  0.00  0.00    +0.000 C 
ATOM     11  C   UNL     1      -0.111   9.618  23.635  0.00  0.00    +0.000 C 
ATOM     12  O   UNL     1      -0.047  11.405  22.096  0.00  0.00    +0.000 OA
ATOM     13  C   UNL     1       0.225   7.876  21.202  0.00  0.00    +0.000 C 
ENDROOT
BRANCH   6  14
ATOM     14  N   UNL     1       4.395   5.864  18.042  0.00  0.00    +0.000 N 
ATOM     15  C   UNL     1       5.545   5.318  18.736  0.00  0.00    +0.000 C 
ATOM     16  C   UNL     1       6.757   6.168  18.401  0.00  0.00    +0.000 C 
ATOM     17  C   UNL     1       6.992   6.225  16.883  0.00  0.00    +0.000 C 
ATOM     18  C   UNL     1       5.717   6.714  16.178  0.00  0.00    +0.000 C 
ATOM     19  C   UNL     1       4.469   5.928  16.593  0.00  0.00    +0.000 C 
BRANCH  17  20
ATOM     20  O   UNL     1       7.334   4.939  16.339  0.00  0.00    +0.000 OA
BRANCH  20  21
ATOM     21  C   UNL     1       7.226   4.789  14.981  0.00  0.00    +0.000 A 
ATOM     22  C   UNL     1       7.971   5.516  14.049  0.00  0.00    +0.000 A 
ATOM     23  C   UNL     1       7.851   5.249  12.684  0.00  0.00    +0.000 A 
ATOM     24  C   UNL     1       6.965   4.270  12.251  0.00  0.00    +0.000 A 
ATOM     25  F   UNL     1       6.854   4.026  10.938  0.00  0.00    +0.000 F 
ATOM     26  C   UNL     1       6.204   3.543  13.151  0.00  0.00    +0.000 A 
ATOM     27  C   UNL     1       6.350   3.801  14.513  0.00  0.00    +0.000 A 
ATOM     28  F   UNL     1       5.610   3.089  15.380  0.00  0.00    +0.000 F 
ENDBRANCH  20  21
ENDBRANCH  17  20
ENDBRANCH   6  14
BRANCH   1  29
ATOM     29  N   UNL     1       3.138   4.244  20.106  0.00  0.00    +0.000 N 
ATOM     30  H   UNL     1       4.128   4.217  19.887  0.00  0.00    +0.000 HD
BRANCH  29  31
ATOM     31  C   UNL     1       2.402   3.135  19.497  0.00  0.00    +0.000 C 
ATOM     32  C   UNL     1       1.812   3.541  18.140  0.00  0.00    +0.000 C 
BRANCH  31  34
ATOM     33  C   UNL     1       1.720   2.613  21.933  0.00  0.00    +0.000 C 
ATOM     34  C   UNL     1       1.288   2.701  20.472  0.00  0.00    +0.000 C 
ENDBRANCH  31  34
ENDBRANCH  29  31
ENDBRANCH   1  29
TORSDOF 6
ENDMDL
