MODEL 1
REMARK VINA RESULT:      -7.8      0.000      0.000
REMARK  Name = 
REMARK  8 active torsions:
REMARK  status: ('A' for Active; 'I' for Inactive)
REMARK    1  A    between atoms: C_1  and  N_2
REMARK    2  A    between atoms: N_2  and  C_3
REMARK    3  A    between atoms: N_2  and  C_4
REMARK    4  A    between atoms: C_4  and  C_5
REMARK    5  A    between atoms: C_5  and  C_6
REMARK    6  A    between atoms: C_6  and  N_7
REMARK    7  A    between atoms: N_7  and  C_8
REMARK    8  A    between atoms: C_15  and  C_16
REMARK                            x       y       z     vdW  Elec       q    Type
REMARK                         _______ _______ _______ _____ _____    ______ ____
ROOT
ATOM      1  C   UNL     1      -3.371  11.097  18.042  0.00  0.00    +0.000 A 
ATOM      2  C   UNL     1      -3.091  11.977  19.097  0.00  0.00    +0.000 A 
ATOM      3  C   UNL     1      -1.802  12.087  19.628  0.00  0.00    +0.000 A 
ATOM      4  C   UNL     1      -0.779  11.299  19.103  0.00  0.00    +0.000 A 
ATOM      5  C   UNL     1       0.573  11.293  19.687  0.00  0.00    +0.000 A 
ATOM      6  O   UNL     1       0.901  12.057  20.588  0.00  0.00    +0.000 OA
ATOM      7  N   UNL     1       1.439  10.355  19.177  0.00  0.00    +0.000 N 
ATOM      8  C   UNL     1       1.119   9.535  18.127  0.00  0.00    +0.000 A 
ATOM      9  N   UNL     1      -0.012   9.607  17.509  0.00  0.00    +0.000 NA
ATOM     10  C   UNL     1      -1.017  10.425  18.048  0.00  0.00    +0.000 A 
ATOM     11  C   UNL     1      -2.318  10.307  17.551  0.00  0.00    +0.000 A 
ATOM     12  H   UNL     1       2.345  10.325  19.619  0.00  0.00    +0.000 HD
ENDROOT
BRANCH   8  13
ATOM     13  C   UNL     1       2.194   8.596  17.738  0.00  0.00    +0.000 C 
ATOM     14  C   UNL     1       2.597   7.589  18.530  0.00  0.00    +0.000 C 
ATOM     15  C   UNL     1       2.107   7.248  19.924  0.00  0.00    +0.000 C 
ATOM     16  O   UNL     1       1.386   7.868  20.678  0.00  0.00    +0.000 OA
ATOM     17  N   UNL     1       2.745   6.064  20.248  0.00  0.00    +0.000 N 
ATOM     18  C   UNL     1       3.652   5.688  19.267  0.00  0.00    +0.000 A 
ATOM     19  C   UNL     1       4.515   4.614  19.332  0.00  0.00    +0.000 A 
ATOM     20  C   UNL     1       5.395   4.440  18.265  0.00  0.00    +0.000 A 
ATOM     21  C   UNL     1       5.385   5.331  17.176  0.00  0.00    +0.000 A 
ATOM     22  C   UNL     1       4.491   6.413  17.132  0.00  0.00    +0.000 A 
ATOM     23  C   UNL     1       3.621   6.585  18.193  0.00  0.00    +0.000 A 
ATOM     24  H   UNL     1       2.612   5.615  21.139  0.00  0.00    +0.000 HD
ENDBRANCH   8  13
BRANCH   1  25
ATOM     25  N   UNL     1      -4.671  10.866  17.561  0.00  0.00    +0.000 N 
ATOM     26  H   UNL     1      -4.638  10.398  16.656  0.00  0.00    +0.000 HD
BRANCH  25  27
ATOM     27  C   UNL     1      -5.604  11.993  17.560  0.00  0.00    +0.000 C 
BRANCH  27  28
ATOM     28  C   UNL     1      -6.916  11.571  18.222  0.00  0.00    +0.000 C 
BRANCH  28  29
ATOM     29  C   UNL     1      -6.710  11.116  19.674  0.00  0.00    +0.000 C 
BRANCH  29  31
ATOM     30  C   UNL     1      -5.796  12.556  21.417  0.00  0.00    +0.000 C 
ATOM     31  N   UNL     1      -6.996  12.153  20.681  0.00  0.00    +0.000 NA
ATOM     32  C   UNL     1      -7.601  13.325  20.042  0.00  0.00    +0.000 C 
ENDBRANCH  29  31
ENDBRANCH  28  29
ENDBRANCH  27  28
ENDBRANCH  25  27
ENDBRANCH   1  25
TORSDOF 6
ENDMDL
MODEL 2
REMARK VINA RESULT:      -7.8      3.561      9.959
REMARK  Name = 
REMARK  8 active torsions:
REMARK  status: ('A' for Active; 'I' for Inactive)
REMARK    1  A    between atoms: C_1  and  N_2
REMARK    2  A    between atoms: N_2  and  C_3
REMARK    3  A    between atoms: N_2  and  C_4
REMARK    4  A    between atoms: C_4  and  C_5
REMARK    5  A    between atoms: C_5  and  C_6
REMARK    6  A    between atoms: C_6  and  N_7
REMARK    7  A    between atoms: N_7  and  C_8
REMARK    8  A    between atoms: C_15  and  C_16
REMARK                            x       y       z     vdW  Elec       q    Type
REMARK                         _______ _______ _______ _____ _____    ______ ____
ROOT
ATOM      1  C   UNL     1       5.367   4.242  18.844  0.00  0.00    +0.000 A 
ATOM      2  C   UNL     1       4.597   3.108  19.137  0.00  0.00    +0.000 A 
ATOM      3  C   UNL     1       3.289   3.224  19.620  0.00  0.00    +0.000 A 
ATOM      4  C   UNL     1       2.747   4.492  19.822  0.00  0.00    +0.000 A 
ATOM      5  C   UNL     1       1.416   4.679  20.426  0.00  0.00    +0.000 A 
ATOM      6  O   UNL     1       0.673   3.738  20.677  0.00  0.00    +0.000 OA
ATOM      7  N   UNL     1       1.070   5.977  20.716  0.00  0.00    +0.000 N 
ATOM      8  C   UNL     1       1.854   7.052  20.384  0.00  0.00    +0.000 A 
ATOM      9  N   UNL     1       2.965   6.928  19.738  0.00  0.00    +0.000 NA
ATOM     10  C   UNL     1       3.477   5.639  19.530  0.00  0.00    +0.000 A 
ATOM     11  C   UNL     1       4.792   5.502  19.077  0.00  0.00    +0.000 A 
ATOM     12  H   UNL     1       0.179   6.090  21.175  0.00  0.00    +0.000 HD
ENDROOT
BRANCH   8  13
ATOM     13  C   UNL     1       1.298   8.361  20.792  0.00  0.00    +0.000 C 
ATOM     14  C   UNL     1       0.955   9.309  19.905  0.00  0.00    +0.000 C 
ATOM     15  C   UNL     1       1.099   9.269  18.395  0.00  0.00    +0.000 C 
ATOM     16  O   UNL     1       1.678   8.476  17.682  0.00  0.00    +0.000 OA
ATOM     17  N   UNL     1       0.491  10.428  17.947  0.00  0.00    +0.000 N 
ATOM     18  C   UNL     1       0.084  11.232  19.001  0.00  0.00    +0.000 A 
ATOM     19  C   UNL     1      -0.464  12.493  18.893  0.00  0.00    +0.000 A 
ATOM     20  C   UNL     1      -0.752  13.166  20.079  0.00  0.00    +0.000 A 
ATOM     21  C   UNL     1      -0.490  12.565  21.324  0.00  0.00    +0.000 A 
ATOM     22  C   UNL     1       0.062  11.277  21.407  0.00  0.00    +0.000 A 
ATOM     23  C   UNL     1       0.349  10.613  20.228  0.00  0.00    +0.000 A 
ATOM     24  H   UNL     1       0.459  10.666  16.969  0.00  0.00    +0.000 HD
ENDBRANCH   8  13
BRANCH   1  25
ATOM     25  N   UNL     1       6.721   4.174  18.475  0.00  0.00    +0.000 N 
ATOM     26  H   UNL     1       7.218   3.506  19.064  0.00  0.00    +0.000 HD
BRANCH  25  27
ATOM     27  C   UNL     1       7.453   5.435  18.344  0.00  0.00    +0.000 C 
BRANCH  27  28
ATOM     28  C   UNL     1       7.440   5.883  16.882  0.00  0.00    +0.000 C 
BRANCH  28  29
ATOM     29  C   UNL     1       7.315   4.697  15.915  0.00  0.00    +0.000 C 
BRANCH  29  31
ATOM     30  C   UNL     1       5.219   5.790  15.315  0.00  0.00    +0.000 C 
ATOM     31  N   UNL     1       5.974   4.536  15.326  0.00  0.00    +0.000 NA
ATOM     32  C   UNL     1       6.081   4.011  13.962  0.00  0.00    +0.000 C 
ENDBRANCH  29  31
ENDBRANCH  28  29
ENDBRANCH  27  28
ENDBRANCH  25  27
ENDBRANCH   1  25
TORSDOF 6
ENDMDL
MODEL 3
REMARK VINA RESULT:      -7.5      0.785      1.016
REMARK  Name = 
REMARK  8 active torsions:
REMARK  status: ('A' for Active; 'I' for Inactive)
REMARK    1  A    between atoms: C_1  and  N_2
REMARK    2  A    between atoms: N_2  and  C_3
REMARK    3  A    between atoms: N_2  and  C_4
REMARK    4  A    between atoms: C_4  and  C_5
REMARK    5  A    between atoms: C_5  and  C_6
REMARK    6  A    between atoms: C_6  and  N_7
REMARK    7  A    between atoms: N_7  and  C_8
REMARK    8  A    between atoms: C_15  and  C_16
REMARK                            x       y       z     vdW  Elec       q    Type
REMARK                         _______ _______ _______ _____ _____    ______ ____
ROOT
ATOM      1  C   UNL     1      -3.403  11.828  18.579  0.00  0.00    +0.000 A 
ATOM      2  C   UNL     1      -3.143  12.461  19.802  0.00  0.00    +0.000 A 
ATOM      3  C   UNL     1      -1.897  12.349  20.427  0.00  0.00    +0.000 A 
ATOM      4  C   UNL     1      -0.898  11.585  19.825  0.00  0.00    +0.000 A 
ATOM      5  C   UNL     1       0.396  11.344  20.484  0.00  0.00    +0.000 A 
ATOM      6  O   UNL     1       0.708  11.889  21.537  0.00  0.00    +0.000 OA
ATOM      7  N   UNL     1       1.226  10.446  19.857  0.00  0.00    +0.000 N 
ATOM      8  C   UNL     1       0.931   9.874  18.647  0.00  0.00    +0.000 A 
ATOM      9  N   UNL     1      -0.137  10.165  17.983  0.00  0.00    +0.000 NA
ATOM     10  C   UNL     1      -1.116  10.954  18.606  0.00  0.00    +0.000 A 
ATOM     11  C   UNL     1      -2.378  11.053  18.012  0.00  0.00    +0.000 A 
ATOM     12  H   UNL     1       2.089  10.249  20.342  0.00  0.00    +0.000 HD
ENDROOT
BRANCH   8  13
ATOM     13  C   UNL     1       1.958   8.931  18.151  0.00  0.00    +0.000 C 
ATOM     14  C   UNL     1       2.314   7.827  18.828  0.00  0.00    +0.000 C 
ATOM     15  C   UNL     1       1.810   7.360  20.181  0.00  0.00    +0.000 C 
ATOM     16  O   UNL     1       1.121   7.930  21.002  0.00  0.00    +0.000 OA
ATOM     17  N   UNL     1       2.391   6.119  20.371  0.00  0.00    +0.000 N 
ATOM     18  C   UNL     1       3.277   5.808  19.349  0.00  0.00    +0.000 A 
ATOM     19  C   UNL     1       4.086   4.693  19.292  0.00  0.00    +0.000 A 
ATOM     20  C   UNL     1       4.955   4.593  18.207  0.00  0.00    +0.000 A 
ATOM     21  C   UNL     1       4.987   5.596  17.220  0.00  0.00    +0.000 A 
ATOM     22  C   UNL     1       4.146   6.718  17.298  0.00  0.00    +0.000 A 
ATOM     23  C   UNL     1       3.287   6.816  18.378  0.00  0.00    +0.000 A 
ATOM     24  H   UNL     1       2.238   5.584  21.210  0.00  0.00    +0.000 HD
ENDBRANCH   8  13
BRANCH   1  25
ATOM     25  N   UNL     1      -4.673  11.812  17.978  0.00  0.00    +0.000 N 
ATOM     26  H   UNL     1      -5.072  12.750  17.964  0.00  0.00    +0.000 HD
BRANCH  25  27
ATOM     27  C   UNL     1      -5.636  10.817  18.453  0.00  0.00    +0.000 C 
BRANCH  27  28
ATOM     28  C   UNL     1      -6.840  11.527  19.074  0.00  0.00    +0.000 C 
BRANCH  28  29
ATOM     29  C   UNL     1      -6.749  11.589  20.605  0.00  0.00    +0.000 C 
BRANCH  29  31
ATOM     30  C   UNL     1      -7.913  13.708  20.923  0.00  0.00    +0.000 C 
ATOM     31  N   UNL     1      -6.678  12.955  21.153  0.00  0.00    +0.000 NA
ATOM     32  C   UNL     1      -6.386  12.910  22.588  0.00  0.00    +0.000 C 
ENDBRANCH  29  31
ENDBRANCH  28  29
ENDBRANCH  27  28
ENDBRANCH  25  27
ENDBRANCH   1  25
TORSDOF 6
ENDMDL
MODEL 4
REMARK VINA RESULT:      -7.5      1.533      2.170
REMARK  Name = 
REMARK  8 active torsions:
REMARK  status: ('A' for Active; 'I' for Inactive)
REMARK    1  A    between atoms: C_1  and  N_2
REMARK    2  A    between atoms: N_2  and  C_3
REMARK    3  A    between atoms: N_2  and  C_4
REMARK    4  A    between atoms: C_4  and  C_5
REMARK    5  A    between atoms: C_5  and  C_6
REMARK    6  A    between atoms: C_6  and  N_7
REMARK    7  A    between atoms: N_7  and  C_8
REMARK    8  A    between atoms: C_15  and  C_16
REMARK                            x       y       z     vdW  Elec       q    Type
REMARK                         _______ _______ _______ _____ _____    ______ ____
ROOT
ATOM      1  C   UNL     1      -2.043  12.437  19.936  0.00  0.00    +0.000 A 
ATOM      2  C   UNL     1      -1.286  13.611  19.829  0.00  0.00    +0.000 A 
ATOM      3  C   UNL     1      -0.008  13.602  19.261  0.00  0.00    +0.000 A 
ATOM      4  C   UNL     1       0.525  12.399  18.801  0.00  0.00    +0.000 A 
ATOM      5  C   UNL     1       1.903  12.306  18.290  0.00  0.00    +0.000 A 
ATOM      6  O   UNL     1       2.612  13.294  18.136  0.00  0.00    +0.000 OA
ATOM      7  N   UNL     1       2.355  11.037  18.021  0.00  0.00    +0.000 N 
ATOM      8  C   UNL     1       1.561   9.924  18.121  0.00  0.00    +0.000 A 
ATOM      9  N   UNL     1       0.313   9.988  18.441  0.00  0.00    +0.000 NA
ATOM     10  C   UNL     1      -0.202  11.216  18.880  0.00  0.00    +0.000 A 
ATOM     11  C   UNL     1      -1.465  11.241  19.479  0.00  0.00    +0.000 A 
ATOM     12  H   UNL     1       3.316  10.979  17.719  0.00  0.00    +0.000 HD
ENDROOT
BRANCH   8  13
ATOM     13  C   UNL     1       2.247   8.655  17.790  0.00  0.00    +0.000 C 
ATOM     14  C   UNL     1       2.391   7.657  18.677  0.00  0.00    +0.000 C 
ATOM     15  C   UNL     1       1.955   7.633  20.130  0.00  0.00    +0.000 C 
ATOM     16  O   UNL     1       1.539   8.524  20.841  0.00  0.00    +0.000 OA
ATOM     17  N   UNL     1       2.220   6.345  20.562  0.00  0.00    +0.000 N 
ATOM     18  C   UNL     1       2.866   5.602  19.585  0.00  0.00    +0.000 A 
ATOM     19  C   UNL     1       3.352   4.320  19.732  0.00  0.00    +0.000 A 
ATOM     20  C   UNL     1       4.028   3.766  18.646  0.00  0.00    +0.000 A 
ATOM     21  C   UNL     1       4.192   4.499  17.456  0.00  0.00    +0.000 A 
ATOM     22  C   UNL     1       3.680   5.801  17.329  0.00  0.00    +0.000 A 
ATOM     23  C   UNL     1       3.013   6.348  18.410  0.00  0.00    +0.000 A 
ATOM     24  H   UNL     1       2.041   6.055  21.509  0.00  0.00    +0.000 HD
ENDBRANCH   8  13
BRANCH   1  25
ATOM     25  N   UNL     1      -3.276  12.378  20.609  0.00  0.00    +0.000 N 
ATOM     26  H   UNL     1      -4.046  12.496  19.952  0.00  0.00    +0.000 HD
BRANCH  25  27
ATOM     27  C   UNL     1      -3.440  13.214  21.798  0.00  0.00    +0.000 C 
BRANCH  27  28
ATOM     28  C   UNL     1      -4.895  13.160  22.264  0.00  0.00    +0.000 C 
BRANCH  28  29
ATOM     29  C   UNL     1      -5.867  12.932  21.098  0.00  0.00    +0.000 C 
BRANCH  29  31
ATOM     30  C   UNL     1      -7.805  11.656  21.851  0.00  0.00    +0.000 C 
ATOM     31  N   UNL     1      -6.538  11.620  21.116  0.00  0.00    +0.000 NA
ATOM     32  C   UNL     1      -6.773  11.154  19.747  0.00  0.00    +0.000 C 
ENDBRANCH  29  31
ENDBRANCH  28  29
ENDBRANCH  27  28
ENDBRANCH  25  27
ENDBRANCH   1  25
TORSDOF 6
ENDMDL
MODEL 5
REMARK VINA RESULT:      -7.4      3.574     10.215
REMARK  Name = 
REMARK  8 active torsions:
REMARK  status: ('A' for Active; 'I' for Inactive)
REMARK    1  A    between atoms: C_1  and  N_2
REMARK    2  A    between atoms: N_2  and  C_3
REMARK    3  A    between atoms: N_2  and  C_4
REMARK    4  A    between atoms: C_4  and  C_5
REMARK    5  A    between atoms: C_5  and  C_6
REMARK    6  A    between atoms: C_6  and  N_7
REMARK    7  A    between atoms: N_7  and  C_8
REMARK    8  A    between atoms: C_15  and  C_16
REMARK                            x       y       z     vdW  Elec       q    Type
REMARK                         _______ _______ _______ _____ _____    ______ ____
ROOT
ATOM      1  C   UNL     1       5.177   4.311  18.106  0.00  0.00    +0.000 A 
ATOM      2  C   UNL     1       4.549   3.156  18.591  0.00  0.00    +0.000 A 
ATOM      3  C   UNL     1       3.368   3.231  19.337  0.00  0.00    +0.000 A 
ATOM      4  C   UNL     1       2.812   4.480  19.609  0.00  0.00    +0.000 A 
ATOM      5  C   UNL     1       1.630   4.631  20.475  0.00  0.00    +0.000 A 
ATOM      6  O   UNL     1       1.009   3.668  20.908  0.00  0.00    +0.000 OA
ATOM      7  N   UNL     1       1.283   5.923  20.790  0.00  0.00    +0.000 N 
ATOM      8  C   UNL     1       1.920   7.018  20.265  0.00  0.00    +0.000 A 
ATOM      9  N   UNL     1       2.874   6.918  19.403  0.00  0.00    +0.000 NA
ATOM     10  C   UNL     1       3.401   5.646  19.132  0.00  0.00    +0.000 A 
ATOM     11  C   UNL     1       4.597   5.552  18.415  0.00  0.00    +0.000 A 
ATOM     12  H   UNL     1       0.503   6.014  21.424  0.00  0.00    +0.000 HD
ENDROOT
BRANCH   8  13
ATOM     13  C   UNL     1       1.391   8.315  20.740  0.00  0.00    +0.000 C 
ATOM     14  C   UNL     1       1.019   9.296  19.900  0.00  0.00    +0.000 C 
ATOM     15  C   UNL     1       1.101   9.306  18.385  0.00  0.00    +0.000 C 
ATOM     16  O   UNL     1       1.644   8.534  17.622  0.00  0.00    +0.000 OA
ATOM     17  N   UNL     1       0.485  10.484  18.002  0.00  0.00    +0.000 N 
ATOM     18  C   UNL     1       0.128  11.255  19.099  0.00  0.00    +0.000 A 
ATOM     19  C   UNL     1      -0.414  12.522  19.056  0.00  0.00    +0.000 A 
ATOM     20  C   UNL     1      -0.647  13.156  20.275  0.00  0.00    +0.000 A 
ATOM     21  C   UNL     1      -0.340  12.511  21.488  0.00  0.00    +0.000 A 
ATOM     22  C   UNL     1       0.204  11.217  21.504  0.00  0.00    +0.000 A 
ATOM     23  C   UNL     1       0.438  10.592  20.292  0.00  0.00    +0.000 A 
ATOM     24  H   UNL     1       0.415  10.756  17.035  0.00  0.00    +0.000 HD
ENDBRANCH   8  13
BRANCH   1  25
ATOM     25  N   UNL     1       6.426   4.291  17.460  0.00  0.00    +0.000 N 
ATOM     26  H   UNL     1       7.181   4.327  18.143  0.00  0.00    +0.000 HD
BRANCH  25  27
ATOM     27  C   UNL     1       6.637   5.235  16.362  0.00  0.00    +0.000 C 
BRANCH  27  28
ATOM     28  C   UNL     1       7.048   4.471  15.103  0.00  0.00    +0.000 C 
BRANCH  28  29
ATOM     29  C   UNL     1       5.859   4.213  14.168  0.00  0.00    +0.000 C 
BRANCH  29  31
ATOM     30  C   UNL     1       5.043   3.287  12.064  0.00  0.00    +0.000 C 
ATOM     31  N   UNL     1       6.215   3.538  12.907  0.00  0.00    +0.000 NA
ATOM     32  C   UNL     1       7.195   4.336  12.165  0.00  0.00    +0.000 C 
ENDBRANCH  29  31
ENDBRANCH  28  29
ENDBRANCH  27  28
ENDBRANCH  25  27
ENDBRANCH   1  25
TORSDOF 6
ENDMDL
MODEL 6
REMARK VINA RESULT:      -7.4      2.239      2.684
REMARK  Name = 
REMARK  8 active torsions:
REMARK  status: ('A' for Active; 'I' for Inactive)
REMARK    1  A    between atoms: C_1  and  N_2
REMARK    2  A    between atoms: N_2  and  C_3
REMARK    3  A    between atoms: N_2  and  C_4
REMARK    4  A    between atoms: C_4  and  C_5
REMARK    5  A    between atoms: C_5  and  C_6
REMARK    6  A    between atoms: C_6  and  N_7
REMARK    7  A    between atoms: N_7  and  C_8
REMARK    8  A    between atoms: C_15  and  C_16
REMARK                            x       y       z     vdW  Elec       q    Type
REMARK                         _______ _______ _______ _____ _____    ______ ____
ROOT
ATOM      1  C   UNL     1      -2.049  12.724  19.455  0.00  0.00    +0.000 A 
ATOM      2  C   UNL     1      -1.160  13.807  19.447  0.00  0.00    +0.000 A 
ATOM      3  C   UNL     1       0.171  13.650  19.045  0.00  0.00    +0.000 A 
ATOM      4  C   UNL     1       0.621  12.390  18.655  0.00  0.00    +0.000 A 
ATOM      5  C   UNL     1       2.034  12.140  18.322  0.00  0.00    +0.000 A 
ATOM      6  O   UNL     1       2.862  13.042  18.261  0.00  0.00    +0.000 OA
ATOM      7  N   UNL     1       2.373  10.825  18.110  0.00  0.00    +0.000 N 
ATOM      8  C   UNL     1       1.455   9.808  18.106  0.00  0.00    +0.000 A 
ATOM      9  N   UNL     1       0.191  10.013  18.266  0.00  0.00    +0.000 NA
ATOM     10  C   UNL     1      -0.237  11.296  18.638  0.00  0.00    +0.000 A 
ATOM     11  C   UNL     1      -1.554  11.467  19.072  0.00  0.00    +0.000 A 
ATOM     12  H   UNL     1       3.352  10.659  17.932  0.00  0.00    +0.000 HD
ENDROOT
BRANCH   8  13
ATOM     13  C   UNL     1       2.032   8.467  17.863  0.00  0.00    +0.000 C 
ATOM     14  C   UNL     1       2.164   7.549  18.833  0.00  0.00    +0.000 C 
ATOM     15  C   UNL     1       1.820   7.692  20.304  0.00  0.00    +0.000 C 
ATOM     16  O   UNL     1       1.511   8.673  20.947  0.00  0.00    +0.000 OA
ATOM     17  N   UNL     1       2.025   6.434  20.843  0.00  0.00    +0.000 N 
ATOM     18  C   UNL     1       2.557   5.558  19.908  0.00  0.00    +0.000 A 
ATOM     19  C   UNL     1       2.965   4.263  20.152  0.00  0.00    +0.000 A 
ATOM     20  C   UNL     1       3.532   3.563  19.089  0.00  0.00    +0.000 A 
ATOM     21  C   UNL     1       3.669   4.169  17.826  0.00  0.00    +0.000 A 
ATOM     22  C   UNL     1       3.239   5.486  17.601  0.00  0.00    +0.000 A 
ATOM     23  C   UNL     1       2.679   6.179  18.660  0.00  0.00    +0.000 A 
ATOM     24  H   UNL     1       1.887   6.247  21.823  0.00  0.00    +0.000 HD
ENDBRANCH   8  13
BRANCH   1  25
ATOM     25  N   UNL     1      -3.356  12.810  19.966  0.00  0.00    +0.000 N 
ATOM     26  H   UNL     1      -4.023  12.410  19.307  0.00  0.00    +0.000 HD
BRANCH  25  27
ATOM     27  C   UNL     1      -3.802  14.108  20.473  0.00  0.00    +0.000 C 
BRANCH  27  28
ATOM     28  C   UNL     1      -3.671  14.133  21.996  0.00  0.00    +0.000 C 
BRANCH  28  29
ATOM     29  C   UNL     1      -4.720  13.248  22.682  0.00  0.00    +0.000 C 
BRANCH  29  31
ATOM     30  C   UNL     1      -2.698  12.080  23.385  0.00  0.00    +0.000 C 
ATOM     31  N   UNL     1      -4.155  12.168  23.510  0.00  0.00    +0.000 NA
ATOM     32  C   UNL     1      -4.520  12.363  24.915  0.00  0.00    +0.000 C 
ENDBRANCH  29  31
ENDBRANCH  28  29
ENDBRANCH  27  28
ENDBRANCH  25  27
ENDBRANCH   1  25
TORSDOF 6
ENDMDL
MODEL 7
REMARK VINA RESULT:      -7.3      3.796      9.223
REMARK  Name = 
REMARK  8 active torsions:
REMARK  status: ('A' for Active; 'I' for Inactive)
REMARK    1  A    between atoms: C_1  and  N_2
REMARK    2  A    between atoms: N_2  and  C_3
REMARK    3  A    between atoms: N_2  and  C_4
REMARK    4  A    between atoms: C_4  and  C_5
REMARK    5  A    between atoms: C_5  and  C_6
REMARK    6  A    between atoms: C_6  and  N_7
REMARK    7  A    between atoms: N_7  and  C_8
REMARK    8  A    between atoms: C_15  and  C_16
REMARK                            x       y       z     vdW  Elec       q    Type
REMARK                         _______ _______ _______ _____ _____    ______ ____
ROOT
ATOM      1  C   UNL     1       2.211   7.755  18.898  0.00  0.00    +0.000 A 
ATOM      2  C   UNL     1       2.000   7.440  20.247  0.00  0.00    +0.000 A 
ATOM      3  C   UNL     1       1.342   8.327  21.105  0.00  0.00    +0.000 A 
ATOM      4  C   UNL     1       0.896   9.551  20.609  0.00  0.00    +0.000 A 
ATOM      5  C   UNL     1       0.291  10.569  21.485  0.00  0.00    +0.000 A 
ATOM      6  O   UNL     1       0.045  10.354  22.666  0.00  0.00    +0.000 OA
ATOM      7  N   UNL     1       0.044  11.788  20.900  0.00  0.00    +0.000 N 
ATOM      8  C   UNL     1       0.248  12.033  19.567  0.00  0.00    +0.000 A 
ATOM      9  N   UNL     1       0.654  11.122  18.748  0.00  0.00    +0.000 NA
ATOM     10  C   UNL     1       1.077   9.891  19.273  0.00  0.00    +0.000 A 
ATOM     11  C   UNL     1       1.764   9.004  18.439  0.00  0.00    +0.000 A 
ATOM     12  H   UNL     1      -0.324  12.494  21.520  0.00  0.00    +0.000 HD
ENDROOT
BRANCH   8  13
ATOM     13  C   UNL     1      -0.078  13.412  19.144  0.00  0.00    +0.000 C 
ATOM     14  C   UNL     1       0.742  14.451  19.370  0.00  0.00    +0.000 C 
ATOM     15  C   UNL     1       2.071  14.447  20.102  0.00  0.00    +0.000 C 
ATOM     16  O   UNL     1       2.601  13.579  20.763  0.00  0.00    +0.000 OA
ATOM     17  N   UNL     1       2.566  15.730  19.952  0.00  0.00    +0.000 N 
ATOM     18  C   UNL     1       1.657  16.557  19.308  0.00  0.00    +0.000 A 
ATOM     19  C   UNL     1       1.805  17.911  19.093  0.00  0.00    +0.000 A 
ATOM     20  C   UNL     1       0.746  18.578  18.479  0.00  0.00    +0.000 A 
ATOM     21  C   UNL     1      -0.415  17.880  18.099  0.00  0.00    +0.000 A 
ATOM     22  C   UNL     1      -0.538  16.499  18.323  0.00  0.00    +0.000 A 
ATOM     23  C   UNL     1       0.513  15.841  18.936  0.00  0.00    +0.000 A 
ATOM     24  H   UNL     1       3.441  16.013  20.362  0.00  0.00    +0.000 HD
ENDBRANCH   8  13
BRANCH   1  25
ATOM     25  N   UNL     1       2.973   6.950  18.034  0.00  0.00    +0.000 N 
ATOM     26  H   UNL     1       2.627   7.027  17.078  0.00  0.00    +0.000 HD
BRANCH  25  27
ATOM     27  C   UNL     1       3.193   5.556  18.423  0.00  0.00    +0.000 C 
BRANCH  27  28
ATOM     28  C   UNL     1       2.087   4.680  17.833  0.00  0.00    +0.000 C 
BRANCH  28  29
ATOM     29  C   UNL     1       2.643   3.408  17.179  0.00  0.00    +0.000 C 
BRANCH  29  31
ATOM     30  C   UNL     1       3.514   1.822  18.814  0.00  0.00    +0.000 C 
ATOM     31  N   UNL     1       2.391   2.174  17.942  0.00  0.00    +0.000 NA
ATOM     32  C   UNL     1       1.170   2.313  18.740  0.00  0.00    +0.000 C 
ENDBRANCH  29  31
ENDBRANCH  28  29
ENDBRANCH  27  28
ENDBRANCH  25  27
ENDBRANCH   1  25
TORSDOF 6
ENDMDL
MODEL 8
REMARK VINA RESULT:      -7.3      3.337     10.331
REMARK  Name = 
REMARK  8 active torsions:
REMARK  status: ('A' for Active; 'I' for Inactive)
REMARK    1  A    between atoms: C_1  and  N_2
REMARK    2  A    between atoms: N_2  and  C_3
REMARK    3  A    between atoms: N_2  and  C_4
REMARK    4  A    between atoms: C_4  and  C_5
REMARK    5  A    between atoms: C_5  and  C_6
REMARK    6  A    between atoms: C_6  and  N_7
REMARK    7  A    between atoms: N_7  and  C_8
REMARK    8  A    between atoms: C_15  and  C_16
REMARK                            x       y       z     vdW  Elec       q    Type
REMARK                         _______ _______ _______ _____ _____    ______ ____
ROOT
ATOM      1  C   UNL     1       5.388   5.466  16.588  0.00  0.00    +0.000 A 
ATOM      2  C   UNL     1       5.365   4.216  17.222  0.00  0.00    +0.000 A 
ATOM      3  C   UNL     1       4.528   3.973  18.316  0.00  0.00    +0.000 A 
ATOM      4  C   UNL     1       3.710   4.997  18.789  0.00  0.00    +0.000 A 
ATOM      5  C   UNL     1       2.887   4.835  20.000  0.00  0.00    +0.000 A 
ATOM      6  O   UNL     1       2.789   3.764  20.588  0.00  0.00    +0.000 OA
ATOM      7  N   UNL     1       2.253   5.970  20.446  0.00  0.00    +0.000 N 
ATOM      8  C   UNL     1       2.291   7.162  19.771  0.00  0.00    +0.000 A 
ATOM      9  N   UNL     1       2.897   7.301  18.640  0.00  0.00    +0.000 NA
ATOM     10  C   UNL     1       3.697   6.245  18.177  0.00  0.00    +0.000 A 
ATOM     11  C   UNL     1       4.562   6.478  17.104  0.00  0.00    +0.000 A 
ATOM     12  H   UNL     1       1.733   5.861  21.304  0.00  0.00    +0.000 HD
ENDROOT
BRANCH   8  13
ATOM     13  C   UNL     1       1.546   8.259  20.428  0.00  0.00    +0.000 C 
ATOM     14  C   UNL     1       0.999   9.275  19.742  0.00  0.00    +0.000 C 
ATOM     15  C   UNL     1       1.063   9.531  18.248  0.00  0.00    +0.000 C 
ATOM     16  O   UNL     1       1.727   8.993  17.386  0.00  0.00    +0.000 OA
ATOM     17  N   UNL     1       0.245  10.627  18.037  0.00  0.00    +0.000 N 
ATOM     18  C   UNL     1      -0.233  11.145  19.232  0.00  0.00    +0.000 A 
ATOM     19  C   UNL     1      -0.991  12.288  19.373  0.00  0.00    +0.000 A 
ATOM     20  C   UNL     1      -1.321  12.677  20.670  0.00  0.00    +0.000 A 
ATOM     21  C   UNL     1      -0.893  11.919  21.775  0.00  0.00    +0.000 A 
ATOM     22  C   UNL     1      -0.128  10.754  21.604  0.00  0.00    +0.000 A 
ATOM     23  C   UNL     1       0.201  10.373  20.316  0.00  0.00    +0.000 A 
ATOM     24  H   UNL     1       0.118  11.027  17.122  0.00  0.00    +0.000 HD
ENDBRANCH   8  13
BRANCH   1  25
ATOM     25  N   UNL     1       6.298   5.791  15.567  0.00  0.00    +0.000 N 
ATOM     26  H   UNL     1       5.943   6.565  15.007  0.00  0.00    +0.000 HD
BRANCH  25  27
ATOM     27  C   UNL     1       6.799   4.698  14.732  0.00  0.00    +0.000 C 
BRANCH  27  28
ATOM     28  C   UNL     1       5.699   4.239  13.776  0.00  0.00    +0.000 C 
BRANCH  28  29
ATOM     29  C   UNL     1       6.265   3.516  12.546  0.00  0.00    +0.000 C 
BRANCH  29  31
ATOM     30  C   UNL     1       4.271   3.057  11.219  0.00  0.00    +0.000 C 
ATOM     31  N   UNL     1       5.376   2.482  11.988  0.00  0.00    +0.000 NA
ATOM     32  C   UNL     1       6.140   1.561  11.142  0.00  0.00    +0.000 C 
ENDBRANCH  29  31
ENDBRANCH  28  29
ENDBRANCH  27  28
ENDBRANCH  25  27
ENDBRANCH   1  25
TORSDOF 6
ENDMDL
MODEL 9
REMARK VINA RESULT:      -7.3      3.381      5.009
REMARK  Name = 
REMARK  8 active torsions:
REMARK  status: ('A' for Active; 'I' for Inactive)
REMARK    1  A    between atoms: C_1  and  N_2
REMARK    2  A    between atoms: N_2  and  C_3
REMARK    3  A    between atoms: N_2  and  C_4
REMARK    4  A    between atoms: C_4  and  C_5
REMARK    5  A    between atoms: C_5  and  C_6
REMARK    6  A    between atoms: C_6  and  N_7
REMARK    7  A    between atoms: N_7  and  C_8
REMARK    8  A    between atoms: C_15  and  C_16
REMARK                            x       y       z     vdW  Elec       q    Type
REMARK                         _______ _______ _______ _____ _____    ______ ____
ROOT
ATOM      1  C   UNL     1       0.329  14.175  19.594  0.00  0.00    +0.000 A 
ATOM      2  C   UNL     1      -1.033  13.908  19.400  0.00  0.00    +0.000 A 
ATOM      3  C   UNL     1      -1.472  12.648  18.980  0.00  0.00    +0.000 A 
ATOM      4  C   UNL     1      -0.536  11.644  18.740  0.00  0.00    +0.000 A 
ATOM      5  C   UNL     1      -0.926  10.333  18.196  0.00  0.00    +0.000 A 
ATOM      6  O   UNL     1      -2.098  10.014  18.032  0.00  0.00    +0.000 OA
ATOM      7  N   UNL     1       0.109   9.495  17.857  0.00  0.00    +0.000 N 
ATOM      8  C   UNL     1       1.425   9.800  18.092  0.00  0.00    +0.000 A 
ATOM      9  N   UNL     1       1.791  10.886  18.686  0.00  0.00    +0.000 NA
ATOM     10  C   UNL     1       0.823  11.870  18.934  0.00  0.00    +0.000 A 
ATOM     11  C   UNL     1       1.244  13.144  19.326  0.00  0.00    +0.000 A 
ATOM     12  H   UNL     1      -0.167   8.620  17.439  0.00  0.00    +0.000 HD
ENDROOT
BRANCH   8  13
ATOM     13  C   UNL     1       2.380   8.762  17.646  0.00  0.00    +0.000 C 
ATOM     14  C   UNL     1       2.683   7.688  18.393  0.00  0.00    +0.000 C 
ATOM     15  C   UNL     1       2.184   7.352  19.786  0.00  0.00    +0.000 C 
ATOM     16  O   UNL     1       1.552   8.020  20.577  0.00  0.00    +0.000 OA
ATOM     17  N   UNL     1       2.692   6.093  20.054  0.00  0.00    +0.000 N 
ATOM     18  C   UNL     1       3.532   5.655  19.040  0.00  0.00    +0.000 A 
ATOM     19  C   UNL     1       4.270   4.489  19.047  0.00  0.00    +0.000 A 
ATOM     20  C   UNL     1       5.105   4.258  17.956  0.00  0.00    +0.000 A 
ATOM     21  C   UNL     1       5.174   5.184  16.898  0.00  0.00    +0.000 A 
ATOM     22  C   UNL     1       4.406   6.360  16.912  0.00  0.00    +0.000 A 
ATOM     23  C   UNL     1       3.582   6.588  17.999  0.00  0.00    +0.000 A 
ATOM     24  H   UNL     1       2.527   5.629  20.932  0.00  0.00    +0.000 HD
ENDBRANCH   8  13
BRANCH   1  25
ATOM     25  N   UNL     1       0.823  15.456  19.897  0.00  0.00    +0.000 N 
ATOM     26  H   UNL     1       0.057  16.123  19.976  0.00  0.00    +0.000 HD
BRANCH  25  27
ATOM     27  C   UNL     1       1.915  15.974  19.071  0.00  0.00    +0.000 C 
BRANCH  27  28
ATOM     28  C   UNL     1       2.186  17.433  19.440  0.00  0.00    +0.000 C 
BRANCH  28  29
ATOM     29  C   UNL     1       1.121  18.381  18.871  0.00  0.00    +0.000 C 
BRANCH  29  31
ATOM     30  C   UNL     1      -1.121  17.856  18.067  0.00  0.00    +0.000 C 
ATOM     31  N   UNL     1       0.315  17.803  17.782  0.00  0.00    +0.000 NA
ATOM     32  C   UNL     1       0.595  18.497  16.522  0.00  0.00    +0.000 C 
ENDBRANCH  29  31
ENDBRANCH  28  29
ENDBRANCH  27  28
ENDBRANCH  25  27
ENDBRANCH   1  25
TORSDOF 6
ENDMDL
