MODEL 1
REMARK VINA RESULT:      -7.9      0.000      0.000
REMARK  Name = 
REMARK  9 active torsions:
REMARK  status: ('A' for Active; 'I' for Inactive)
REMARK    1  A    between atoms: C_1  and  C_2
REMARK    2  A    between atoms: C_2  and  C_3
REMARK    3  A    between atoms: C_3  and  O_4
REMARK    4  A    between atoms: C_3  and  C_5
REMARK    5  A    between atoms: C_3  and  C_18
REMARK    6  A    between atoms: C_5  and  O_7
REMARK    7  A    between atoms: O_7  and  C_8
REMARK    8  A    between atoms: C_8  and  C_9
REMARK    9  A    between atoms: C_15  and  O_16
REMARK                            x       y       z     vdW  Elec       q    Type
REMARK                         _______ _______ _______ _____ _____    ______ ____
ROOT
ATOM      1  C   UNL     1       5.228   6.145  16.122  0.00  0.00    +0.000 C 
ATOM      2  O   UNL     1       4.847   7.082  15.426  0.00  0.00    +0.000 OA
ENDROOT
BRANCH   1   3
ATOM      3  C   UNL     1       6.600   5.439  15.937  0.00  0.00    +0.000 C 
BRANCH   3   4
ATOM      4  C   UNL     1       6.710   4.873  14.513  0.00  0.00    +0.000 A 
ATOM      5  C   UNL     1       5.785   3.905  14.063  0.00  0.00    +0.000 A 
ATOM      6  C   UNL     1       5.854   3.378  12.772  0.00  0.00    +0.000 A 
ATOM      7  C   UNL     1       6.831   3.825  11.893  0.00  0.00    +0.000 A 
ATOM      8  C   UNL     1       7.733   4.803  12.301  0.00  0.00    +0.000 A 
ATOM      9  C   UNL     1       7.672   5.325  13.597  0.00  0.00    +0.000 A 
ENDBRANCH   3   4
BRANCH   3  11
ATOM     10  C   UNL     1       7.683   4.921  18.226  0.00  0.00    +0.000 C 
ATOM     11  C   UNL     1       6.797   4.417  17.084  0.00  0.00    +0.000 C 
ENDBRANCH   3  11
BRANCH   3  12
ATOM     12  O   UNL     1       7.676   6.383  16.050  0.00  0.00    +0.000 OA
ATOM     13  H   UNL     1       7.690   6.891  15.220  0.00  0.00    +0.000 HD
ENDBRANCH   3  12
ENDBRANCH   1   3
BRANCH   1  14
ATOM     14  O   UNL     1       4.474   5.522  17.077  0.00  0.00    +0.000 OA
BRANCH  14  15
ATOM     15  C   UNL     1       3.513   6.356  17.739  0.00  0.00    +0.000 C 
BRANCH  15  16
ATOM     16  C   UNL     1       2.932   5.583  18.865  0.00  0.00    +0.000 C 
ATOM     17  C   UNL     1       2.409   6.066  19.995  0.00  0.00    +0.000 C 
ATOM     18  C   UNL     1       2.065   4.968  20.938  0.00  0.00    +0.000 C 
ATOM     19  N   UNL     1       2.348   3.717  20.209  0.00  0.00    +0.000 NA
ATOM     20  C   UNL     1       1.146   2.918  19.953  0.00  0.00    +0.000 C 
ATOM     21  C   UNL     1       1.390   2.276  18.597  0.00  0.00    +0.000 C 
ATOM     22  C   UNL     1       2.074   3.385  17.815  0.00  0.00    +0.000 C 
ATOM     23  C   UNL     1       2.933   4.093  18.884  0.00  0.00    +0.000 C 
BRANCH  22  24
ATOM     24  O   UNL     1       1.077   4.227  17.228  0.00  0.00    +0.000 OA
ATOM     25  H   UNL     1       0.210   3.934  17.562  0.00  0.00    +0.000 HD
ENDBRANCH  22  24
ENDBRANCH  15  16
ENDBRANCH  14  15
ENDBRANCH   1  14
TORSDOF 8
ENDMDL
MODEL 2
REMARK VINA RESULT:      -7.5      1.115      2.108
REMARK  Name = 
REMARK  9 active torsions:
REMARK  status: ('A' for Active; 'I' for Inactive)
REMARK    1  A    between atoms: C_1  and  C_2
REMARK    2  A    between atoms: C_2  and  C_3
REMARK    3  A    between atoms: C_3  and  O_4
REMARK    4  A    between atoms: C_3  and  C_5
REMARK    5  A    between atoms: C_3  and  C_18
REMARK    6  A    between atoms: C_5  and  O_7
REMARK    7  A    between atoms: O_7  and  C_8
REMARK    8  A    between atoms: C_8  and  C_9
REMARK    9  A    between atoms: C_15  and  O_16
REMARK                            x       y       z     vdW  Elec       q    Type
REMARK                         _______ _______ _______ _____ _____    ______ ____
ROOT
ATOM      1  C   UNL     1       5.391   6.063  16.364  0.00  0.00    +0.000 C 
ATOM      2  O   UNL     1       4.928   7.038  15.779  0.00  0.00    +0.000 OA
ENDROOT
BRANCH   1   3
ATOM      3  C   UNL     1       6.777   5.442  16.035  0.00  0.00    +0.000 C 
BRANCH   3   4
ATOM      4  C   UNL     1       6.784   4.910  14.594  0.00  0.00    +0.000 A 
ATOM      5  C   UNL     1       7.696   5.435  13.651  0.00  0.00    +0.000 A 
ATOM      6  C   UNL     1       7.733   4.967  12.337  0.00  0.00    +0.000 A 
ATOM      7  C   UNL     1       6.879   3.945  11.941  0.00  0.00    +0.000 A 
ATOM      8  C   UNL     1       5.996   3.388  12.860  0.00  0.00    +0.000 A 
ATOM      9  C   UNL     1       5.950   3.863  14.175  0.00  0.00    +0.000 A 
ENDBRANCH   3   4
BRANCH   3  11
ATOM     10  C   UNL     1       7.808   5.023  18.368  0.00  0.00    +0.000 C 
ATOM     11  C   UNL     1       7.140   4.413  17.134  0.00  0.00    +0.000 C 
ENDBRANCH   3  11
BRANCH   3  12
ATOM     12  O   UNL     1       7.803   6.446  16.071  0.00  0.00    +0.000 OA
ATOM     13  H   UNL     1       7.444   7.194  16.579  0.00  0.00    +0.000 HD
ENDBRANCH   3  12
ENDBRANCH   1   3
BRANCH   1  14
ATOM     14  O   UNL     1       4.725   5.323  17.301  0.00  0.00    +0.000 OA
BRANCH  14  15
ATOM     15  C   UNL     1       3.606   4.573  16.809  0.00  0.00    +0.000 C 
BRANCH  15  16
ATOM     16  C   UNL     1       3.060   3.772  17.933  0.00  0.00    +0.000 C 
ATOM     17  C   UNL     1       3.403   2.530  18.284  0.00  0.00    +0.000 C 
ATOM     18  C   UNL     1       2.526   2.020  19.373  0.00  0.00    +0.000 C 
ATOM     19  N   UNL     1       1.646   3.147  19.733  0.00  0.00    +0.000 NA
ATOM     20  C   UNL     1       1.863   3.632  21.099  0.00  0.00    +0.000 C 
ATOM     21  C   UNL     1       1.639   5.133  21.017  0.00  0.00    +0.000 C 
ATOM     22  C   UNL     1       2.269   5.497  19.684  0.00  0.00    +0.000 C 
ATOM     23  C   UNL     1       1.955   4.273  18.798  0.00  0.00    +0.000 C 
BRANCH  22  24
ATOM     24  O   UNL     1       3.669   5.725  19.875  0.00  0.00    +0.000 OA
ATOM     25  H   UNL     1       3.844   6.663  19.677  0.00  0.00    +0.000 HD
ENDBRANCH  22  24
ENDBRANCH  15  16
ENDBRANCH  14  15
ENDBRANCH   1  14
TORSDOF 8
ENDMDL
MODEL 3
REMARK VINA RESULT:      -7.4      2.723      6.602
REMARK  Name = 
REMARK  9 active torsions:
REMARK  status: ('A' for Active; 'I' for Inactive)
REMARK    1  A    between atoms: C_1  and  C_2
REMARK    2  A    between atoms: C_2  and  C_3
REMARK    3  A    between atoms: C_3  and  O_4
REMARK    4  A    between atoms: C_3  and  C_5
REMARK    5  A    between atoms: C_3  and  C_18
REMARK    6  A    between atoms: C_5  and  O_7
REMARK    7  A    between atoms: O_7  and  C_8
REMARK    8  A    between atoms: C_8  and  C_9
REMARK    9  A    between atoms: C_15  and  O_16
REMARK                            x       y       z     vdW  Elec       q    Type
REMARK                         _______ _______ _______ _____ _____    ______ ____
ROOT
ATOM      1  C   UNL     1       2.857   3.315  18.108  0.00  0.00    +0.000 C 
ATOM      2  O   UNL     1       2.264   3.023  17.073  0.00  0.00    +0.000 OA
ENDROOT
BRANCH   1   3
ATOM      3  C   UNL     1       2.145   3.821  19.393  0.00  0.00    +0.000 C 
BRANCH   3   4
ATOM      4  C   UNL     1       2.119   5.357  19.407  0.00  0.00    +0.000 A 
ATOM      5  C   UNL     1       2.390   6.080  18.225  0.00  0.00    +0.000 A 
ATOM      6  C   UNL     1       2.366   7.476  18.204  0.00  0.00    +0.000 A 
ATOM      7  C   UNL     1       2.043   8.180  19.357  0.00  0.00    +0.000 A 
ATOM      8  C   UNL     1       1.738   7.489  20.526  0.00  0.00    +0.000 A 
ATOM      9  C   UNL     1       1.772   6.091  20.551  0.00  0.00    +0.000 A 
ENDBRANCH   3   4
BRANCH   3  11
ATOM     10  C   UNL     1       1.796   2.681  21.686  0.00  0.00    +0.000 C 
ATOM     11  C   UNL     1       2.796   3.148  20.626  0.00  0.00    +0.000 C 
ENDBRANCH   3  11
BRANCH   3  12
ATOM     12  O   UNL     1       0.765   3.421  19.399  0.00  0.00    +0.000 OA
ATOM     13  H   UNL     1       0.539   3.184  18.482  0.00  0.00    +0.000 HD
ENDBRANCH   3  12
ENDBRANCH   1   3
BRANCH   1  14
ATOM     14  O   UNL     1       4.216   3.342  18.250  0.00  0.00    +0.000 OA
BRANCH  14  15
ATOM     15  C   UNL     1       4.962   3.142  17.041  0.00  0.00    +0.000 C 
BRANCH  15  16
ATOM     16  C   UNL     1       5.571   4.440  16.657  0.00  0.00    +0.000 C 
ATOM     17  C   UNL     1       5.072   5.352  15.818  0.00  0.00    +0.000 C 
ATOM     18  C   UNL     1       6.047   6.451  15.580  0.00  0.00    +0.000 C 
ATOM     19  N   UNL     1       7.192   6.162  16.464  0.00  0.00    +0.000 NA
ATOM     20  C   UNL     1       7.381   7.174  17.507  0.00  0.00    +0.000 C 
ATOM     21  C   UNL     1       7.878   6.396  18.715  0.00  0.00    +0.000 C 
ATOM     22  C   UNL     1       7.056   5.120  18.657  0.00  0.00    +0.000 C 
ATOM     23  C   UNL     1       6.917   4.858  17.143  0.00  0.00    +0.000 C 
BRANCH  22  24
ATOM     24  O   UNL     1       5.807   5.338  19.321  0.00  0.00    +0.000 OA
ATOM     25  H   UNL     1       5.622   6.293  19.293  0.00  0.00    +0.000 HD
ENDBRANCH  22  24
ENDBRANCH  15  16
ENDBRANCH  14  15
ENDBRANCH   1  14
TORSDOF 8
ENDMDL
MODEL 4
REMARK VINA RESULT:      -7.2      1.387      2.163
REMARK  Name = 
REMARK  9 active torsions:
REMARK  status: ('A' for Active; 'I' for Inactive)
REMARK    1  A    between atoms: C_1  and  C_2
REMARK    2  A    between atoms: C_2  and  C_3
REMARK    3  A    between atoms: C_3  and  O_4
REMARK    4  A    between atoms: C_3  and  C_5
REMARK    5  A    between atoms: C_3  and  C_18
REMARK    6  A    between atoms: C_5  and  O_7
REMARK    7  A    between atoms: O_7  and  C_8
REMARK    8  A    between atoms: C_8  and  C_9
REMARK    9  A    between atoms: C_15  and  O_16
REMARK                            x       y       z     vdW  Elec       q    Type
REMARK                         _______ _______ _______ _____ _____    ______ ____
ROOT
ATOM      1  C   UNL     1       6.884   4.496  17.082  0.00  0.00    +0.000 C 
ATOM      2  O   UNL     1       8.037   4.168  17.345  0.00  0.00    +0.000 OA
ENDROOT
BRANCH   1   3
ATOM      3  C   UNL     1       6.516   5.586  16.038  0.00  0.00    +0.000 C 
BRANCH   3   4
ATOM      4  C   UNL     1       6.600   5.002  14.620  0.00  0.00    +0.000 A 
ATOM      5  C   UNL     1       7.625   5.419  13.742  0.00  0.00    +0.000 A 
ATOM      6  C   UNL     1       7.732   4.901  12.450  0.00  0.00    +0.000 A 
ATOM      7  C   UNL     1       6.835   3.934  12.015  0.00  0.00    +0.000 A 
ATOM      8  C   UNL     1       5.838   3.481  12.873  0.00  0.00    +0.000 A 
ATOM      9  C   UNL     1       5.723   4.006  14.164  0.00  0.00    +0.000 A 
ENDBRANCH   3   4
BRANCH   3  11
ATOM     10  C   UNL     1       7.373   7.318  17.754  0.00  0.00    +0.000 C 
ATOM     11  C   UNL     1       7.381   6.843  16.299  0.00  0.00    +0.000 C 
ENDBRANCH   3  11
BRANCH   3  12
ATOM     12  O   UNL     1       5.150   5.999  16.194  0.00  0.00    +0.000 OA
ATOM     13  H   UNL     1       4.712   5.315  16.731  0.00  0.00    +0.000 HD
ENDBRANCH   3  12
ENDBRANCH   1   3
BRANCH   1  14
ATOM     14  O   UNL     1       5.772   4.037  17.733  0.00  0.00    +0.000 OA
BRANCH  14  15
ATOM     15  C   UNL     1       5.687   4.387  19.121  0.00  0.00    +0.000 C 
BRANCH  15  16
ATOM     16  C   UNL     1       4.256   4.599  19.454  0.00  0.00    +0.000 C 
ATOM     17  C   UNL     1       3.568   5.742  19.384  0.00  0.00    +0.000 C 
ATOM     18  C   UNL     1       2.199   5.578  19.942  0.00  0.00    +0.000 C 
ATOM     19  N   UNL     1       2.078   4.148  20.281  0.00  0.00    +0.000 NA
ATOM     20  C   UNL     1       1.070   3.450  19.478  0.00  0.00    +0.000 C 
ATOM     21  C   UNL     1       1.634   2.054  19.275  0.00  0.00    +0.000 C 
ATOM     22  C   UNL     1       3.116   2.315  19.064  0.00  0.00    +0.000 C 
ATOM     23  C   UNL     1       3.401   3.508  20.001  0.00  0.00    +0.000 C 
BRANCH  22  24
ATOM     24  O   UNL     1       3.348   2.601  17.681  0.00  0.00    +0.000 OA
ATOM     25  H   UNL     1       3.305   1.759  17.195  0.00  0.00    +0.000 HD
ENDBRANCH  22  24
ENDBRANCH  15  16
ENDBRANCH  14  15
ENDBRANCH   1  14
TORSDOF 8
ENDMDL
MODEL 5
REMARK VINA RESULT:      -7.2      2.749      6.622
REMARK  Name = 
REMARK  9 active torsions:
REMARK  status: ('A' for Active; 'I' for Inactive)
REMARK    1  A    between atoms: C_1  and  C_2
REMARK    2  A    between atoms: C_2  and  C_3
REMARK    3  A    between atoms: C_3  and  O_4
REMARK    4  A    between atoms: C_3  and  C_5
REMARK    5  A    between atoms: C_3  and  C_18
REMARK    6  A    between atoms: C_5  and  O_7
REMARK    7  A    between atoms: O_7  and  C_8
REMARK    8  A    between atoms: C_8  and  C_9
REMARK    9  A    between atoms: C_15  and  O_16
REMARK                            x       y       z     vdW  Elec       q    Type
REMARK                         _______ _______ _______ _____ _____    ______ ____
ROOT
ATOM      1  C   UNL     1       2.536   3.615  18.713  0.00  0.00    +0.000 C 
ATOM      2  O   UNL     1       1.855   3.169  17.794  0.00  0.00    +0.000 OA
ENDROOT
BRANCH   1   3
ATOM      3  C   UNL     1       1.947   4.402  19.916  0.00  0.00    +0.000 C 
BRANCH   3   4
ATOM      4  C   UNL     1       1.937   5.906  19.605  0.00  0.00    +0.000 A 
ATOM      5  C   UNL     1       1.566   6.833  20.605  0.00  0.00    +0.000 A 
ATOM      6  C   UNL     1       1.555   8.206  20.355  0.00  0.00    +0.000 A 
ATOM      7  C   UNL     1       1.942   8.687  19.111  0.00  0.00    +0.000 A 
ATOM      8  C   UNL     1       2.345   7.796  18.121  0.00  0.00    +0.000 A 
ATOM      9  C   UNL     1       2.347   6.419  18.366  0.00  0.00    +0.000 A 
ENDBRANCH   3   4
BRANCH   3  11
ATOM     10  C   UNL     1       2.373   2.573  21.693  0.00  0.00    +0.000 C 
ATOM     11  C   UNL     1       2.699   3.986  21.204  0.00  0.00    +0.000 C 
ENDBRANCH   3  11
BRANCH   3  12
ATOM     12  O   UNL     1       0.570   4.052  20.126  0.00  0.00    +0.000 OA
ATOM     13  H   UNL     1       0.380   3.300  19.537  0.00  0.00    +0.000 HD
ENDBRANCH   3  12
ENDBRANCH   1   3
BRANCH   1  14
ATOM     14  O   UNL     1       3.902   3.582  18.761  0.00  0.00    +0.000 OA
BRANCH  14  15
ATOM     15  C   UNL     1       4.549   3.187  17.544  0.00  0.00    +0.000 C 
BRANCH  15  16
ATOM     16  C   UNL     1       5.245   4.374  16.988  0.00  0.00    +0.000 C 
ATOM     17  C   UNL     1       4.775   5.242  16.088  0.00  0.00    +0.000 C 
ATOM     18  C   UNL     1       5.828   6.210  15.677  0.00  0.00    +0.000 C 
ATOM     19  N   UNL     1       7.001   5.899  16.515  0.00  0.00    +0.000 NA
ATOM     20  C   UNL     1       7.355   6.987  17.432  0.00  0.00    +0.000 C 
ATOM     21  C   UNL     1       7.862   6.288  18.683  0.00  0.00    +0.000 C 
ATOM     22  C   UNL     1       6.924   5.100  18.811  0.00  0.00    +0.000 C 
ATOM     23  C   UNL     1       6.655   4.703  17.344  0.00  0.00    +0.000 C 
BRANCH  22  24
ATOM     24  O   UNL     1       5.750   5.505  19.522  0.00  0.00    +0.000 OA
ATOM     25  H   UNL     1       4.994   5.422  18.914  0.00  0.00    +0.000 HD
ENDBRANCH  22  24
ENDBRANCH  15  16
ENDBRANCH  14  15
ENDBRANCH   1  14
TORSDOF 8
ENDMDL
MODEL 6
REMARK VINA RESULT:      -7.2      1.027      1.531
REMARK  Name = 
REMARK  9 active torsions:
REMARK  status: ('A' for Active; 'I' for Inactive)
REMARK    1  A    between atoms: C_1  and  C_2
REMARK    2  A    between atoms: C_2  and  C_3
REMARK    3  A    between atoms: C_3  and  O_4
REMARK    4  A    between atoms: C_3  and  C_5
REMARK    5  A    between atoms: C_3  and  C_18
REMARK    6  A    between atoms: C_5  and  O_7
REMARK    7  A    between atoms: O_7  and  C_8
REMARK    8  A    between atoms: C_8  and  C_9
REMARK    9  A    between atoms: C_15  and  O_16
REMARK                            x       y       z     vdW  Elec       q    Type
REMARK                         _______ _______ _______ _____ _____    ______ ____
ROOT
ATOM      1  C   UNL     1       5.346   5.680  16.627  0.00  0.00    +0.000 C 
ATOM      2  O   UNL     1       4.733   6.703  16.335  0.00  0.00    +0.000 OA
ENDROOT
BRANCH   1   3
ATOM      3  C   UNL     1       6.810   5.400  16.187  0.00  0.00    +0.000 C 
BRANCH   3   4
ATOM      4  C   UNL     1       6.836   4.923  14.727  0.00  0.00    +0.000 A 
ATOM      5  C   UNL     1       7.748   5.495  13.812  0.00  0.00    +0.000 A 
ATOM      6  C   UNL     1       7.801   5.077  12.481  0.00  0.00    +0.000 A 
ATOM      7  C   UNL     1       6.964   4.060  12.040  0.00  0.00    +0.000 A 
ATOM      8  C   UNL     1       6.082   3.457  12.931  0.00  0.00    +0.000 A 
ATOM      9  C   UNL     1       6.019   3.881  14.262  0.00  0.00    +0.000 A 
ENDBRANCH   3   4
BRANCH   3  11
ATOM     10  C   UNL     1       7.849   5.125  18.537  0.00  0.00    +0.000 C 
ATOM     11  C   UNL     1       7.471   4.451  17.216  0.00  0.00    +0.000 C 
ENDBRANCH   3  11
BRANCH   3  12
ATOM     12  O   UNL     1       7.584   6.610  16.201  0.00  0.00    +0.000 OA
ATOM     13  H   UNL     1       8.085   6.630  15.366  0.00  0.00    +0.000 HD
ENDBRANCH   3  12
ENDBRANCH   1   3
BRANCH   1  14
ATOM     14  O   UNL     1       4.810   4.606  17.281  0.00  0.00    +0.000 OA
BRANCH  14  15
ATOM     15  C   UNL     1       3.380   4.507  17.226  0.00  0.00    +0.000 C 
BRANCH  15  16
ATOM     16  C   UNL     1       2.851   4.756  18.591  0.00  0.00    +0.000 C 
ATOM     17  C   UNL     1       2.169   5.824  19.014  0.00  0.00    +0.000 C 
ATOM     18  C   UNL     1       1.942   5.767  20.483  0.00  0.00    +0.000 C 
ATOM     19  N   UNL     1       2.485   4.466  20.917  0.00  0.00    +0.000 NA
ATOM     20  C   UNL     1       1.457   3.560  21.437  0.00  0.00    +0.000 C 
ATOM     21  C   UNL     1       1.909   2.174  21.006  0.00  0.00    +0.000 C 
ATOM     22  C   UNL     1       2.457   2.416  19.610  0.00  0.00    +0.000 C 
ATOM     23  C   UNL     1       3.100   3.814  19.719  0.00  0.00    +0.000 C 
BRANCH  22  24
ATOM     24  O   UNL     1       1.381   2.349  18.667  0.00  0.00    +0.000 OA
ATOM     25  H   UNL     1       1.772   2.342  17.775  0.00  0.00    +0.000 HD
ENDBRANCH  22  24
ENDBRANCH  15  16
ENDBRANCH  14  15
ENDBRANCH   1  14
TORSDOF 8
ENDMDL
MODEL 7
REMARK VINA RESULT:      -7.1      2.632      6.546
REMARK  Name = 
REMARK  9 active torsions:
REMARK  status: ('A' for Active; 'I' for Inactive)
REMARK    1  A    between atoms: C_1  and  C_2
REMARK    2  A    between atoms: C_2  and  C_3
REMARK    3  A    between atoms: C_3  and  O_4
REMARK    4  A    between atoms: C_3  and  C_5
REMARK    5  A    between atoms: C_3  and  C_18
REMARK    6  A    between atoms: C_5  and  O_7
REMARK    7  A    between atoms: O_7  and  C_8
REMARK    8  A    between atoms: C_8  and  C_9
REMARK    9  A    between atoms: C_15  and  O_16
REMARK                            x       y       z     vdW  Elec       q    Type
REMARK                         _______ _______ _______ _____ _____    ______ ____
ROOT
ATOM      1  C   UNL     1       3.147   2.587  18.744  0.00  0.00    +0.000 C 
ATOM      2  O   UNL     1       3.285   1.369  18.690  0.00  0.00    +0.000 OA
ENDROOT
BRANCH   1   3
ATOM      3  C   UNL     1       1.813   3.285  19.130  0.00  0.00    +0.000 C 
BRANCH   3   4
ATOM      4  C   UNL     1       1.986   4.810  19.082  0.00  0.00    +0.000 A 
ATOM      5  C   UNL     1       1.996   5.560  20.279  0.00  0.00    +0.000 A 
ATOM      6  C   UNL     1       2.159   6.946  20.268  0.00  0.00    +0.000 A 
ATOM      7  C   UNL     1       2.345   7.612  19.063  0.00  0.00    +0.000 A 
ATOM      8  C   UNL     1       2.373   6.892  17.873  0.00  0.00    +0.000 A 
ATOM      9  C   UNL     1       2.200   5.504  17.881  0.00  0.00    +0.000 A 
ENDBRANCH   3   4
BRANCH   3  11
ATOM     10  C   UNL     1       2.372   2.708  21.587  0.00  0.00    +0.000 C 
ATOM     11  C   UNL     1       1.316   2.707  20.479  0.00  0.00    +0.000 C 
ENDBRANCH   3  11
BRANCH   3  12
ATOM     12  O   UNL     1       0.789   2.991  18.167  0.00  0.00    +0.000 OA
ATOM     13  H   UNL     1       1.176   3.159  17.289  0.00  0.00    +0.000 HD
ENDBRANCH   3  12
ENDBRANCH   1   3
BRANCH   1  14
ATOM     14  O   UNL     1       4.096   3.500  18.377  0.00  0.00    +0.000 OA
BRANCH  14  15
ATOM     15  C   UNL     1       4.869   3.148  17.221  0.00  0.00    +0.000 C 
BRANCH  15  16
ATOM     16  C   UNL     1       5.559   4.371  16.740  0.00  0.00    +0.000 C 
ATOM     17  C   UNL     1       5.149   5.211  15.786  0.00  0.00    +0.000 C 
ATOM     18  C   UNL     1       6.187   6.235  15.492  0.00  0.00    +0.000 C 
ATOM     19  N   UNL     1       7.270   5.992  16.462  0.00  0.00    +0.000 NA
ATOM     20  C   UNL     1       7.455   7.098  17.405  0.00  0.00    +0.000 C 
ATOM     21  C   UNL     1       7.851   6.430  18.712  0.00  0.00    +0.000 C 
ATOM     22  C   UNL     1       6.972   5.192  18.740  0.00  0.00    +0.000 C 
ATOM     23  C   UNL     1       6.897   4.779  17.254  0.00  0.00    +0.000 C 
BRANCH  22  24
ATOM     24  O   UNL     1       5.703   5.532  19.307  0.00  0.00    +0.000 OA
ATOM     25  H   UNL     1       5.035   4.948  18.906  0.00  0.00    +0.000 HD
ENDBRANCH  22  24
ENDBRANCH  15  16
ENDBRANCH  14  15
ENDBRANCH   1  14
TORSDOF 8
ENDMDL
MODEL 8
REMARK VINA RESULT:      -7.1      1.379      2.019
REMARK  Name = 
REMARK  9 active torsions:
REMARK  status: ('A' for Active; 'I' for Inactive)
REMARK    1  A    between atoms: C_1  and  C_2
REMARK    2  A    between atoms: C_2  and  C_3
REMARK    3  A    between atoms: C_3  and  O_4
REMARK    4  A    between atoms: C_3  and  C_5
REMARK    5  A    between atoms: C_3  and  C_18
REMARK    6  A    between atoms: C_5  and  O_7
REMARK    7  A    between atoms: O_7  and  C_8
REMARK    8  A    between atoms: C_8  and  C_9
REMARK    9  A    between atoms: C_15  and  O_16
REMARK                            x       y       z     vdW  Elec       q    Type
REMARK                         _______ _______ _______ _____ _____    ______ ____
ROOT
ATOM      1  C   UNL     1       6.652   4.406  17.051  0.00  0.00    +0.000 C 
ATOM      2  O   UNL     1       7.879   4.442  17.078  0.00  0.00    +0.000 OA
ENDROOT
BRANCH   1   3
ATOM      3  C   UNL     1       5.795   5.126  15.974  0.00  0.00    +0.000 C 
BRANCH   3   4
ATOM      4  C   UNL     1       6.305   4.764  14.571  0.00  0.00    +0.000 A 
ATOM      5  C   UNL     1       5.626   3.794  13.800  0.00  0.00    +0.000 A 
ATOM      6  C   UNL     1       6.060   3.450  12.519  0.00  0.00    +0.000 A 
ATOM      7  C   UNL     1       7.165   4.086  11.967  0.00  0.00    +0.000 A 
ATOM      8  C   UNL     1       7.829   5.070  12.693  0.00  0.00    +0.000 A 
ATOM      9  C   UNL     1       7.402   5.409  13.981  0.00  0.00    +0.000 A 
ENDBRANCH   3   4
BRANCH   3  11
ATOM     10  C   UNL     1       6.884   7.125  17.198  0.00  0.00    +0.000 C 
ATOM     11  C   UNL     1       5.743   6.639  16.302  0.00  0.00    +0.000 C 
ENDBRANCH   3  11
BRANCH   3  12
ATOM     12  O   UNL     1       4.437   4.660  16.012  0.00  0.00    +0.000 OA
ATOM     13  H   UNL     1       3.966   5.227  16.648  0.00  0.00    +0.000 HD
ENDBRANCH   3  12
ENDBRANCH   1   3
BRANCH   1  14
ATOM     14  O   UNL     1       5.865   3.828  18.008  0.00  0.00    +0.000 OA
BRANCH  14  15
ATOM     15  C   UNL     1       5.740   4.570  19.229  0.00  0.00    +0.000 C 
BRANCH  15  16
ATOM     16  C   UNL     1       4.295   4.803  19.478  0.00  0.00    +0.000 C 
ATOM     17  C   UNL     1       3.600   5.917  19.236  0.00  0.00    +0.000 C 
ATOM     18  C   UNL     1       2.211   5.806  19.758  0.00  0.00    +0.000 C 
ATOM     19  N   UNL     1       2.091   4.430  20.274  0.00  0.00    +0.000 NA
ATOM     20  C   UNL     1       1.121   3.621  19.530  0.00  0.00    +0.000 C 
ATOM     21  C   UNL     1       1.706   2.219  19.530  0.00  0.00    +0.000 C 
ATOM     22  C   UNL     1       3.192   2.472  19.343  0.00  0.00    +0.000 C 
ATOM     23  C   UNL     1       3.430   3.778  20.129  0.00  0.00    +0.000 C 
BRANCH  22  24
ATOM     24  O   UNL     1       3.476   2.582  17.944  0.00  0.00    +0.000 OA
ATOM     25  H   UNL     1       3.267   1.723  17.533  0.00  0.00    +0.000 HD
ENDBRANCH  22  24
ENDBRANCH  15  16
ENDBRANCH  14  15
ENDBRANCH   1  14
TORSDOF 8
ENDMDL
MODEL 9
REMARK VINA RESULT:      -7.0      0.994      1.105
REMARK  Name = 
REMARK  9 active torsions:
REMARK  status: ('A' for Active; 'I' for Inactive)
REMARK    1  A    between atoms: C_1  and  C_2
REMARK    2  A    between atoms: C_2  and  C_3
REMARK    3  A    between atoms: C_3  and  O_4
REMARK    4  A    between atoms: C_3  and  C_5
REMARK    5  A    between atoms: C_3  and  C_18
REMARK    6  A    between atoms: C_5  and  O_7
REMARK    7  A    between atoms: O_7  and  C_8
REMARK    8  A    between atoms: C_8  and  C_9
REMARK    9  A    between atoms: C_15  and  O_16
REMARK                            x       y       z     vdW  Elec       q    Type
REMARK                         _______ _______ _______ _____ _____    ______ ____
ROOT
ATOM      1  C   UNL     1       5.340   6.118  17.237  0.00  0.00    +0.000 C 
ATOM      2  O   UNL     1       4.637   6.960  16.687  0.00  0.00    +0.000 OA
ENDROOT
BRANCH   1   3
ATOM      3  C   UNL     1       6.753   5.717  16.731  0.00  0.00    +0.000 C 
BRANCH   3   4
ATOM      4  C   UNL     1       6.648   5.062  15.346  0.00  0.00    +0.000 A 
ATOM      5  C   UNL     1       5.590   4.169  15.064  0.00  0.00    +0.000 A 
ATOM      6  C   UNL     1       5.463   3.564  13.813  0.00  0.00    +0.000 A 
ATOM      7  C   UNL     1       6.373   3.859  12.805  0.00  0.00    +0.000 A 
ATOM      8  C   UNL     1       7.403   4.762  13.047  0.00  0.00    +0.000 A 
ATOM      9  C   UNL     1       7.538   5.361  14.304  0.00  0.00    +0.000 A 
ENDBRANCH   3   4
BRANCH   3  11
ATOM     10  C   UNL     1       7.994   5.690  18.999  0.00  0.00    +0.000 C 
ATOM     11  C   UNL     1       7.456   4.872  17.823  0.00  0.00    +0.000 C 
ENDBRANCH   3  11
BRANCH   3  12
ATOM     12  O   UNL     1       7.572   6.880  16.536  0.00  0.00    +0.000 OA
ATOM     13  H   UNL     1       7.837   7.186  17.422  0.00  0.00    +0.000 HD
ENDBRANCH   3  12
ENDBRANCH   1   3
BRANCH   1  14
ATOM     14  O   UNL     1       4.952   5.343  18.294  0.00  0.00    +0.000 OA
BRANCH  14  15
ATOM     15  C   UNL     1       4.066   5.978  19.226  0.00  0.00    +0.000 C 
BRANCH  15  16
ATOM     16  C   UNL     1       3.110   4.955  19.720  0.00  0.00    +0.000 C 
ATOM     17  C   UNL     1       2.043   5.152  20.499  0.00  0.00    +0.000 C 
ATOM     18  C   UNL     1       1.423   3.859  20.894  0.00  0.00    +0.000 C 
ATOM     19  N   UNL     1       2.183   2.819  20.176  0.00  0.00    +0.000 NA
ATOM     20  C   UNL     1       1.374   2.094  19.191  0.00  0.00    +0.000 C 
ATOM     21  C   UNL     1       2.332   1.794  18.050  0.00  0.00    +0.000 C 
ATOM     22  C   UNL     1       3.164   3.062  17.964  0.00  0.00    +0.000 C 
ATOM     23  C   UNL     1       3.290   3.503  19.438  0.00  0.00    +0.000 C 
BRANCH  22  24
ATOM     24  O   UNL     1       2.487   4.011  17.135  0.00  0.00    +0.000 OA
ATOM     25  H   UNL     1       1.548   4.009  17.393  0.00  0.00    +0.000 HD
ENDBRANCH  22  24
ENDBRANCH  15  16
ENDBRANCH  14  15
ENDBRANCH   1  14
TORSDOF 8
ENDMDL
