MODEL 1
REMARK VINA RESULT:      -8.5      0.000      0.000
REMARK  Name = 
REMARK  9 active torsions:
REMARK  status: ('A' for Active; 'I' for Inactive)
REMARK    1  A    between atoms: N_1  and  S_2
REMARK    2  A    between atoms: S_2  and  O_5
REMARK    3  A    between atoms: O_5  and  C_6
REMARK    4  A    between atoms: C_6  and  C_7
REMARK    5  A    between atoms: C_9  and  N_10
REMARK    6  A    between atoms: C_14  and  C_15
REMARK    7  A    between atoms: C_19  and  C_20
REMARK    8  A    between atoms: C_29  and  O_30
REMARK    9  A    between atoms: C_31  and  O_32
REMARK                            x       y       z     vdW  Elec       q    Type
REMARK                         _______ _______ _______ _____ _____    ______ ____
ROOT
ATOM      1  N   UNL     1       3.092   6.701  18.902  0.00  0.00    +0.000 N 
ATOM      2  C   UNL     1       3.088   7.404  17.727  0.00  0.00    +0.000 A 
ATOM      3  N   UNL     1       2.255   8.418  17.764  0.00  0.00    +0.000 NA
ATOM      4  C   UNL     1       1.699   8.384  19.029  0.00  0.00    +0.000 A 
ATOM      5  C   UNL     1       0.760   9.190  19.690  0.00  0.00    +0.000 A 
ATOM      6  N   UNL     1       0.428   8.884  20.980  0.00  0.00    +0.000 NA
ATOM      7  C   UNL     1       1.005   7.806  21.552  0.00  0.00    +0.000 A 
ATOM      8  N   UNL     1       1.927   6.982  21.019  0.00  0.00    +0.000 NA
ATOM      9  C   UNL     1       2.218   7.319  19.754  0.00  0.00    +0.000 A 
ENDROOT
BRANCH   5  10
ATOM     10  C   UNL     1       0.122  10.351  19.060  0.00  0.00    +0.000 A 
ATOM     11  C   UNL     1       0.636  11.646  19.249  0.00  0.00    +0.000 A 
ATOM     12  C   UNL     1       0.042  12.759  18.647  0.00  0.00    +0.000 A 
ATOM     13  C   UNL     1      -1.088  12.602  17.847  0.00  0.00    +0.000 A 
ATOM     14  C   UNL     1      -1.637  11.332  17.643  0.00  0.00    +0.000 A 
ATOM     15  C   UNL     1      -1.024  10.223  18.253  0.00  0.00    +0.000 A 
BRANCH  14  16
ATOM     16  C   UNL     1      -2.864  11.127  16.793  0.00  0.00    +0.000 C 
ATOM     17  F   UNL     1      -3.892  11.966  17.108  0.00  0.00    +0.000 F 
ATOM     18  F   UNL     1      -2.625  11.318  15.466  0.00  0.00    +0.000 F 
ATOM     19  F   UNL     1      -3.371   9.866  16.903  0.00  0.00    +0.000 F 
ENDBRANCH  14  16
ENDBRANCH   5  10
BRANCH   1  22
ATOM     20  C   UNL     1       6.182   5.092  18.699  0.00  0.00    +0.000 C 
ATOM     21  O   UNL     1       5.283   5.977  19.410  0.00  0.00    +0.000 OA
ATOM     22  C   UNL     1       3.926   5.551  19.168  0.00  0.00    +0.000 C 
ATOM     23  C   UNL     1       3.950   4.501  18.061  0.00  0.00    +0.000 C 
ATOM     24  C   UNL     1       5.336   3.903  18.246  0.00  0.00    +0.000 C 
BRANCH  23  25
ATOM     25  O   UNL     1       2.928   3.517  18.227  0.00  0.00    +0.000 OA
ATOM     26  H   UNL     1       3.386   2.678  18.446  0.00  0.00    +0.000 HD
ENDBRANCH  23  25
BRANCH  24  27
ATOM     27  O   UNL     1       5.247   2.899  19.277  0.00  0.00    +0.000 OA
ATOM     28  H   UNL     1       6.144   2.588  19.499  0.00  0.00    +0.000 HD
ENDBRANCH  24  27
BRANCH  20  29
ATOM     29  C   UNL     1       6.852   5.833  17.539  0.00  0.00    +0.000 C 
BRANCH  29  30
ATOM     30  O   UNL     1       7.396   4.881  16.633  0.00  0.00    +0.000 OA
BRANCH  30  31
ATOM     31  S   UNL     1       6.840   4.907  15.114  0.00  0.00    +0.000 S 
ATOM     32  O   UNL     1       6.225   3.639  14.802  0.00  0.00    +0.000 OA
ATOM     33  O   UNL     1       7.861   5.484  14.273  0.00  0.00    +0.000 OA
BRANCH  31  34
ATOM     34  N   UNL     1       5.617   6.047  15.171  0.00  0.00    +0.000 NA
ATOM     35  H   UNL     1       5.800   6.772  14.479  0.00  0.00    +0.000 HD
ATOM     36  H   UNL     1       5.539   6.427  16.111  0.00  0.00    +0.000 HD
ENDBRANCH  31  34
ENDBRANCH  30  31
ENDBRANCH  29  30
ENDBRANCH  20  29
ENDBRANCH   1  22
TORSDOF 9
ENDMDL
MODEL 2
REMARK VINA RESULT:      -8.4      1.786      2.880
REMARK  Name = 
REMARK  9 active torsions:
REMARK  status: ('A' for Active; 'I' for Inactive)
REMARK    1  A    between atoms: N_1  and  S_2
REMARK    2  A    between atoms: S_2  and  O_5
REMARK    3  A    between atoms: O_5  and  C_6
REMARK    4  A    between atoms: C_6  and  C_7
REMARK    5  A    between atoms: C_9  and  N_10
REMARK    6  A    between atoms: C_14  and  C_15
REMARK    7  A    between atoms: C_19  and  C_20
REMARK    8  A    between atoms: C_29  and  O_30
REMARK    9  A    between atoms: C_31  and  O_32
REMARK                            x       y       z     vdW  Elec       q    Type
REMARK                         _______ _______ _______ _____ _____    ______ ____
ROOT
ATOM      1  N   UNL     1       2.708   4.818  19.776  0.00  0.00    +0.000 N 
ATOM      2  C   UNL     1       1.890   4.933  20.869  0.00  0.00    +0.000 A 
ATOM      3  N   UNL     1       1.399   6.145  20.988  0.00  0.00    +0.000 NA
ATOM      4  C   UNL     1       1.909   6.851  19.916  0.00  0.00    +0.000 A 
ATOM      5  C   UNL     1       1.759   8.174  19.475  0.00  0.00    +0.000 A 
ATOM      6  N   UNL     1       2.407   8.562  18.336  0.00  0.00    +0.000 NA
ATOM      7  C   UNL     1       3.180   7.657  17.698  0.00  0.00    +0.000 A 
ATOM      8  N   UNL     1       3.377   6.364  18.021  0.00  0.00    +0.000 NA
ATOM      9  C   UNL     1       2.725   6.032  19.145  0.00  0.00    +0.000 A 
ENDROOT
BRANCH   5  10
ATOM     10  C   UNL     1       0.932   9.159  20.179  0.00  0.00    +0.000 A 
ATOM     11  C   UNL     1       0.996   9.287  21.577  0.00  0.00    +0.000 A 
ATOM     12  C   UNL     1       0.219  10.228  22.259  0.00  0.00    +0.000 A 
ATOM     13  C   UNL     1      -0.650  11.061  21.554  0.00  0.00    +0.000 A 
ATOM     14  C   UNL     1      -0.751  10.957  20.163  0.00  0.00    +0.000 A 
ATOM     15  C   UNL     1       0.042  10.008  19.494  0.00  0.00    +0.000 A 
BRANCH  14  16
ATOM     16  C   UNL     1      -1.687  11.833  19.371  0.00  0.00    +0.000 C 
ATOM     17  F   UNL     1      -1.070  12.528  18.373  0.00  0.00    +0.000 F 
ATOM     18  F   UNL     1      -2.684  11.128  18.767  0.00  0.00    +0.000 F 
ATOM     19  F   UNL     1      -2.307  12.769  20.144  0.00  0.00    +0.000 F 
ENDBRANCH  14  16
ENDBRANCH   5  10
BRANCH   1  22
ATOM     20  C   UNL     1       4.801   3.101  17.573  0.00  0.00    +0.000 C 
ATOM     21  O   UNL     1       4.641   3.914  18.761  0.00  0.00    +0.000 OA
ATOM     22  C   UNL     1       3.371   3.599  19.371  0.00  0.00    +0.000 C 
ATOM     23  C   UNL     1       2.583   2.728  18.397  0.00  0.00    +0.000 C 
ATOM     24  C   UNL     1       3.704   2.039  17.636  0.00  0.00    +0.000 C 
BRANCH  23  25
ATOM     25  O   UNL     1       1.749   1.784  19.071  0.00  0.00    +0.000 OA
ATOM     26  H   UNL     1       2.316   1.009  19.271  0.00  0.00    +0.000 HD
ENDBRANCH  23  25
BRANCH  24  27
ATOM     27  O   UNL     1       4.124   0.898  18.411  0.00  0.00    +0.000 OA
ATOM     28  H   UNL     1       4.176   1.150  19.351  0.00  0.00    +0.000 HD
ENDBRANCH  24  27
BRANCH  20  29
ATOM     29  C   UNL     1       4.725   3.973  16.317  0.00  0.00    +0.000 C 
BRANCH  29  30
ATOM     30  O   UNL     1       5.921   3.808  15.565  0.00  0.00    +0.000 OA
BRANCH  30  31
ATOM     31  S   UNL     1       7.082   4.915  15.770  0.00  0.00    +0.000 S 
ATOM     32  O   UNL     1       7.614   5.303  14.486  0.00  0.00    +0.000 OA
ATOM     33  O   UNL     1       7.937   4.473  16.845  0.00  0.00    +0.000 OA
BRANCH  31  34
ATOM     34  N   UNL     1       6.253   6.233  16.379  0.00  0.00    +0.000 NA
ATOM     35  H   UNL     1       5.629   5.925  17.124  0.00  0.00    +0.000 HD
ATOM     36  H   UNL     1       5.750   6.705  15.631  0.00  0.00    +0.000 HD
ENDBRANCH  31  34
ENDBRANCH  30  31
ENDBRANCH  29  30
ENDBRANCH  20  29
ENDBRANCH   1  22
TORSDOF 9
ENDMDL
MODEL 3
REMARK VINA RESULT:      -8.3      2.317      2.783
REMARK  Name = 
REMARK  9 active torsions:
REMARK  status: ('A' for Active; 'I' for Inactive)
REMARK    1  A    between atoms: N_1  and  S_2
REMARK    2  A    between atoms: S_2  and  O_5
REMARK    3  A    between atoms: O_5  and  C_6
REMARK    4  A    between atoms: C_6  and  C_7
REMARK    5  A    between atoms: C_9  and  N_10
REMARK    6  A    between atoms: C_14  and  C_15
REMARK    7  A    between atoms: C_19  and  C_20
REMARK    8  A    between atoms: C_29  and  O_30
REMARK    9  A    between atoms: C_31  and  O_32
REMARK                            x       y       z     vdW  Elec       q    Type
REMARK                         _______ _______ _______ _____ _____    ______ ____
ROOT
ATOM      1  N   UNL     1       2.888   6.787  18.740  0.00  0.00    +0.000 N 
ATOM      2  C   UNL     1       3.052   7.599  17.649  0.00  0.00    +0.000 A 
ATOM      3  N   UNL     1       2.390   8.726  17.771  0.00  0.00    +0.000 NA
ATOM      4  C   UNL     1       1.775   8.653  19.007  0.00  0.00    +0.000 A 
ATOM      5  C   UNL     1       0.945   9.528  19.723  0.00  0.00    +0.000 A 
ATOM      6  N   UNL     1       0.507   9.150  20.961  0.00  0.00    +0.000 NA
ATOM      7  C   UNL     1       0.878   7.939  21.430  0.00  0.00    +0.000 A 
ATOM      8  N   UNL     1       1.682   7.035  20.838  0.00  0.00    +0.000 NA
ATOM      9  C   UNL     1       2.083   7.449  19.627  0.00  0.00    +0.000 A 
ENDROOT
BRANCH   5  10
ATOM     10  C   UNL     1       0.531  10.836  19.204  0.00  0.00    +0.000 A 
ATOM     11  C   UNL     1      -0.773  11.040  18.721  0.00  0.00    +0.000 A 
ATOM     12  C   UNL     1      -1.182  12.284  18.233  0.00  0.00    +0.000 A 
ATOM     13  C   UNL     1      -0.290  13.354  18.208  0.00  0.00    +0.000 A 
ATOM     14  C   UNL     1       1.020  13.189  18.669  0.00  0.00    +0.000 A 
ATOM     15  C   UNL     1       1.413  11.932  19.162  0.00  0.00    +0.000 A 
BRANCH  14  16
ATOM     16  C   UNL     1       2.015  14.322  18.648  0.00  0.00    +0.000 C 
ATOM     17  F   UNL     1       2.677  14.489  19.829  0.00  0.00    +0.000 F 
ATOM     18  F   UNL     1       2.982  14.156  17.703  0.00  0.00    +0.000 F 
ATOM     19  F   UNL     1       1.433  15.524  18.378  0.00  0.00    +0.000 F 
ENDBRANCH  14  16
ENDBRANCH   5  10
BRANCH   1  22
ATOM     20  C   UNL     1       5.720   4.755  18.574  0.00  0.00    +0.000 C 
ATOM     21  O   UNL     1       4.884   5.667  19.326  0.00  0.00    +0.000 OA
ATOM     22  C   UNL     1       3.514   5.495  18.905  0.00  0.00    +0.000 C 
ATOM     23  C   UNL     1       3.511   4.612  17.660  0.00  0.00    +0.000 C 
ATOM     24  C   UNL     1       4.768   3.785  17.875  0.00  0.00    +0.000 C 
BRANCH  23  25
ATOM     25  O   UNL     1       2.346   3.787  17.586  0.00  0.00    +0.000 OA
ATOM     26  H   UNL     1       2.643   2.924  17.228  0.00  0.00    +0.000 HD
ENDBRANCH  23  25
BRANCH  24  27
ATOM     27  O   UNL     1       4.424   2.679  18.733  0.00  0.00    +0.000 OA
ATOM     28  H   UNL     1       4.688   1.845  18.302  0.00  0.00    +0.000 HD
ENDBRANCH  24  27
BRANCH  20  29
ATOM     29  C   UNL     1       6.612   5.531  17.602  0.00  0.00    +0.000 C 
BRANCH  29  30
ATOM     30  O   UNL     1       7.066   4.647  16.582  0.00  0.00    +0.000 OA
BRANCH  30  31
ATOM     31  S   UNL     1       6.758   5.068  15.051  0.00  0.00    +0.000 S 
ATOM     32  O   UNL     1       7.982   5.476  14.406  0.00  0.00    +0.000 OA
ATOM     33  O   UNL     1       5.580   5.902  15.045  0.00  0.00    +0.000 OA
BRANCH  31  34
ATOM     34  N   UNL     1       6.284   3.629  14.344  0.00  0.00    +0.000 NA
ATOM     35  H   UNL     1       7.016   2.931  14.474  0.00  0.00    +0.000 HD
ATOM     36  H   UNL     1       6.067   3.777  13.361  0.00  0.00    +0.000 HD
ENDBRANCH  31  34
ENDBRANCH  30  31
ENDBRANCH  29  30
ENDBRANCH  20  29
ENDBRANCH   1  22
TORSDOF 9
ENDMDL
MODEL 4
REMARK VINA RESULT:      -8.3      0.795      1.216
REMARK  Name = 
REMARK  9 active torsions:
REMARK  status: ('A' for Active; 'I' for Inactive)
REMARK    1  A    between atoms: N_1  and  S_2
REMARK    2  A    between atoms: S_2  and  O_5
REMARK    3  A    between atoms: O_5  and  C_6
REMARK    4  A    between atoms: C_6  and  C_7
REMARK    5  A    between atoms: C_9  and  N_10
REMARK    6  A    between atoms: C_14  and  C_15
REMARK    7  A    between atoms: C_19  and  C_20
REMARK    8  A    between atoms: C_29  and  O_30
REMARK    9  A    between atoms: C_31  and  O_32
REMARK                            x       y       z     vdW  Elec       q    Type
REMARK                         _______ _______ _______ _____ _____    ______ ____
ROOT
ATOM      1  N   UNL     1       3.113   6.682  18.938  0.00  0.00    +0.000 N 
ATOM      2  C   UNL     1       3.126   7.389  17.765  0.00  0.00    +0.000 A 
ATOM      3  N   UNL     1       2.291   8.401  17.793  0.00  0.00    +0.000 NA
ATOM      4  C   UNL     1       1.715   8.363  19.048  0.00  0.00    +0.000 A 
ATOM      5  C   UNL     1       0.764   9.164  19.696  0.00  0.00    +0.000 A 
ATOM      6  N   UNL     1       0.412   8.854  20.980  0.00  0.00    +0.000 NA
ATOM      7  C   UNL     1       0.982   7.775  21.559  0.00  0.00    +0.000 A 
ATOM      8  N   UNL     1       1.914   6.954  21.038  0.00  0.00    +0.000 NA
ATOM      9  C   UNL     1       2.224   7.296  19.778  0.00  0.00    +0.000 A 
ENDROOT
BRANCH   5  10
ATOM     10  C   UNL     1       0.134  10.326  19.060  0.00  0.00    +0.000 A 
ATOM     11  C   UNL     1       0.660  11.617  19.236  0.00  0.00    +0.000 A 
ATOM     12  C   UNL     1       0.074  12.731  18.627  0.00  0.00    +0.000 A 
ATOM     13  C   UNL     1      -1.062  12.578  17.834  0.00  0.00    +0.000 A 
ATOM     14  C   UNL     1      -1.623  11.311  17.644  0.00  0.00    +0.000 A 
ATOM     15  C   UNL     1      -1.017  10.202  18.260  0.00  0.00    +0.000 A 
BRANCH  14  16
ATOM     16  C   UNL     1      -2.857  11.111  16.802  0.00  0.00    +0.000 C 
ATOM     17  F   UNL     1      -2.665  11.383  15.479  0.00  0.00    +0.000 F 
ATOM     18  F   UNL     1      -3.326   9.833  16.851  0.00  0.00    +0.000 F 
ATOM     19  F   UNL     1      -3.893  11.904  17.195  0.00  0.00    +0.000 F 
ENDBRANCH  14  16
ENDBRANCH   5  10
BRANCH   1  22
ATOM     20  C   UNL     1       5.228   4.140  17.823  0.00  0.00    +0.000 C 
ATOM     21  O   UNL     1       5.053   5.499  18.292  0.00  0.00    +0.000 OA
ATOM     22  C   UNL     1       3.945   5.532  19.215  0.00  0.00    +0.000 C 
ATOM     23  C   UNL     1       3.230   4.186  19.143  0.00  0.00    +0.000 C 
ATOM     24  C   UNL     1       4.367   3.265  18.732  0.00  0.00    +0.000 C 
BRANCH  23  25
ATOM     25  O   UNL     1       2.672   3.803  20.402  0.00  0.00    +0.000 OA
ATOM     26  H   UNL     1       3.018   2.906  20.595  0.00  0.00    +0.000 HD
ENDBRANCH  23  25
BRANCH  24  27
ATOM     27  O   UNL     1       5.080   2.889  19.927  0.00  0.00    +0.000 OA
ATOM     28  H   UNL     1       5.047   3.626  20.566  0.00  0.00    +0.000 HD
ENDBRANCH  24  27
BRANCH  20  29
ATOM     29  C   UNL     1       4.846   4.034  16.345  0.00  0.00    +0.000 C 
BRANCH  29  30
ATOM     30  O   UNL     1       6.032   3.936  15.565  0.00  0.00    +0.000 OA
BRANCH  30  31
ATOM     31  S   UNL     1       6.713   5.321  15.080  0.00  0.00    +0.000 S 
ATOM     32  O   UNL     1       7.119   5.204  13.700  0.00  0.00    +0.000 OA
ATOM     33  O   UNL     1       7.629   5.752  16.108  0.00  0.00    +0.000 OA
BRANCH  31  34
ATOM     34  N   UNL     1       5.446   6.411  15.131  0.00  0.00    +0.000 NA
ATOM     35  H   UNL     1       4.748   6.151  14.434  0.00  0.00    +0.000 HD
ATOM     36  H   UNL     1       5.794   7.357  14.989  0.00  0.00    +0.000 HD
ENDBRANCH  31  34
ENDBRANCH  30  31
ENDBRANCH  29  30
ENDBRANCH  20  29
ENDBRANCH   1  22
TORSDOF 9
ENDMDL
MODEL 5
REMARK VINA RESULT:      -8.3      0.629      1.019
REMARK  Name = 
REMARK  9 active torsions:
REMARK  status: ('A' for Active; 'I' for Inactive)
REMARK    1  A    between atoms: N_1  and  S_2
REMARK    2  A    between atoms: S_2  and  O_5
REMARK    3  A    between atoms: O_5  and  C_6
REMARK    4  A    between atoms: C_6  and  C_7
REMARK    5  A    between atoms: C_9  and  N_10
REMARK    6  A    between atoms: C_14  and  C_15
REMARK    7  A    between atoms: C_19  and  C_20
REMARK    8  A    between atoms: C_29  and  O_30
REMARK    9  A    between atoms: C_31  and  O_32
REMARK                            x       y       z     vdW  Elec       q    Type
REMARK                         _______ _______ _______ _____ _____    ______ ____
ROOT
ATOM      1  N   UNL     1       3.109   6.709  18.870  0.00  0.00    +0.000 N 
ATOM      2  C   UNL     1       3.100   7.412  17.695  0.00  0.00    +0.000 A 
ATOM      3  N   UNL     1       2.265   8.424  17.735  0.00  0.00    +0.000 NA
ATOM      4  C   UNL     1       1.713   8.389  19.001  0.00  0.00    +0.000 A 
ATOM      5  C   UNL     1       0.773   9.191  19.665  0.00  0.00    +0.000 A 
ATOM      6  N   UNL     1       0.445   8.885  20.956  0.00  0.00    +0.000 NA
ATOM      7  C   UNL     1       1.027   7.808  21.526  0.00  0.00    +0.000 A 
ATOM      8  N   UNL     1       1.950   6.986  20.991  0.00  0.00    +0.000 NA
ATOM      9  C   UNL     1       2.236   7.325  19.724  0.00  0.00    +0.000 A 
ENDROOT
BRANCH   5  10
ATOM     10  C   UNL     1       0.131  10.351  19.037  0.00  0.00    +0.000 A 
ATOM     11  C   UNL     1       0.640  11.648  19.228  0.00  0.00    +0.000 A 
ATOM     12  C   UNL     1       0.042  12.759  18.628  0.00  0.00    +0.000 A 
ATOM     13  C   UNL     1      -1.088  12.600  17.827  0.00  0.00    +0.000 A 
ATOM     14  C   UNL     1      -1.632  11.328  17.622  0.00  0.00    +0.000 A 
ATOM     15  C   UNL     1      -1.014  10.220  18.230  0.00  0.00    +0.000 A 
BRANCH  14  16
ATOM     16  C   UNL     1      -2.859  11.119  16.772  0.00  0.00    +0.000 C 
ATOM     17  F   UNL     1      -3.371   9.858  16.854  0.00  0.00    +0.000 F 
ATOM     18  F   UNL     1      -3.881  11.954  17.108  0.00  0.00    +0.000 F 
ATOM     19  F   UNL     1      -2.620  11.335  15.448  0.00  0.00    +0.000 F 
ENDBRANCH  14  16
ENDBRANCH   5  10
BRANCH   1  22
ATOM     20  C   UNL     1       6.205   5.110  18.665  0.00  0.00    +0.000 C 
ATOM     21  O   UNL     1       5.302   5.990  19.377  0.00  0.00    +0.000 OA
ATOM     22  C   UNL     1       3.947   5.560  19.134  0.00  0.00    +0.000 C 
ATOM     23  C   UNL     1       3.975   4.513  18.024  0.00  0.00    +0.000 C 
ATOM     24  C   UNL     1       5.362   3.919  18.208  0.00  0.00    +0.000 C 
BRANCH  23  25
ATOM     25  O   UNL     1       2.955   3.525  18.188  0.00  0.00    +0.000 OA
ATOM     26  H   UNL     1       2.240   3.951  18.707  0.00  0.00    +0.000 HD
ENDBRANCH  23  25
BRANCH  24  27
ATOM     27  O   UNL     1       5.276   2.913  19.237  0.00  0.00    +0.000 OA
ATOM     28  H   UNL     1       5.156   2.039  18.821  0.00  0.00    +0.000 HD
ENDBRANCH  24  27
BRANCH  20  29
ATOM     29  C   UNL     1       6.872   5.856  17.507  0.00  0.00    +0.000 C 
BRANCH  29  30
ATOM     30  O   UNL     1       7.299   4.912  16.531  0.00  0.00    +0.000 OA
BRANCH  30  31
ATOM     31  S   UNL     1       6.607   4.995  15.071  0.00  0.00    +0.000 S 
ATOM     32  O   UNL     1       5.629   6.055  15.059  0.00  0.00    +0.000 OA
ATOM     33  O   UNL     1       6.279   3.653  14.655  0.00  0.00    +0.000 OA
BRANCH  31  34
ATOM     34  N   UNL     1       7.864   5.472  14.076  0.00  0.00    +0.000 NA
ATOM     35  H   UNL     1       8.007   6.477  14.171  0.00  0.00    +0.000 HD
ATOM     36  H   UNL     1       7.668   5.203  13.115  0.00  0.00    +0.000 HD
ENDBRANCH  31  34
ENDBRANCH  30  31
ENDBRANCH  29  30
ENDBRANCH  20  29
ENDBRANCH   1  22
TORSDOF 9
ENDMDL
MODEL 6
REMARK VINA RESULT:      -8.2      2.016      3.110
REMARK  Name = 
REMARK  9 active torsions:
REMARK  status: ('A' for Active; 'I' for Inactive)
REMARK    1  A    between atoms: N_1  and  S_2
REMARK    2  A    between atoms: S_2  and  O_5
REMARK    3  A    between atoms: O_5  and  C_6
REMARK    4  A    between atoms: C_6  and  C_7
REMARK    5  A    between atoms: C_9  and  N_10
REMARK    6  A    between atoms: C_14  and  C_15
REMARK    7  A    between atoms: C_19  and  C_20
REMARK    8  A    between atoms: C_29  and  O_30
REMARK    9  A    between atoms: C_31  and  O_32
REMARK                            x       y       z     vdW  Elec       q    Type
REMARK                         _______ _______ _______ _____ _____    ______ ____
ROOT
ATOM      1  N   UNL     1       2.670   4.689  19.826  0.00  0.00    +0.000 N 
ATOM      2  C   UNL     1       1.892   4.778  20.949  0.00  0.00    +0.000 A 
ATOM      3  N   UNL     1       1.419   5.990  21.124  0.00  0.00    +0.000 NA
ATOM      4  C   UNL     1       1.899   6.724  20.057  0.00  0.00    +0.000 A 
ATOM      5  C   UNL     1       1.749   8.062  19.663  0.00  0.00    +0.000 A 
ATOM      6  N   UNL     1       2.361   8.479  18.514  0.00  0.00    +0.000 NA
ATOM      7  C   UNL     1       3.101   7.587  17.822  0.00  0.00    +0.000 A 
ATOM      8  N   UNL     1       3.295   6.283  18.098  0.00  0.00    +0.000 NA
ATOM      9  C   UNL     1       2.679   5.923  19.233  0.00  0.00    +0.000 A 
ENDROOT
BRANCH   5  10
ATOM     10  C   UNL     1       0.957   9.033  20.425  0.00  0.00    +0.000 A 
ATOM     11  C   UNL     1       0.896   8.970  21.828  0.00  0.00    +0.000 A 
ATOM     12  C   UNL     1       0.152   9.895  22.567  0.00  0.00    +0.000 A 
ATOM     13  C   UNL     1      -0.557  10.903  21.915  0.00  0.00    +0.000 A 
ATOM     14  C   UNL     1      -0.531  10.993  20.519  0.00  0.00    +0.000 A 
ATOM     15  C   UNL     1       0.227  10.057  19.793  0.00  0.00    +0.000 A 
BRANCH  14  16
ATOM     16  C   UNL     1      -1.294  12.062  19.781  0.00  0.00    +0.000 C 
ATOM     17  F   UNL     1      -2.602  11.744  19.559  0.00  0.00    +0.000 F 
ATOM     18  F   UNL     1      -1.311  13.251  20.445  0.00  0.00    +0.000 F 
ATOM     19  F   UNL     1      -0.765  12.328  18.553  0.00  0.00    +0.000 F 
ENDBRANCH  14  16
ENDBRANCH   5  10
BRANCH   1  22
ATOM     20  C   UNL     1       4.690   3.028  17.515  0.00  0.00    +0.000 C 
ATOM     21  O   UNL     1       4.567   3.797  18.736  0.00  0.00    +0.000 OA
ATOM     22  C   UNL     1       3.306   3.477  19.360  0.00  0.00    +0.000 C 
ATOM     23  C   UNL     1       2.484   2.656  18.371  0.00  0.00    +0.000 C 
ATOM     24  C   UNL     1       3.578   1.981  17.560  0.00  0.00    +0.000 C 
BRANCH  23  25
ATOM     25  O   UNL     1       1.649   1.699  19.026  0.00  0.00    +0.000 OA
ATOM     26  H   UNL     1       0.745   1.833  18.671  0.00  0.00    +0.000 HD
ENDBRANCH  23  25
BRANCH  24  27
ATOM     27  O   UNL     1       3.996   0.804  18.281  0.00  0.00    +0.000 OA
ATOM     28  H   UNL     1       4.452   1.075  19.100  0.00  0.00    +0.000 HD
ENDBRANCH  24  27
BRANCH  20  29
ATOM     29  C   UNL     1       4.602   3.949  16.295  0.00  0.00    +0.000 C 
BRANCH  29  30
ATOM     30  O   UNL     1       5.832   3.894  15.582  0.00  0.00    +0.000 OA
BRANCH  30  31
ATOM     31  S   UNL     1       6.936   5.024  15.928  0.00  0.00    +0.000 S 
ATOM     32  O   UNL     1       7.944   4.467  16.797  0.00  0.00    +0.000 OA
ATOM     33  O   UNL     1       6.239   6.244  16.257  0.00  0.00    +0.000 OA
BRANCH  31  34
ATOM     34  N   UNL     1       7.665   5.316  14.451  0.00  0.00    +0.000 NA
ATOM     35  H   UNL     1       6.946   5.457  13.742  0.00  0.00    +0.000 HD
ATOM     36  H   UNL     1       8.290   4.549  14.214  0.00  0.00    +0.000 HD
ENDBRANCH  31  34
ENDBRANCH  30  31
ENDBRANCH  29  30
ENDBRANCH  20  29
ENDBRANCH   1  22
TORSDOF 9
ENDMDL
MODEL 7
REMARK VINA RESULT:      -8.1      2.530      3.076
REMARK  Name = 
REMARK  9 active torsions:
REMARK  status: ('A' for Active; 'I' for Inactive)
REMARK    1  A    between atoms: N_1  and  S_2
REMARK    2  A    between atoms: S_2  and  O_5
REMARK    3  A    between atoms: O_5  and  C_6
REMARK    4  A    between atoms: C_6  and  C_7
REMARK    5  A    between atoms: C_9  and  N_10
REMARK    6  A    between atoms: C_14  and  C_15
REMARK    7  A    between atoms: C_19  and  C_20
REMARK    8  A    between atoms: C_29  and  O_30
REMARK    9  A    between atoms: C_31  and  O_32
REMARK                            x       y       z     vdW  Elec       q    Type
REMARK                         _______ _______ _______ _____ _____    ______ ____
ROOT
ATOM      1  N   UNL     1       2.552   6.940  19.058  0.00  0.00    +0.000 N 
ATOM      2  C   UNL     1       2.758   7.665  17.914  0.00  0.00    +0.000 A 
ATOM      3  N   UNL     1       2.197   8.850  17.976  0.00  0.00    +0.000 NA
ATOM      4  C   UNL     1       1.607   8.907  19.224  0.00  0.00    +0.000 A 
ATOM      5  C   UNL     1       0.870   9.893  19.897  0.00  0.00    +0.000 A 
ATOM      6  N   UNL     1       0.430   9.631  21.164  0.00  0.00    +0.000 NA
ATOM      7  C   UNL     1       0.708   8.425  21.703  0.00  0.00    +0.000 A 
ATOM      8  N   UNL     1       1.419   7.420  21.156  0.00  0.00    +0.000 NA
ATOM      9  C   UNL     1       1.826   7.722  19.914  0.00  0.00    +0.000 A 
ENDROOT
BRANCH   5  10
ATOM     10  C   UNL     1       0.556  11.197  19.303  0.00  0.00    +0.000 A 
ATOM     11  C   UNL     1      -0.714  11.453  18.757  0.00  0.00    +0.000 A 
ATOM     12  C   UNL     1      -1.028  12.695  18.197  0.00  0.00    +0.000 A 
ATOM     13  C   UNL     1      -0.072  13.709  18.161  0.00  0.00    +0.000 A 
ATOM     14  C   UNL     1       1.206  13.490  18.683  0.00  0.00    +0.000 A 
ATOM     15  C   UNL     1       1.503  12.237  19.248  0.00  0.00    +0.000 A 
BRANCH  14  16
ATOM     16  C   UNL     1       2.268  14.560  18.652  0.00  0.00    +0.000 C 
ATOM     17  F   UNL     1       1.811  15.768  18.216  0.00  0.00    +0.000 F 
ATOM     18  F   UNL     1       2.817  14.793  19.876  0.00  0.00    +0.000 F 
ATOM     19  F   UNL     1       3.308  14.240  17.831  0.00  0.00    +0.000 F 
ENDBRANCH  14  16
ENDBRANCH   5  10
BRANCH   1  22
ATOM     20  C   UNL     1       4.471   4.214  18.025  0.00  0.00    +0.000 C 
ATOM     21  O   UNL     1       4.383   5.489  18.706  0.00  0.00    +0.000 OA
ATOM     22  C   UNL     1       3.071   5.612  19.294  0.00  0.00    +0.000 C 
ATOM     23  C   UNL     1       2.205   4.476  18.757  0.00  0.00    +0.000 C 
ATOM     24  C   UNL     1       3.251   3.410  18.474  0.00  0.00    +0.000 C 
BRANCH  23  25
ATOM     25  O   UNL     1       1.246   4.028  19.718  0.00  0.00    +0.000 OA
ATOM     26  H   UNL     1       0.565   4.731  19.776  0.00  0.00    +0.000 HD
ENDBRANCH  23  25
BRANCH  24  27
ATOM     27  O   UNL     1       3.510   2.710  19.707  0.00  0.00    +0.000 OA
ATOM     28  H   UNL     1       2.691   2.271  20.005  0.00  0.00    +0.000 HD
ENDBRANCH  24  27
BRANCH  20  29
ATOM     29  C   UNL     1       4.531   4.423  16.510  0.00  0.00    +0.000 C 
BRANCH  29  30
ATOM     30  O   UNL     1       5.793   3.974  16.030  0.00  0.00    +0.000 OA
BRANCH  30  31
ATOM     31  S   UNL     1       7.012   5.037  16.052  0.00  0.00    +0.000 S 
ATOM     32  O   UNL     1       7.556   5.179  14.723  0.00  0.00    +0.000 OA
ATOM     33  O   UNL     1       7.850   4.732  17.187  0.00  0.00    +0.000 OA
BRANCH  31  34
ATOM     34  N   UNL     1       6.258   6.479  16.434  0.00  0.00    +0.000 NA
ATOM     35  H   UNL     1       5.359   6.285  16.873  0.00  0.00    +0.000 HD
ATOM     36  H   UNL     1       6.160   7.053  15.600  0.00  0.00    +0.000 HD
ENDBRANCH  31  34
ENDBRANCH  30  31
ENDBRANCH  29  30
ENDBRANCH  20  29
ENDBRANCH   1  22
TORSDOF 9
ENDMDL
MODEL 8
REMARK VINA RESULT:      -8.0      1.003      1.305
REMARK  Name = 
REMARK  9 active torsions:
REMARK  status: ('A' for Active; 'I' for Inactive)
REMARK    1  A    between atoms: N_1  and  S_2
REMARK    2  A    between atoms: S_2  and  O_5
REMARK    3  A    between atoms: O_5  and  C_6
REMARK    4  A    between atoms: C_6  and  C_7
REMARK    5  A    between atoms: C_9  and  N_10
REMARK    6  A    between atoms: C_14  and  C_15
REMARK    7  A    between atoms: C_19  and  C_20
REMARK    8  A    between atoms: C_29  and  O_30
REMARK    9  A    between atoms: C_31  and  O_32
REMARK                            x       y       z     vdW  Elec       q    Type
REMARK                         _______ _______ _______ _____ _____    ______ ____
ROOT
ATOM      1  N   UNL     1       3.074   6.728  18.932  0.00  0.00    +0.000 N 
ATOM      2  C   UNL     1       3.086   7.443  17.764  0.00  0.00    +0.000 A 
ATOM      3  N   UNL     1       2.245   8.450  17.796  0.00  0.00    +0.000 NA
ATOM      4  C   UNL     1       1.666   8.399  19.049  0.00  0.00    +0.000 A 
ATOM      5  C   UNL     1       0.708   9.191  19.701  0.00  0.00    +0.000 A 
ATOM      6  N   UNL     1       0.354   8.869  20.981  0.00  0.00    +0.000 NA
ATOM      7  C   UNL     1       0.929   7.790  21.553  0.00  0.00    +0.000 A 
ATOM      8  N   UNL     1       1.867   6.978  21.029  0.00  0.00    +0.000 NA
ATOM      9  C   UNL     1       2.179   7.331  19.773  0.00  0.00    +0.000 A 
ENDROOT
BRANCH   5  10
ATOM     10  C   UNL     1       0.074  10.354  19.071  0.00  0.00    +0.000 A 
ATOM     11  C   UNL     1       0.590  11.647  19.261  0.00  0.00    +0.000 A 
ATOM     12  C   UNL     1      -0.001  12.762  18.659  0.00  0.00    +0.000 A 
ATOM     13  C   UNL     1      -1.131  12.608  17.857  0.00  0.00    +0.000 A 
ATOM     14  C   UNL     1      -1.681  11.339  17.653  0.00  0.00    +0.000 A 
ATOM     15  C   UNL     1      -1.071  10.228  18.262  0.00  0.00    +0.000 A 
BRANCH  14  16
ATOM     16  C   UNL     1      -2.909  11.137  16.801  0.00  0.00    +0.000 C 
ATOM     17  F   UNL     1      -3.417   9.873  16.869  0.00  0.00    +0.000 F 
ATOM     18  F   UNL     1      -3.933  11.965  17.148  0.00  0.00    +0.000 F 
ATOM     19  F   UNL     1      -2.671  11.369  15.479  0.00  0.00    +0.000 F 
ENDBRANCH  14  16
ENDBRANCH   5  10
BRANCH   1  22
ATOM     20  C   UNL     1       5.263   4.249  17.816  0.00  0.00    +0.000 C 
ATOM     21  O   UNL     1       5.052   5.591  18.319  0.00  0.00    +0.000 OA
ATOM     22  C   UNL     1       3.911   5.581  19.202  0.00  0.00    +0.000 C 
ATOM     23  C   UNL     1       3.218   4.229  19.063  0.00  0.00    +0.000 C 
ATOM     24  C   UNL     1       4.382   3.335  18.666  0.00  0.00    +0.000 C 
BRANCH  23  25
ATOM     25  O   UNL     1       2.621   3.799  20.289  0.00  0.00    +0.000 OA
ATOM     26  H   UNL     1       2.899   2.868  20.419  0.00  0.00    +0.000 HD
ENDBRANCH  23  25
BRANCH  24  27
ATOM     27  O   UNL     1       5.057   2.931  19.874  0.00  0.00    +0.000 OA
ATOM     28  H   UNL     1       5.951   3.321  19.887  0.00  0.00    +0.000 HD
ENDBRANCH  24  27
BRANCH  20  29
ATOM     29  C   UNL     1       4.935   4.184  16.322  0.00  0.00    +0.000 C 
BRANCH  29  30
ATOM     30  O   UNL     1       5.580   5.264  15.658  0.00  0.00    +0.000 OA
BRANCH  30  31
ATOM     31  S   UNL     1       7.195   5.322  15.740  0.00  0.00    +0.000 S 
ATOM     32  O   UNL     1       7.700   4.062  16.228  0.00  0.00    +0.000 OA
ATOM     33  O   UNL     1       7.566   6.578  16.347  0.00  0.00    +0.000 OA
BRANCH  31  34
ATOM     34  N   UNL     1       7.657   5.452  14.138  0.00  0.00    +0.000 NA
ATOM     35  H   UNL     1       6.832   5.397  13.543  0.00  0.00    +0.000 HD
ATOM     36  H   UNL     1       8.340   4.732  13.913  0.00  0.00    +0.000 HD
ENDBRANCH  31  34
ENDBRANCH  30  31
ENDBRANCH  29  30
ENDBRANCH  20  29
ENDBRANCH   1  22
TORSDOF 9
ENDMDL
MODEL 9
REMARK VINA RESULT:      -8.0      2.479      3.283
REMARK  Name = 
REMARK  9 active torsions:
REMARK  status: ('A' for Active; 'I' for Inactive)
REMARK    1  A    between atoms: N_1  and  S_2
REMARK    2  A    between atoms: S_2  and  O_5
REMARK    3  A    between atoms: O_5  and  C_6
REMARK    4  A    between atoms: C_6  and  C_7
REMARK    5  A    between atoms: C_9  and  N_10
REMARK    6  A    between atoms: C_14  and  C_15
REMARK    7  A    between atoms: C_19  and  C_20
REMARK    8  A    between atoms: C_29  and  O_30
REMARK    9  A    between atoms: C_31  and  O_32
REMARK                            x       y       z     vdW  Elec       q    Type
REMARK                         _______ _______ _______ _____ _____    ______ ____
ROOT
ATOM      1  N   UNL     1       2.784   5.845  19.936  0.00  0.00    +0.000 N 
ATOM      2  C   UNL     1       1.838   6.038  20.907  0.00  0.00    +0.000 A 
ATOM      3  N   UNL     1       1.186   7.165  20.740  0.00  0.00    +0.000 NA
ATOM      4  C   UNL     1       1.722   7.728  19.598  0.00  0.00    +0.000 A 
ATOM      5  C   UNL     1       1.458   8.911  18.891  0.00  0.00    +0.000 A 
ATOM      6  N   UNL     1       2.178   9.173  17.760  0.00  0.00    +0.000 NA
ATOM      7  C   UNL     1       3.127   8.289  17.385  0.00  0.00    +0.000 A 
ATOM      8  N   UNL     1       3.448   7.122  17.975  0.00  0.00    +0.000 NA
ATOM      9  C   UNL     1       2.719   6.911  19.081  0.00  0.00    +0.000 A 
ENDROOT
BRANCH   5  10
ATOM     10  C   UNL     1       0.436   9.877  19.309  0.00  0.00    +0.000 A 
ATOM     11  C   UNL     1      -0.365  10.535  18.360  0.00  0.00    +0.000 A 
ATOM     12  C   UNL     1      -1.348  11.451  18.746  0.00  0.00    +0.000 A 
ATOM     13  C   UNL     1      -1.546  11.737  20.096  0.00  0.00    +0.000 A 
ATOM     14  C   UNL     1      -0.761  11.113  21.071  0.00  0.00    +0.000 A 
ATOM     15  C   UNL     1       0.219  10.190  20.664  0.00  0.00    +0.000 A 
BRANCH  14  16
ATOM     16  C   UNL     1      -0.940  11.406  22.539  0.00  0.00    +0.000 C 
ATOM     17  F   UNL     1      -0.445  12.620  22.916  0.00  0.00    +0.000 F 
ATOM     18  F   UNL     1      -2.247  11.406  22.921  0.00  0.00    +0.000 F 
ATOM     19  F   UNL     1      -0.318  10.491  23.334  0.00  0.00    +0.000 F 
ENDBRANCH  14  16
ENDBRANCH   5  10
BRANCH   1  22
ATOM     20  C   UNL     1       4.946   3.822  18.088  0.00  0.00    +0.000 C 
ATOM     21  O   UNL     1       4.745   4.962  18.958  0.00  0.00    +0.000 OA
ATOM     22  C   UNL     1       3.639   4.683  19.841  0.00  0.00    +0.000 C 
ATOM     23  C   UNL     1       2.951   3.413  19.349  0.00  0.00    +0.000 C 
ATOM     24  C   UNL     1       4.105   2.689  18.674  0.00  0.00    +0.000 C 
BRANCH  23  25
ATOM     25  O   UNL     1       2.404   2.644  20.422  0.00  0.00    +0.000 OA
ATOM     26  H   UNL     1       2.650   1.711  20.245  0.00  0.00    +0.000 HD
ENDBRANCH  23  25
BRANCH  24  27
ATOM     27  O   UNL     1       4.829   1.972  19.694  0.00  0.00    +0.000 OA
ATOM     28  H   UNL     1       4.599   1.025  19.646  0.00  0.00    +0.000 HD
ENDBRANCH  24  27
BRANCH  20  29
ATOM     29  C   UNL     1       4.562   4.176  16.649  0.00  0.00    +0.000 C 
BRANCH  29  30
ATOM     30  O   UNL     1       5.647   3.856  15.787  0.00  0.00    +0.000 OA
BRANCH  30  31
ATOM     31  S   UNL     1       6.817   4.962  15.630  0.00  0.00    +0.000 S 
ATOM     32  O   UNL     1       7.023   5.254  14.232  0.00  0.00    +0.000 OA
ATOM     33  O   UNL     1       7.907   4.586  16.497  0.00  0.00    +0.000 OA
BRANCH  31  34
ATOM     34  N   UNL     1       6.150   6.329  16.325  0.00  0.00    +0.000 NA
ATOM     35  H   UNL     1       5.398   6.677  15.732  0.00  0.00    +0.000 HD
ATOM     36  H   UNL     1       6.871   7.029  16.479  0.00  0.00    +0.000 HD
ENDBRANCH  31  34
ENDBRANCH  30  31
ENDBRANCH  29  30
ENDBRANCH  20  29
ENDBRANCH   1  22
TORSDOF 9
ENDMDL
