MODEL 1
REMARK VINA RESULT:      -7.7      0.000      0.000
REMARK  Name = 
REMARK  5 active torsions:
REMARK  status: ('A' for Active; 'I' for Inactive)
REMARK    1  A    between atoms: N_1  and  S_2
REMARK    2  A    between atoms: S_2  and  C_5
REMARK    3  A    between atoms: C_8  and  C_9
REMARK    4  A    between atoms: N_11  and  N_12
REMARK    5  A    between atoms: C_13  and  C_15
REMARK                            x       y       z     vdW  Elec       q    Type
REMARK                         _______ _______ _______ _____ _____    ______ ____
ROOT
ATOM      1  C   UNL     1       2.396   7.100  19.553  0.00  0.00    +0.000 C 
ATOM      2  O   UNL     1       1.884   6.406  20.430  0.00  0.00    +0.000 OA
ATOM      3  N   UNL     1       1.992   8.402  19.327  0.00  0.00    +0.000 N 
ATOM      4  H   UNL     1       2.397   9.047  18.654  0.00  0.00    +0.000 HD
ENDROOT
BRANCH   1   8
ATOM      5  C   UNL     1       5.533   5.429  17.129  0.00  0.00    +0.000 A 
ATOM      6  C   UNL     1       5.224   4.865  18.369  0.00  0.00    +0.000 A 
ATOM      7  C   UNL     1       4.201   5.431  19.142  0.00  0.00    +0.000 A 
ATOM      8  C   UNL     1       3.486   6.554  18.685  0.00  0.00    +0.000 A 
ATOM      9  C   UNL     1       3.816   7.106  17.440  0.00  0.00    +0.000 A 
ATOM     10  C   UNL     1       4.835   6.545  16.664  0.00  0.00    +0.000 A 
BRANCH   5  11
ATOM     11  S   UNL     1       6.792   4.715  16.112  0.00  0.00    +0.000 S 
ATOM     12  O   UNL     1       7.433   5.764  15.359  0.00  0.00    +0.000 OA
ATOM     13  O   UNL     1       6.271   3.516  15.487  0.00  0.00    +0.000 OA
BRANCH  11  14
ATOM     14  N   UNL     1       7.904   4.167  17.241  0.00  0.00    +0.000 NA
ATOM     15  H   UNL     1       7.836   3.147  17.305  0.00  0.00    +0.000 HD
ATOM     16  H   UNL     1       7.761   4.632  18.135  0.00  0.00    +0.000 HD
ENDBRANCH  11  14
ENDBRANCH   5  11
ENDBRANCH   1   8
BRANCH   3  17
ATOM     17  N   UNL     1       0.961   8.931  20.114  0.00  0.00    +0.000 N 
ATOM     18  C   UNL     1       0.719  10.289  20.010  0.00  0.00    +0.000 C 
ATOM     19  O   UNL     1       1.327  11.007  19.221  0.00  0.00    +0.000 OA
ATOM     20  H   UNL     1       0.609   8.330  20.851  0.00  0.00    +0.000 HD
BRANCH  18  21
ATOM     21  C   UNL     1      -0.300  10.864  20.933  0.00  0.00    +0.000 A 
ATOM     22  C   UNL     1      -0.332  10.398  22.256  0.00  0.00    +0.000 A 
ATOM     23  C   UNL     1      -1.275  10.896  23.159  0.00  0.00    +0.000 A 
ATOM     24  C   UNL     1      -2.181  11.870  22.746  0.00  0.00    +0.000 A 
ATOM     25 CL   UNL     1      -3.347  12.480  23.853  0.00  0.00    +0.000 Cl
ATOM     26  C   UNL     1      -2.145  12.357  21.439  0.00  0.00    +0.000 A 
ATOM     27  C   UNL     1      -1.204  11.858  20.531  0.00  0.00    +0.000 A 
ENDBRANCH  18  21
ENDBRANCH   3  17
TORSDOF 5
ENDMDL
MODEL 2
REMARK VINA RESULT:      -7.7      0.765      1.318
REMARK  Name = 
REMARK  5 active torsions:
REMARK  status: ('A' for Active; 'I' for Inactive)
REMARK    1  A    between atoms: N_1  and  S_2
REMARK    2  A    between atoms: S_2  and  C_5
REMARK    3  A    between atoms: C_8  and  C_9
REMARK    4  A    between atoms: N_11  and  N_12
REMARK    5  A    between atoms: C_13  and  C_15
REMARK                            x       y       z     vdW  Elec       q    Type
REMARK                         _______ _______ _______ _____ _____    ______ ____
ROOT
ATOM      1  C   UNL     1       2.401   6.896  19.580  0.00  0.00    +0.000 C 
ATOM      2  O   UNL     1       1.870   6.219  20.460  0.00  0.00    +0.000 OA
ATOM      3  N   UNL     1       2.042   8.211  19.356  0.00  0.00    +0.000 N 
ATOM      4  H   UNL     1       2.464   8.841  18.681  0.00  0.00    +0.000 HD
ENDROOT
BRANCH   1   8
ATOM      5  C   UNL     1       5.473   5.324  17.011  0.00  0.00    +0.000 A 
ATOM      6  C   UNL     1       4.863   6.545  16.714  0.00  0.00    +0.000 A 
ATOM      7  C   UNL     1       3.861   7.033  17.564  0.00  0.00    +0.000 A 
ATOM      8  C   UNL     1       3.466   6.312  18.706  0.00  0.00    +0.000 A 
ATOM      9  C   UNL     1       4.089   5.086  18.982  0.00  0.00    +0.000 A 
ATOM     10  C   UNL     1       5.089   4.595  18.138  0.00  0.00    +0.000 A 
BRANCH   5  11
ATOM     11  S   UNL     1       6.767   4.699  15.980  0.00  0.00    +0.000 S 
ATOM     12  O   UNL     1       7.920   4.417  16.799  0.00  0.00    +0.000 OA
ATOM     13  O   UNL     1       6.845   5.504  14.778  0.00  0.00    +0.000 OA
BRANCH  11  14
ATOM     14  N   UNL     1       6.149   3.224  15.474  0.00  0.00    +0.000 NA
ATOM     15  H   UNL     1       5.465   2.897  16.163  0.00  0.00    +0.000 HD
ATOM     16  H   UNL     1       6.903   2.559  15.314  0.00  0.00    +0.000 HD
ENDBRANCH  11  14
ENDBRANCH   5  11
ENDBRANCH   1   8
BRANCH   3  17
ATOM     17  N   UNL     1       1.034   8.776  20.149  0.00  0.00    +0.000 N 
ATOM     18  C   UNL     1       0.754  10.116  19.958  0.00  0.00    +0.000 C 
ATOM     19  O   UNL     1       1.309  10.786  19.090  0.00  0.00    +0.000 OA
ATOM     20  H   UNL     1       0.730   8.223  20.945  0.00  0.00    +0.000 HD
BRANCH  18  21
ATOM     21  C   UNL     1      -0.236  10.737  20.882  0.00  0.00    +0.000 A 
ATOM     22  C   UNL     1      -0.283  10.277  22.207  0.00  0.00    +0.000 A 
ATOM     23  C   UNL     1      -1.200  10.818  23.112  0.00  0.00    +0.000 A 
ATOM     24  C   UNL     1      -2.065  11.828  22.698  0.00  0.00    +0.000 A 
ATOM     25 CL   UNL     1      -3.201  12.491  23.808  0.00  0.00    +0.000 Cl
ATOM     26  C   UNL     1      -2.014  12.309  21.390  0.00  0.00    +0.000 A 
ATOM     27  C   UNL     1      -1.098  11.767  20.480  0.00  0.00    +0.000 A 
ENDBRANCH  18  21
ENDBRANCH   3  17
TORSDOF 5
ENDMDL
MODEL 3
REMARK VINA RESULT:      -7.7      0.785      1.691
REMARK  Name = 
REMARK  5 active torsions:
REMARK  status: ('A' for Active; 'I' for Inactive)
REMARK    1  A    between atoms: N_1  and  S_2
REMARK    2  A    between atoms: S_2  and  C_5
REMARK    3  A    between atoms: C_8  and  C_9
REMARK    4  A    between atoms: N_11  and  N_12
REMARK    5  A    between atoms: C_13  and  C_15
REMARK                            x       y       z     vdW  Elec       q    Type
REMARK                         _______ _______ _______ _____ _____    ______ ____
ROOT
ATOM      1  C   UNL     1       2.472   6.831  19.749  0.00  0.00    +0.000 C 
ATOM      2  O   UNL     1       1.852   6.123  20.542  0.00  0.00    +0.000 OA
ATOM      3  N   UNL     1       2.182   8.172  19.591  0.00  0.00    +0.000 N 
ATOM      4  H   UNL     1       2.677   8.826  18.991  0.00  0.00    +0.000 HD
ENDROOT
BRANCH   1   8
ATOM      5  C   UNL     1       5.621   5.274  17.266  0.00  0.00    +0.000 A 
ATOM      6  C   UNL     1       4.760   6.260  16.776  0.00  0.00    +0.000 A 
ATOM      7  C   UNL     1       3.739   6.747  17.604  0.00  0.00    +0.000 A 
ATOM      8  C   UNL     1       3.572   6.258  18.913  0.00  0.00    +0.000 A 
ATOM      9  C   UNL     1       4.445   5.266  19.381  0.00  0.00    +0.000 A 
ATOM     10  C   UNL     1       5.466   4.776  18.561  0.00  0.00    +0.000 A 
BRANCH   5  11
ATOM     11  S   UNL     1       6.944   4.666  16.261  0.00  0.00    +0.000 S 
ATOM     12  O   UNL     1       7.998   4.188  17.119  0.00  0.00    +0.000 OA
ATOM     13  O   UNL     1       7.184   5.601  15.180  0.00  0.00    +0.000 OA
BRANCH  11  14
ATOM     14  N   UNL     1       6.256   3.323  15.528  0.00  0.00    +0.000 NA
ATOM     15  H   UNL     1       6.930   2.925  14.867  0.00  0.00    +0.000 HD
ATOM     16  H   UNL     1       5.370   3.572  15.093  0.00  0.00    +0.000 HD
ENDBRANCH  11  14
ENDBRANCH   5  11
ENDBRANCH   1   8
BRANCH   3  17
ATOM     17  N   UNL     1       1.144   8.729  20.350  0.00  0.00    +0.000 N 
ATOM     18  C   UNL     1       0.829  10.055  20.116  0.00  0.00    +0.000 C 
ATOM     19  O   UNL     1       1.381  10.717  19.241  0.00  0.00    +0.000 OA
ATOM     20  H   UNL     1       0.840   8.189  21.154  0.00  0.00    +0.000 HD
BRANCH  18  21
ATOM     21  C   UNL     1      -0.196  10.672  21.004  0.00  0.00    +0.000 A 
ATOM     22  C   UNL     1      -1.046  11.644  20.456  0.00  0.00    +0.000 A 
ATOM     23  C   UNL     1      -2.018  12.262  21.248  0.00  0.00    +0.000 A 
ATOM     24  C   UNL     1      -2.149  11.903  22.586  0.00  0.00    +0.000 A 
ATOM     25 CL   UNL     1      -3.339  12.667  23.566  0.00  0.00    +0.000 Cl
ATOM     26  C   UNL     1      -1.324  10.922  23.138  0.00  0.00    +0.000 A 
ATOM     27  C   UNL     1      -0.348  10.303  22.348  0.00  0.00    +0.000 A 
ENDBRANCH  18  21
ENDBRANCH   3  17
TORSDOF 5
ENDMDL
MODEL 4
REMARK VINA RESULT:      -7.6      0.765      1.383
REMARK  Name = 
REMARK  5 active torsions:
REMARK  status: ('A' for Active; 'I' for Inactive)
REMARK    1  A    between atoms: N_1  and  S_2
REMARK    2  A    between atoms: S_2  and  C_5
REMARK    3  A    between atoms: C_8  and  C_9
REMARK    4  A    between atoms: N_11  and  N_12
REMARK    5  A    between atoms: C_13  and  C_15
REMARK                            x       y       z     vdW  Elec       q    Type
REMARK                         _______ _______ _______ _____ _____    ______ ____
ROOT
ATOM      1  C   UNL     1       2.407   6.918  19.681  0.00  0.00    +0.000 C 
ATOM      2  O   UNL     1       1.854   6.223  20.532  0.00  0.00    +0.000 OA
ATOM      3  N   UNL     1       2.051   8.237  19.476  0.00  0.00    +0.000 N 
ATOM      4  H   UNL     1       2.491   8.882  18.825  0.00  0.00    +0.000 HD
ENDROOT
BRANCH   1   8
ATOM      5  C   UNL     1       5.545   5.199  17.292  0.00  0.00    +0.000 A 
ATOM      6  C   UNL     1       5.243   4.666  18.548  0.00  0.00    +0.000 A 
ATOM      7  C   UNL     1       4.220   5.248  19.309  0.00  0.00    +0.000 A 
ATOM      8  C   UNL     1       3.497   6.355  18.825  0.00  0.00    +0.000 A 
ATOM      9  C   UNL     1       3.820   6.876  17.564  0.00  0.00    +0.000 A 
ATOM     10  C   UNL     1       4.840   6.300  16.800  0.00  0.00    +0.000 A 
BRANCH   5  11
ATOM     11  S   UNL     1       6.804   4.466  16.290  0.00  0.00    +0.000 S 
ATOM     12  O   UNL     1       6.207   3.445  15.465  0.00  0.00    +0.000 OA
ATOM     13  O   UNL     1       7.975   4.219  17.107  0.00  0.00    +0.000 OA
BRANCH  11  14
ATOM     14  N   UNL     1       7.243   5.727  15.275  0.00  0.00    +0.000 NA
ATOM     15  H   UNL     1       6.719   5.644  14.398  0.00  0.00    +0.000 HD
ATOM     16  H   UNL     1       8.251   5.736  15.137  0.00  0.00    +0.000 HD
ENDBRANCH  11  14
ENDBRANCH   5  11
ENDBRANCH   1   8
BRANCH   3  17
ATOM     17  N   UNL     1       1.021   8.783  20.252  0.00  0.00    +0.000 N 
ATOM     18  C   UNL     1       0.772  10.136  20.112  0.00  0.00    +0.000 C 
ATOM     19  O   UNL     1       1.373  10.835  19.301  0.00  0.00    +0.000 OA
ATOM     20  H   UNL     1       0.675   8.201  21.008  0.00  0.00    +0.000 HD
BRANCH  18  21
ATOM     21  C   UNL     1      -0.245  10.733  21.023  0.00  0.00    +0.000 A 
ATOM     22  C   UNL     1      -1.111  11.706  20.501  0.00  0.00    +0.000 A 
ATOM     23  C   UNL     1      -2.076  12.306  21.315  0.00  0.00    +0.000 A 
ATOM     24  C   UNL     1      -2.186  11.926  22.650  0.00  0.00    +0.000 A 
ATOM     25 CL   UNL     1      -3.368  12.667  23.657  0.00  0.00    +0.000 Cl
ATOM     26  C   UNL     1      -1.345  10.944  23.176  0.00  0.00    +0.000 A 
ATOM     27  C   UNL     1      -0.376  10.344  22.364  0.00  0.00    +0.000 A 
ENDBRANCH  18  21
ENDBRANCH   3  17
TORSDOF 5
ENDMDL
MODEL 5
REMARK VINA RESULT:      -7.3      0.840      1.727
REMARK  Name = 
REMARK  5 active torsions:
REMARK  status: ('A' for Active; 'I' for Inactive)
REMARK    1  A    between atoms: N_1  and  S_2
REMARK    2  A    between atoms: S_2  and  C_5
REMARK    3  A    between atoms: C_8  and  C_9
REMARK    4  A    between atoms: N_11  and  N_12
REMARK    5  A    between atoms: C_13  and  C_15
REMARK                            x       y       z     vdW  Elec       q    Type
REMARK                         _______ _______ _______ _____ _____    ______ ____
ROOT
ATOM      1  C   UNL     1       2.411   6.936  19.617  0.00  0.00    +0.000 C 
ATOM      2  O   UNL     1       1.908   6.348  20.574  0.00  0.00    +0.000 OA
ATOM      3  N   UNL     1       2.017   8.210  19.257  0.00  0.00    +0.000 N 
ATOM      4  H   UNL     1       2.415   8.773  18.510  0.00  0.00    +0.000 HD
ENDROOT
BRANCH   1   8
ATOM      5  C   UNL     1       5.500   5.168  17.200  0.00  0.00    +0.000 A 
ATOM      6  C   UNL     1       5.006   6.438  16.894  0.00  0.00    +0.000 A 
ATOM      7  C   UNL     1       3.996   6.991  17.694  0.00  0.00    +0.000 A 
ATOM      8  C   UNL     1       3.478   6.284  18.795  0.00  0.00    +0.000 A 
ATOM      9  C   UNL     1       3.985   5.008  19.081  0.00  0.00    +0.000 A 
ATOM     10  C   UNL     1       4.992   4.453  18.287  0.00  0.00    +0.000 A 
BRANCH   5  11
ATOM     11  S   UNL     1       6.801   4.459  16.234  0.00  0.00    +0.000 S 
ATOM     12  O   UNL     1       6.244   3.443  15.376  0.00  0.00    +0.000 OA
ATOM     13  O   UNL     1       7.945   4.213  17.090  0.00  0.00    +0.000 OA
BRANCH  11  14
ATOM     14  N   UNL     1       7.262   5.737  15.251  0.00  0.00    +0.000 NA
ATOM     15  H   UNL     1       7.519   5.370  14.330  0.00  0.00    +0.000 HD
ATOM     16  H   UNL     1       8.010   6.270  15.690  0.00  0.00    +0.000 HD
ENDBRANCH  11  14
ENDBRANCH   5  11
ENDBRANCH   1   8
BRANCH   3  17
ATOM     17  N   UNL     1       1.007   8.836  19.999  0.00  0.00    +0.000 N 
ATOM     18  C   UNL     1       0.812  10.189  19.789  0.00  0.00    +0.000 C 
ATOM     19  O   UNL     1       1.444  10.821  18.946  0.00  0.00    +0.000 OA
ATOM     20  H   UNL     1       0.636   8.307  20.782  0.00  0.00    +0.000 HD
BRANCH  18  21
ATOM     21  C   UNL     1      -0.183  10.871  20.664  0.00  0.00    +0.000 A 
ATOM     22  C   UNL     1      -1.171  11.657  20.051  0.00  0.00    +0.000 A 
ATOM     23  C   UNL     1      -2.123  12.327  20.826  0.00  0.00    +0.000 A 
ATOM     24  C   UNL     1      -2.095  12.205  22.212  0.00  0.00    +0.000 A 
ATOM     25 CL   UNL     1      -3.260  13.034  23.168  0.00  0.00    +0.000 Cl
ATOM     26  C   UNL     1      -1.131  11.410  22.832  0.00  0.00    +0.000 A 
ATOM     27  C   UNL     1      -0.175  10.739  22.060  0.00  0.00    +0.000 A 
ENDBRANCH  18  21
ENDBRANCH   3  17
TORSDOF 5
ENDMDL
MODEL 6
REMARK VINA RESULT:      -7.1      2.437      3.204
REMARK  Name = 
REMARK  5 active torsions:
REMARK  status: ('A' for Active; 'I' for Inactive)
REMARK    1  A    between atoms: N_1  and  S_2
REMARK    2  A    between atoms: S_2  and  C_5
REMARK    3  A    between atoms: C_8  and  C_9
REMARK    4  A    between atoms: N_11  and  N_12
REMARK    5  A    between atoms: C_13  and  C_15
REMARK                            x       y       z     vdW  Elec       q    Type
REMARK                         _______ _______ _______ _____ _____    ______ ____
ROOT
ATOM      1  C   UNL     1       1.315   8.628  19.892  0.00  0.00    +0.000 C 
ATOM      2  O   UNL     1       1.444   9.535  19.071  0.00  0.00    +0.000 OA
ATOM      3  N   UNL     1       0.524   8.771  21.015  0.00  0.00    +0.000 N 
ATOM      4  H   UNL     1       0.335   8.054  21.711  0.00  0.00    +0.000 HD
ENDROOT
BRANCH   1   8
ATOM      5  C   UNL     1       3.269   4.822  19.434  0.00  0.00    +0.000 A 
ATOM      6  C   UNL     1       2.386   5.038  20.495  0.00  0.00    +0.000 A 
ATOM      7  C   UNL     1       1.766   6.288  20.625  0.00  0.00    +0.000 A 
ATOM      8  C   UNL     1       2.021   7.322  19.705  0.00  0.00    +0.000 A 
ATOM      9  C   UNL     1       2.914   7.084  18.650  0.00  0.00    +0.000 A 
ATOM     10  C   UNL     1       3.535   5.839  18.515  0.00  0.00    +0.000 A 
BRANCH   5  11
ATOM     11  S   UNL     1       4.038   3.244  19.219  0.00  0.00    +0.000 S 
ATOM     12  O   UNL     1       3.661   2.714  17.933  0.00  0.00    +0.000 OA
ATOM     13  O   UNL     1       3.904   2.482  20.445  0.00  0.00    +0.000 OA
BRANCH  11  14
ATOM     14  N   UNL     1       5.665   3.641  19.132  0.00  0.00    +0.000 NA
ATOM     15  H   UNL     1       5.752   4.623  18.852  0.00  0.00    +0.000 HD
ATOM     16  H   UNL     1       6.152   3.003  18.506  0.00  0.00    +0.000 HD
ENDBRANCH  11  14
ENDBRANCH   5  11
ENDBRANCH   1   8
BRANCH   3  17
ATOM     17  N   UNL     1      -0.134   9.990  21.223  0.00  0.00    +0.000 N 
ATOM     18  C   UNL     1      -0.247  10.434  22.528  0.00  0.00    +0.000 C 
ATOM     19  O   UNL     1       0.256   9.832  23.473  0.00  0.00    +0.000 OA
ATOM     20  H   UNL     1      -0.659  10.354  20.435  0.00  0.00    +0.000 HD
BRANCH  18  21
ATOM     21  C   UNL     1      -1.046  11.672  22.752  0.00  0.00    +0.000 A 
ATOM     22  C   UNL     1      -0.497  12.897  22.344  0.00  0.00    +0.000 A 
ATOM     23  C   UNL     1      -1.200  14.089  22.541  0.00  0.00    +0.000 A 
ATOM     24  C   UNL     1      -2.458  14.058  23.136  0.00  0.00    +0.000 A 
ATOM     25 CL   UNL     1      -3.322  15.524  23.387  0.00  0.00    +0.000 Cl
ATOM     26  C   UNL     1      -3.024  12.844  23.528  0.00  0.00    +0.000 A 
ATOM     27  C   UNL     1      -2.322  11.650  23.334  0.00  0.00    +0.000 A 
ENDBRANCH  18  21
ENDBRANCH   3  17
TORSDOF 5
ENDMDL
MODEL 7
REMARK VINA RESULT:      -7.1      7.147      8.495
REMARK  Name = 
REMARK  5 active torsions:
REMARK  status: ('A' for Active; 'I' for Inactive)
REMARK    1  A    between atoms: N_1  and  S_2
REMARK    2  A    between atoms: S_2  and  C_5
REMARK    3  A    between atoms: C_8  and  C_9
REMARK    4  A    between atoms: N_11  and  N_12
REMARK    5  A    between atoms: C_13  and  C_15
REMARK                            x       y       z     vdW  Elec       q    Type
REMARK                         _______ _______ _______ _____ _____    ______ ____
ROOT
ATOM      1  C   UNL     1       7.122   7.136  17.209  0.00  0.00    +0.000 C 
ATOM      2  O   UNL     1       7.980   6.981  16.341  0.00  0.00    +0.000 OA
ATOM      3  N   UNL     1       6.957   8.341  17.863  0.00  0.00    +0.000 N 
ATOM      4  H   UNL     1       6.245   8.555  18.556  0.00  0.00    +0.000 HD
ENDROOT
BRANCH   1   8
ATOM      5  C   UNL     1       4.543   3.920  18.440  0.00  0.00    +0.000 A 
ATOM      6  C   UNL     1       5.418   4.511  19.355  0.00  0.00    +0.000 A 
ATOM      7  C   UNL     1       6.251   5.554  18.928  0.00  0.00    +0.000 A 
ATOM      8  C   UNL     1       6.216   6.009  17.597  0.00  0.00    +0.000 A 
ATOM      9  C   UNL     1       5.333   5.398  16.695  0.00  0.00    +0.000 A 
ATOM     10  C   UNL     1       4.499   4.358  17.115  0.00  0.00    +0.000 A 
BRANCH   5  11
ATOM     11  S   UNL     1       3.450   2.629  18.956  0.00  0.00    +0.000 S 
ATOM     12  O   UNL     1       2.176   2.810  18.309  0.00  0.00    +0.000 OA
ATOM     13  O   UNL     1       3.577   2.447  20.389  0.00  0.00    +0.000 OA
BRANCH  11  14
ATOM     14  N   UNL     1       4.156   1.264  18.283  0.00  0.00    +0.000 NA
ATOM     15  H   UNL     1       4.749   1.551  17.499  0.00  0.00    +0.000 HD
ATOM     16  H   UNL     1       3.441   0.590  18.016  0.00  0.00    +0.000 HD
ENDBRANCH  11  14
ENDBRANCH   5  11
ENDBRANCH   1   8
BRANCH   3  17
ATOM     17  N   UNL     1       7.804   9.407  17.531  0.00  0.00    +0.000 N 
ATOM     18  C   UNL     1       8.753   9.777  18.466  0.00  0.00    +0.000 C 
ATOM     19  O   UNL     1       8.906   9.169  19.522  0.00  0.00    +0.000 OA
ATOM     20  H   UNL     1       7.528   9.962  16.727  0.00  0.00    +0.000 HD
BRANCH  18  21
ATOM     21  C   UNL     1       9.572  10.982  18.155  0.00  0.00    +0.000 A 
ATOM     22  C   UNL     1       8.903  12.162  17.796  0.00  0.00    +0.000 A 
ATOM     23  C   UNL     1       9.624  13.318  17.484  0.00  0.00    +0.000 A 
ATOM     24  C   UNL     1      11.015  13.300  17.541  0.00  0.00    +0.000 A 
ATOM     25 CL   UNL     1      11.906  14.719  17.151  0.00  0.00    +0.000 Cl
ATOM     26  C   UNL     1      11.692  12.139  17.917  0.00  0.00    +0.000 A 
ATOM     27  C   UNL     1      10.973  10.980  18.227  0.00  0.00    +0.000 A 
ENDBRANCH  18  21
ENDBRANCH   3  17
TORSDOF 5
ENDMDL
MODEL 8
REMARK VINA RESULT:      -7.1      2.332      3.185
REMARK  Name = 
REMARK  5 active torsions:
REMARK  status: ('A' for Active; 'I' for Inactive)
REMARK    1  A    between atoms: N_1  and  S_2
REMARK    2  A    between atoms: S_2  and  C_5
REMARK    3  A    between atoms: C_8  and  C_9
REMARK    4  A    between atoms: N_11  and  N_12
REMARK    5  A    between atoms: C_13  and  C_15
REMARK                            x       y       z     vdW  Elec       q    Type
REMARK                         _______ _______ _______ _____ _____    ______ ____
ROOT
ATOM      1  C   UNL     1       1.274   8.676  19.894  0.00  0.00    +0.000 C 
ATOM      2  O   UNL     1       1.441   9.596  19.094  0.00  0.00    +0.000 OA
ATOM      3  N   UNL     1       0.457   8.812  20.999  0.00  0.00    +0.000 N 
ATOM      4  H   UNL     1       0.238   8.086  21.676  0.00  0.00    +0.000 HD
ENDROOT
BRANCH   1   8
ATOM      5  C   UNL     1       3.319   4.947  19.248  0.00  0.00    +0.000 A 
ATOM      6  C   UNL     1       3.474   6.001  18.344  0.00  0.00    +0.000 A 
ATOM      7  C   UNL     1       2.793   7.204  18.575  0.00  0.00    +0.000 A 
ATOM      8  C   UNL     1       1.961   7.361  19.699  0.00  0.00    +0.000 A 
ATOM      9  C   UNL     1       1.816   6.288  20.590  0.00  0.00    +0.000 A 
ATOM     10  C   UNL     1       2.494   5.086  20.366  0.00  0.00    +0.000 A 
BRANCH   5  11
ATOM     11  S   UNL     1       4.194   3.429  19.007  0.00  0.00    +0.000 S 
ATOM     12  O   UNL     1       3.897   2.923  17.691  0.00  0.00    +0.000 OA
ATOM     13  O   UNL     1       4.066   2.615  20.200  0.00  0.00    +0.000 OA
BRANCH  11  14
ATOM     14  N   UNL     1       5.795   3.929  18.995  0.00  0.00    +0.000 NA
ATOM     15  H   UNL     1       5.976   4.482  19.838  0.00  0.00    +0.000 HD
ATOM     16  H   UNL     1       6.001   4.435  18.135  0.00  0.00    +0.000 HD
ENDBRANCH  11  14
ENDBRANCH   5  11
ENDBRANCH   1   8
BRANCH   3  17
ATOM     17  N   UNL     1      -0.183  10.039  21.215  0.00  0.00    +0.000 N 
ATOM     18  C   UNL     1      -0.271  10.488  22.520  0.00  0.00    +0.000 C 
ATOM     19  O   UNL     1       0.239   9.883  23.459  0.00  0.00    +0.000 OA
ATOM     20  H   UNL     1      -0.716  10.407  20.433  0.00  0.00    +0.000 HD
BRANCH  18  21
ATOM     21  C   UNL     1      -1.053  11.735  22.753  0.00  0.00    +0.000 A 
ATOM     22  C   UNL     1      -2.333  11.617  23.317  0.00  0.00    +0.000 A 
ATOM     23  C   UNL     1      -3.113  12.754  23.547  0.00  0.00    +0.000 A 
ATOM     24  C   UNL     1      -2.611  14.012  23.224  0.00  0.00    +0.000 A 
ATOM     25 CL   UNL     1      -3.571  15.413  23.500  0.00  0.00    +0.000 Cl
ATOM     26  C   UNL     1      -1.332  14.144  22.683  0.00  0.00    +0.000 A 
ATOM     27  C   UNL     1      -0.550  13.008  22.449  0.00  0.00    +0.000 A 
ENDBRANCH  18  21
ENDBRANCH   3  17
TORSDOF 5
ENDMDL
MODEL 9
REMARK VINA RESULT:      -7.1      5.235      9.671
REMARK  Name = 
REMARK  5 active torsions:
REMARK  status: ('A' for Active; 'I' for Inactive)
REMARK    1  A    between atoms: N_1  and  S_2
REMARK    2  A    between atoms: S_2  and  C_5
REMARK    3  A    between atoms: C_8  and  C_9
REMARK    4  A    between atoms: N_11  and  N_12
REMARK    5  A    between atoms: C_13  and  C_15
REMARK                            x       y       z     vdW  Elec       q    Type
REMARK                         _______ _______ _______ _____ _____    ______ ____
ROOT
ATOM      1  C   UNL     1       0.149   8.934  21.660  0.00  0.00    +0.000 C 
ATOM      2  O   UNL     1      -0.690   8.034  21.650  0.00  0.00    +0.000 OA
ATOM      3  N   UNL     1       1.475   8.697  21.355  0.00  0.00    +0.000 N 
ATOM      4  H   UNL     1       2.212   9.394  21.300  0.00  0.00    +0.000 HD
ENDROOT
BRANCH   1   8
ATOM      5  C   UNL     1      -0.916  13.002  22.567  0.00  0.00    +0.000 A 
ATOM      6  C   UNL     1       0.003  12.724  21.553  0.00  0.00    +0.000 A 
ATOM      7  C   UNL     1       0.337  11.391  21.280  0.00  0.00    +0.000 A 
ATOM      8  C   UNL     1      -0.240  10.336  22.011  0.00  0.00    +0.000 A 
ATOM      9  C   UNL     1      -1.157  10.639  23.028  0.00  0.00    +0.000 A 
ATOM     10  C   UNL     1      -1.494  11.967  23.304  0.00  0.00    +0.000 A 
BRANCH   5  11
ATOM     11  S   UNL     1      -1.389  14.672  22.911  0.00  0.00    +0.000 S 
ATOM     12  O   UNL     1      -2.827  14.758  22.914  0.00  0.00    +0.000 OA
ATOM     13  O   UNL     1      -0.557  15.568  22.133  0.00  0.00    +0.000 OA
BRANCH  11  14
ATOM     14  N   UNL     1      -0.880  14.875  24.496  0.00  0.00    +0.000 NA
ATOM     15  H   UNL     1      -1.602  14.512  25.126  0.00  0.00    +0.000 HD
ATOM     16  H   UNL     1      -0.652  15.852  24.673  0.00  0.00    +0.000 HD
ENDBRANCH  11  14
ENDBRANCH   5  11
ENDBRANCH   1   8
BRANCH   3  17
ATOM     17  N   UNL     1       1.868   7.390  21.039  0.00  0.00    +0.000 N 
ATOM     18  C   UNL     1       2.201   7.128  19.723  0.00  0.00    +0.000 C 
ATOM     19  O   UNL     1       2.221   8.005  18.863  0.00  0.00    +0.000 OA
ATOM     20  H   UNL     1       1.680   6.685  21.745  0.00  0.00    +0.000 HD
BRANCH  18  21
ATOM     21  C   UNL     1       2.507   5.712  19.373  0.00  0.00    +0.000 A 
ATOM     22  C   UNL     1       2.634   4.785  20.419  0.00  0.00    +0.000 A 
ATOM     23  C   UNL     1       2.930   3.447  20.146  0.00  0.00    +0.000 A 
ATOM     24  C   UNL     1       3.090   3.030  18.827  0.00  0.00    +0.000 A 
ATOM     25 CL   UNL     1       3.462   1.384  18.489  0.00  0.00    +0.000 Cl
ATOM     26  C   UNL     1       2.945   3.937  17.778  0.00  0.00    +0.000 A 
ATOM     27  C   UNL     1       2.651   5.278  18.048  0.00  0.00    +0.000 A 
ENDBRANCH  18  21
ENDBRANCH   3  17
TORSDOF 5
ENDMDL
