MODEL 1
REMARK VINA RESULT:      -8.2      0.000      0.000
REMARK  Name = 
REMARK  4 active torsions:
REMARK  status: ('A' for Active; 'I' for Inactive)
REMARK    1  A    between atoms: S_2  and  N_4
REMARK    2  A    between atoms: S_2  and  C_20
REMARK    3  A    between atoms: N_4  and  C_5
REMARK    4  A    between atoms: C_10  and  C_11
REMARK                            x       y       z     vdW  Elec       q    Type
REMARK                         _______ _______ _______ _____ _____    ______ ____
ROOT
ATOM      1  C   UNL     1       4.019   5.004  17.679  0.00  0.00    +0.000 A 
ATOM      2  C   UNL     1       3.886   3.997  18.637  0.00  0.00    +0.000 A 
ATOM      3  C   UNL     1       3.157   4.221  19.801  0.00  0.00    +0.000 A 
ATOM      4  C   UNL     1       2.546   5.460  20.033  0.00  0.00    +0.000 A 
ATOM      5  C   UNL     1       2.696   6.508  19.098  0.00  0.00    +0.000 A 
ATOM      6  C   UNL     1       2.220   7.863  19.009  0.00  0.00    +0.000 A 
ATOM      7  C   UNL     1       2.679   8.369  17.807  0.00  0.00    +0.000 A 
ATOM      8  N   UNL     1       3.422   7.401  17.189  0.00  0.00    +0.000 N 
ATOM      9  C   UNL     1       3.437   6.251  17.942  0.00  0.00    +0.000 A 
ATOM     10  H   UNL     1       3.854   7.487  16.279  0.00  0.00    +0.000 HD
ENDROOT
BRANCH   6  11
ATOM     11  C   UNL     1       1.392   8.628  19.935  0.00  0.00    +0.000 A 
ATOM     12  C   UNL     1       0.644   9.715  19.477  0.00  0.00    +0.000 A 
ATOM     13  C   UNL     1      -0.090  10.451  20.391  0.00  0.00    +0.000 A 
ATOM     14  N   UNL     1      -0.152  10.168  21.707  0.00  0.00    +0.000 NA
ATOM     15  C   UNL     1       0.555   9.095  22.127  0.00  0.00    +0.000 A 
ATOM     16  C   UNL     1       1.336   8.311  21.293  0.00  0.00    +0.000 A 
ENDBRANCH   6  11
BRANCH   1  17
ATOM     17  N   UNL     1       4.710   4.771  16.464  0.00  0.00    +0.000 N 
ATOM     18  H   UNL     1       4.191   4.692  15.592  0.00  0.00    +0.000 HD
BRANCH  17  20
ATOM     19  O   UNL     1       6.299   6.702  16.353  0.00  0.00    +0.000 OA
ATOM     20  S   UNL     1       6.320   5.253  16.316  0.00  0.00    +0.000 S 
ATOM     21  O   UNL     1       7.151   4.489  17.223  0.00  0.00    +0.000 OA
BRANCH  20  22
ATOM     22  C   UNL     1       6.672   4.755  14.651  0.00  0.00    +0.000 A 
ATOM     23  C   UNL     1       7.664   5.420  13.926  0.00  0.00    +0.000 A 
ATOM     24  C   UNL     1       7.836   5.121  12.574  0.00  0.00    +0.000 A 
ATOM     25  C   UNL     1       7.025   4.165  11.960  0.00  0.00    +0.000 A 
ATOM     26  C   UNL     1       6.064   3.475  12.701  0.00  0.00    +0.000 A 
ATOM     27  C   UNL     1       5.895   3.755  14.056  0.00  0.00    +0.000 A 
ENDBRANCH  20  22
ENDBRANCH  17  20
ENDBRANCH   1  17
TORSDOF 4
ENDMDL
MODEL 2
REMARK VINA RESULT:      -8.1      2.691      3.989
REMARK  Name = 
REMARK  4 active torsions:
REMARK  status: ('A' for Active; 'I' for Inactive)
REMARK    1  A    between atoms: S_2  and  N_4
REMARK    2  A    between atoms: S_2  and  C_20
REMARK    3  A    between atoms: N_4  and  C_5
REMARK    4  A    between atoms: C_10  and  C_11
REMARK                            x       y       z     vdW  Elec       q    Type
REMARK                         _______ _______ _______ _____ _____    ______ ____
ROOT
ATOM      1  C   UNL     1       2.778   6.944  19.343  0.00  0.00    +0.000 A 
ATOM      2  C   UNL     1       3.068   7.311  18.028  0.00  0.00    +0.000 A 
ATOM      3  C   UNL     1       2.516   8.465  17.480  0.00  0.00    +0.000 A 
ATOM      4  C   UNL     1       1.662   9.277  18.236  0.00  0.00    +0.000 A 
ATOM      5  C   UNL     1       1.322   8.908  19.557  0.00  0.00    +0.000 A 
ATOM      6  C   UNL     1       0.507   9.485  20.592  0.00  0.00    +0.000 A 
ATOM      7  C   UNL     1       0.618   8.658  21.695  0.00  0.00    +0.000 A 
ATOM      8  N   UNL     1       1.431   7.609  21.365  0.00  0.00    +0.000 N 
ATOM      9  C   UNL     1       1.889   7.742  20.075  0.00  0.00    +0.000 A 
ATOM     10  H   UNL     1       1.712   6.867  21.991  0.00  0.00    +0.000 HD
ENDROOT
BRANCH   6  11
ATOM     11  C   UNL     1      -0.290  10.707  20.586  0.00  0.00    +0.000 A 
ATOM     12  C   UNL     1      -1.156  10.977  19.524  0.00  0.00    +0.000 A 
ATOM     13  C   UNL     1      -1.859  12.169  19.523  0.00  0.00    +0.000 A 
ATOM     14  N   UNL     1      -1.780  13.088  20.507  0.00  0.00    +0.000 NA
ATOM     15  C   UNL     1      -0.959  12.796  21.539  0.00  0.00    +0.000 A 
ATOM     16  C   UNL     1      -0.200  11.641  21.620  0.00  0.00    +0.000 A 
ENDBRANCH   6  11
BRANCH   1  17
ATOM     17  N   UNL     1       3.377   5.802  19.932  0.00  0.00    +0.000 N 
ATOM     18  H   UNL     1       3.572   5.790  20.931  0.00  0.00    +0.000 HD
BRANCH  17  20
ATOM     19  O   UNL     1       3.405   3.321  20.260  0.00  0.00    +0.000 OA
ATOM     20  S   UNL     1       3.183   4.292  19.207  0.00  0.00    +0.000 S 
ATOM     21  O   UNL     1       1.974   4.276  18.411  0.00  0.00    +0.000 OA
BRANCH  20  22
ATOM     22  C   UNL     1       4.588   4.253  18.124  0.00  0.00    +0.000 A 
ATOM     23  C   UNL     1       5.847   4.609  18.614  0.00  0.00    +0.000 A 
ATOM     24  C   UNL     1       6.918   4.716  17.727  0.00  0.00    +0.000 A 
ATOM     25  C   UNL     1       6.728   4.465  16.367  0.00  0.00    +0.000 A 
ATOM     26  C   UNL     1       5.476   4.069  15.892  0.00  0.00    +0.000 A 
ATOM     27  C   UNL     1       4.404   3.944  16.773  0.00  0.00    +0.000 A 
ENDBRANCH  20  22
ENDBRANCH  17  20
ENDBRANCH   1  17
TORSDOF 4
ENDMDL
MODEL 3
REMARK VINA RESULT:      -8.1      3.605      4.408
REMARK  Name = 
REMARK  4 active torsions:
REMARK  status: ('A' for Active; 'I' for Inactive)
REMARK    1  A    between atoms: S_2  and  N_4
REMARK    2  A    between atoms: S_2  and  C_20
REMARK    3  A    between atoms: N_4  and  C_5
REMARK    4  A    between atoms: C_10  and  C_11
REMARK                            x       y       z     vdW  Elec       q    Type
REMARK                         _______ _______ _______ _____ _____    ______ ____
ROOT
ATOM      1  C   UNL     1       6.987   4.616  16.795  0.00  0.00    +0.000 A 
ATOM      2  C   UNL     1       7.635   5.463  17.695  0.00  0.00    +0.000 A 
ATOM      3  C   UNL     1       7.091   5.708  18.952  0.00  0.00    +0.000 A 
ATOM      4  C   UNL     1       5.884   5.110  19.336  0.00  0.00    +0.000 A 
ATOM      5  C   UNL     1       5.188   4.279  18.431  0.00  0.00    +0.000 A 
ATOM      6  C   UNL     1       3.966   3.520  18.485  0.00  0.00    +0.000 A 
ATOM      7  C   UNL     1       3.849   2.865  17.274  0.00  0.00    +0.000 A 
ATOM      8  N   UNL     1       4.918   3.211  16.493  0.00  0.00    +0.000 N 
ATOM      9  C   UNL     1       5.759   4.058  17.176  0.00  0.00    +0.000 A 
ATOM     10  H   UNL     1       5.106   2.854  15.566  0.00  0.00    +0.000 HD
ENDROOT
BRANCH   6  11
ATOM     11  C   UNL     1       2.995   3.384  19.566  0.00  0.00    +0.000 A 
ATOM     12  C   UNL     1       3.326   2.681  20.725  0.00  0.00    +0.000 A 
ATOM     13  C   UNL     1       2.364   2.526  21.709  0.00  0.00    +0.000 A 
ATOM     14  N   UNL     1       1.120   3.039  21.630  0.00  0.00    +0.000 NA
ATOM     15  C   UNL     1       0.827   3.740  20.513  0.00  0.00    +0.000 A 
ATOM     16  C   UNL     1       1.714   3.931  19.466  0.00  0.00    +0.000 A 
ENDBRANCH   6  11
BRANCH   1  17
ATOM     17  N   UNL     1       7.557   4.313  15.534  0.00  0.00    +0.000 N 
ATOM     18  H   UNL     1       7.880   3.368  15.336  0.00  0.00    +0.000 HD
BRANCH  17  20
ATOM     19  O   UNL     1       6.050   6.090  14.620  0.00  0.00    +0.000 OA
ATOM     20  S   UNL     1       7.142   5.240  14.188  0.00  0.00    +0.000 S 
ATOM     21  O   UNL     1       8.333   5.796  13.582  0.00  0.00    +0.000 OA
BRANCH  20  22
ATOM     22  C   UNL     1       6.473   3.997  13.113  0.00  0.00    +0.000 A 
ATOM     23  C   UNL     1       7.336   3.206  12.351  0.00  0.00    +0.000 A 
ATOM     24  C   UNL     1       6.803   2.333  11.403  0.00  0.00    +0.000 A 
ATOM     25  C   UNL     1       5.420   2.253  11.226  0.00  0.00    +0.000 A 
ATOM     26  C   UNL     1       4.563   3.017  12.020  0.00  0.00    +0.000 A 
ATOM     27  C   UNL     1       5.085   3.880  12.980  0.00  0.00    +0.000 A 
ENDBRANCH  20  22
ENDBRANCH  17  20
ENDBRANCH   1  17
TORSDOF 4
ENDMDL
MODEL 4
REMARK VINA RESULT:      -8.0      2.657      4.100
REMARK  Name = 
REMARK  4 active torsions:
REMARK  status: ('A' for Active; 'I' for Inactive)
REMARK    1  A    between atoms: S_2  and  N_4
REMARK    2  A    between atoms: S_2  and  C_20
REMARK    3  A    between atoms: N_4  and  C_5
REMARK    4  A    between atoms: C_10  and  C_11
REMARK                            x       y       z     vdW  Elec       q    Type
REMARK                         _______ _______ _______ _____ _____    ______ ____
ROOT
ATOM      1  C   UNL     1       2.757   6.963  19.342  0.00  0.00    +0.000 A 
ATOM      2  C   UNL     1       3.040   7.325  18.025  0.00  0.00    +0.000 A 
ATOM      3  C   UNL     1       2.493   8.480  17.476  0.00  0.00    +0.000 A 
ATOM      4  C   UNL     1       1.648   9.300  18.235  0.00  0.00    +0.000 A 
ATOM      5  C   UNL     1       1.315   8.938  19.559  0.00  0.00    +0.000 A 
ATOM      6  C   UNL     1       0.509   9.523  20.598  0.00  0.00    +0.000 A 
ATOM      7  C   UNL     1       0.622   8.699  21.702  0.00  0.00    +0.000 A 
ATOM      8  N   UNL     1       1.427   7.643  21.371  0.00  0.00    +0.000 N 
ATOM      9  C   UNL     1       1.878   7.769  20.077  0.00  0.00    +0.000 A 
ATOM     10  H   UNL     1       1.707   6.902  21.997  0.00  0.00    +0.000 HD
ENDROOT
BRANCH   6  11
ATOM     11  C   UNL     1      -0.280  10.750  20.592  0.00  0.00    +0.000 A 
ATOM     12  C   UNL     1      -0.150  11.676  21.630  0.00  0.00    +0.000 A 
ATOM     13  C   UNL     1      -0.952  12.804  21.621  0.00  0.00    +0.000 A 
ATOM     14  N   UNL     1      -1.844  13.084  20.650  0.00  0.00    +0.000 NA
ATOM     15  C   UNL     1      -1.935  12.191  19.640  0.00  0.00    +0.000 A 
ATOM     16  C   UNL     1      -1.192  11.024  19.571  0.00  0.00    +0.000 A 
ENDBRANCH   6  11
BRANCH   1  17
ATOM     17  N   UNL     1       3.352   5.820  19.932  0.00  0.00    +0.000 N 
ATOM     18  H   UNL     1       3.447   5.762  20.944  0.00  0.00    +0.000 HD
BRANCH  17  20
ATOM     19  O   UNL     1       3.594   3.336  20.116  0.00  0.00    +0.000 OA
ATOM     20  S   UNL     1       3.310   4.345  19.115  0.00  0.00    +0.000 S 
ATOM     21  O   UNL     1       2.126   4.271  18.286  0.00  0.00    +0.000 OA
BRANCH  20  22
ATOM     22  C   UNL     1       4.737   4.495  18.071  0.00  0.00    +0.000 A 
ATOM     23  C   UNL     1       4.641   4.158  16.719  0.00  0.00    +0.000 A 
ATOM     24  C   UNL     1       5.796   4.139  15.937  0.00  0.00    +0.000 A 
ATOM     25  C   UNL     1       7.031   4.457  16.507  0.00  0.00    +0.000 A 
ATOM     26  C   UNL     1       7.112   4.833  17.849  0.00  0.00    +0.000 A 
ATOM     27  C   UNL     1       5.961   4.871  18.633  0.00  0.00    +0.000 A 
ENDBRANCH  20  22
ENDBRANCH  17  20
ENDBRANCH   1  17
TORSDOF 4
ENDMDL
MODEL 5
REMARK VINA RESULT:      -7.8      4.179      5.156
REMARK  Name = 
REMARK  4 active torsions:
REMARK  status: ('A' for Active; 'I' for Inactive)
REMARK    1  A    between atoms: S_2  and  N_4
REMARK    2  A    between atoms: S_2  and  C_20
REMARK    3  A    between atoms: N_4  and  C_5
REMARK    4  A    between atoms: C_10  and  C_11
REMARK                            x       y       z     vdW  Elec       q    Type
REMARK                         _______ _______ _______ _____ _____    ______ ____
ROOT
ATOM      1  C   UNL     1       2.696   6.546  19.731  0.00  0.00    +0.000 A 
ATOM      2  C   UNL     1       3.178   6.501  18.422  0.00  0.00    +0.000 A 
ATOM      3  C   UNL     1       2.917   7.543  17.537  0.00  0.00    +0.000 A 
ATOM      4  C   UNL     1       2.166   8.653  17.943  0.00  0.00    +0.000 A 
ATOM      5  C   UNL     1       1.635   8.707  19.251  0.00  0.00    +0.000 A 
ATOM      6  C   UNL     1       0.849   9.660  19.988  0.00  0.00    +0.000 A 
ATOM      7  C   UNL     1       0.690   9.148  21.261  0.00  0.00    +0.000 A 
ATOM      8  N   UNL     1       1.313   7.931  21.316  0.00  0.00    +0.000 N 
ATOM      9  C   UNL     1       1.912   7.642  20.112  0.00  0.00    +0.000 A 
ATOM     10  H   UNL     1       1.382   7.345  22.137  0.00  0.00    +0.000 HD
ENDROOT
BRANCH   6  11
ATOM     11  C   UNL     1       0.308  10.950  19.571  0.00  0.00    +0.000 A 
ATOM     12  C   UNL     1       0.748  12.127  20.178  0.00  0.00    +0.000 A 
ATOM     13  C   UNL     1       0.177  13.329  19.796  0.00  0.00    +0.000 A 
ATOM     14  N   UNL     1      -0.772  13.440  18.845  0.00  0.00    +0.000 NA
ATOM     15  C   UNL     1      -1.165  12.293  18.248  0.00  0.00    +0.000 A 
ATOM     16  C   UNL     1      -0.668  11.042  18.577  0.00  0.00    +0.000 A 
ENDBRANCH   6  11
BRANCH   1  17
ATOM     17  N   UNL     1       3.002   5.519  20.659  0.00  0.00    +0.000 N 
ATOM     18  H   UNL     1       3.613   5.715  21.449  0.00  0.00    +0.000 HD
BRANCH  17  20
ATOM     19  O   UNL     1       2.221   3.687  22.174  0.00  0.00    +0.000 OA
ATOM     20  S   UNL     1       1.927   4.236  20.866  0.00  0.00    +0.000 S 
ATOM     21  O   UNL     1       0.587   4.651  20.508  0.00  0.00    +0.000 OA
BRANCH  20  22
ATOM     22  C   UNL     1       2.523   3.094  19.647  0.00  0.00    +0.000 A 
ATOM     23  C   UNL     1       3.633   2.296  19.933  0.00  0.00    +0.000 A 
ATOM     24  C   UNL     1       4.185   1.507  18.924  0.00  0.00    +0.000 A 
ATOM     25  C   UNL     1       3.626   1.517  17.644  0.00  0.00    +0.000 A 
ATOM     26  C   UNL     1       2.491   2.285  17.377  0.00  0.00    +0.000 A 
ATOM     27  C   UNL     1       1.923   3.064  18.383  0.00  0.00    +0.000 A 
ENDBRANCH  20  22
ENDBRANCH  17  20
ENDBRANCH   1  17
TORSDOF 4
ENDMDL
MODEL 6
REMARK VINA RESULT:      -7.7      3.987      9.393
REMARK  Name = 
REMARK  4 active torsions:
REMARK  status: ('A' for Active; 'I' for Inactive)
REMARK    1  A    between atoms: S_2  and  N_4
REMARK    2  A    between atoms: S_2  and  C_20
REMARK    3  A    between atoms: N_4  and  C_5
REMARK    4  A    between atoms: C_10  and  C_11
REMARK                            x       y       z     vdW  Elec       q    Type
REMARK                         _______ _______ _______ _____ _____    ______ ____
ROOT
ATOM      1  C   UNL     1       0.864   8.993  19.936  0.00  0.00    +0.000 A 
ATOM      2  C   UNL     1       0.884   9.926  18.899  0.00  0.00    +0.000 A 
ATOM      3  C   UNL     1       1.660   9.706  17.765  0.00  0.00    +0.000 A 
ATOM      4  C   UNL     1       2.435   8.546  17.645  0.00  0.00    +0.000 A 
ATOM      5  C   UNL     1       2.462   7.602  18.696  0.00  0.00    +0.000 A 
ATOM      6  C   UNL     1       3.117   6.339  18.907  0.00  0.00    +0.000 A 
ATOM      7  C   UNL     1       2.697   5.872  20.139  0.00  0.00    +0.000 A 
ATOM      8  N   UNL     1       1.852   6.799  20.684  0.00  0.00    +0.000 N 
ATOM      9  C   UNL     1       1.676   7.856  19.822  0.00  0.00    +0.000 A 
ATOM     10  H   UNL     1       1.370   6.705  21.568  0.00  0.00    +0.000 HD
ENDROOT
BRANCH   6  11
ATOM     11  C   UNL     1       4.033   5.602  18.043  0.00  0.00    +0.000 A 
ATOM     12  C   UNL     1       3.669   4.355  17.531  0.00  0.00    +0.000 A 
ATOM     13  C   UNL     1       4.582   3.660  16.757  0.00  0.00    +0.000 A 
ATOM     14  N   UNL     1       5.806   4.125  16.440  0.00  0.00    +0.000 NA
ATOM     15  C   UNL     1       6.130   5.345  16.921  0.00  0.00    +0.000 A 
ATOM     16  C   UNL     1       5.294   6.107  17.720  0.00  0.00    +0.000 A 
ENDBRANCH   6  11
BRANCH   1  17
ATOM     17  N   UNL     1       0.036   9.177  21.071  0.00  0.00    +0.000 N 
ATOM     18  H   UNL     1      -0.462   8.384  21.471  0.00  0.00    +0.000 HD
BRANCH  17  20
ATOM     19  O   UNL     1       0.445   9.859  23.444  0.00  0.00    +0.000 OA
ATOM     20  S   UNL     1       0.342  10.456  22.127  0.00  0.00    +0.000 S 
ATOM     21  O   UNL     1       1.396  11.295  21.597  0.00  0.00    +0.000 OA
BRANCH  20  22
ATOM     22  C   UNL     1      -1.194  11.338  22.047  0.00  0.00    +0.000 A 
ATOM     23  C   UNL     1      -1.590  11.927  20.844  0.00  0.00    +0.000 A 
ATOM     24  C   UNL     1      -2.724  12.740  20.823  0.00  0.00    +0.000 A 
ATOM     25  C   UNL     1      -3.452  12.955  21.995  0.00  0.00    +0.000 A 
ATOM     26  C   UNL     1      -3.073  12.329  23.185  0.00  0.00    +0.000 A 
ATOM     27  C   UNL     1      -1.952  11.503  23.212  0.00  0.00    +0.000 A 
ENDBRANCH  20  22
ENDBRANCH  17  20
ENDBRANCH   1  17
TORSDOF 4
ENDMDL
MODEL 7
REMARK VINA RESULT:      -7.7      4.133      9.438
REMARK  Name = 
REMARK  4 active torsions:
REMARK  status: ('A' for Active; 'I' for Inactive)
REMARK    1  A    between atoms: S_2  and  N_4
REMARK    2  A    between atoms: S_2  and  C_20
REMARK    3  A    between atoms: N_4  and  C_5
REMARK    4  A    between atoms: C_10  and  C_11
REMARK                            x       y       z     vdW  Elec       q    Type
REMARK                         _______ _______ _______ _____ _____    ______ ____
ROOT
ATOM      1  C   UNL     1       0.784   9.100  19.916  0.00  0.00    +0.000 A 
ATOM      2  C   UNL     1       0.928   9.969  18.834  0.00  0.00    +0.000 A 
ATOM      3  C   UNL     1       1.783   9.653  17.782  0.00  0.00    +0.000 A 
ATOM      4  C   UNL     1       2.512   8.458  17.791  0.00  0.00    +0.000 A 
ATOM      5  C   UNL     1       2.414   7.577  18.891  0.00  0.00    +0.000 A 
ATOM      6  C   UNL     1       2.993   6.303  19.225  0.00  0.00    +0.000 A 
ATOM      7  C   UNL     1       2.455   5.927  20.441  0.00  0.00    +0.000 A 
ATOM      8  N   UNL     1       1.610   6.916  20.863  0.00  0.00    +0.000 N 
ATOM      9  C   UNL     1       1.551   7.927  19.932  0.00  0.00    +0.000 A 
ATOM     10  H   UNL     1       1.055   6.892  21.707  0.00  0.00    +0.000 HD
ENDROOT
BRANCH   6  11
ATOM     11  C   UNL     1       3.943   5.482  18.481  0.00  0.00    +0.000 A 
ATOM     12  C   UNL     1       5.282   5.428  18.871  0.00  0.00    +0.000 A 
ATOM     13  C   UNL     1       6.167   4.681  18.113  0.00  0.00    +0.000 A 
ATOM     14  N   UNL     1       5.811   3.972  17.024  0.00  0.00    +0.000 NA
ATOM     15  C   UNL     1       4.505   4.013  16.679  0.00  0.00    +0.000 A 
ATOM     16  C   UNL     1       3.549   4.749  17.360  0.00  0.00    +0.000 A 
ENDBRANCH   6  11
BRANCH   1  17
ATOM     17  N   UNL     1      -0.125   9.382  20.966  0.00  0.00    +0.000 N 
ATOM     18  H   UNL     1      -0.759   8.658  21.298  0.00  0.00    +0.000 HD
BRANCH  17  20
ATOM     19  O   UNL     1       0.294   9.950  23.367  0.00  0.00    +0.000 OA
ATOM     20  S   UNL     1       0.236  10.602  22.074  0.00  0.00    +0.000 S 
ATOM     21  O   UNL     1       1.338  11.404  21.586  0.00  0.00    +0.000 OA
BRANCH  20  22
ATOM     22  C   UNL     1      -1.251  11.566  22.015  0.00  0.00    +0.000 A 
ATOM     23  C   UNL     1      -2.020  11.721  23.171  0.00  0.00    +0.000 A 
ATOM     24  C   UNL     1      -3.259  12.356  23.086  0.00  0.00    +0.000 A 
ATOM     25  C   UNL     1      -3.718  12.832  21.856  0.00  0.00    +0.000 A 
ATOM     26  C   UNL     1      -2.926  12.709  20.713  0.00  0.00    +0.000 A 
ATOM     27  C   UNL     1      -1.680  12.091  20.791  0.00  0.00    +0.000 A 
ENDBRANCH  20  22
ENDBRANCH  17  20
ENDBRANCH   1  17
TORSDOF 4
ENDMDL
MODEL 8
REMARK VINA RESULT:      -7.7      4.268      5.233
REMARK  Name = 
REMARK  4 active torsions:
REMARK  status: ('A' for Active; 'I' for Inactive)
REMARK    1  A    between atoms: S_2  and  N_4
REMARK    2  A    between atoms: S_2  and  C_20
REMARK    3  A    between atoms: N_4  and  C_5
REMARK    4  A    between atoms: C_10  and  C_11
REMARK                            x       y       z     vdW  Elec       q    Type
REMARK                         _______ _______ _______ _____ _____    ______ ____
ROOT
ATOM      1  C   UNL     1       2.534   6.610  19.796  0.00  0.00    +0.000 A 
ATOM      2  C   UNL     1       2.912   6.474  18.460  0.00  0.00    +0.000 A 
ATOM      3  C   UNL     1       2.646   7.487  17.544  0.00  0.00    +0.000 A 
ATOM      4  C   UNL     1       1.994   8.659  17.946  0.00  0.00    +0.000 A 
ATOM      5  C   UNL     1       1.566   8.807  19.285  0.00  0.00    +0.000 A 
ATOM      6  C   UNL     1       0.895   9.841  20.027  0.00  0.00    +0.000 A 
ATOM      7  C   UNL     1       0.803   9.399  21.333  0.00  0.00    +0.000 A 
ATOM      8  N   UNL     1       1.357   8.150  21.405  0.00  0.00    +0.000 N 
ATOM      9  C   UNL     1       1.845   7.769  20.177  0.00  0.00    +0.000 A 
ATOM     10  H   UNL     1       1.454   7.600  22.247  0.00  0.00    +0.000 HD
ENDROOT
BRANCH   6  11
ATOM     11  C   UNL     1       0.399  11.140  19.584  0.00  0.00    +0.000 A 
ATOM     12  C   UNL     1      -0.971  11.408  19.588  0.00  0.00    +0.000 A 
ATOM     13  C   UNL     1      -1.411  12.632  19.113  0.00  0.00    +0.000 A 
ATOM     14  N   UNL     1      -0.591  13.604  18.666  0.00  0.00    +0.000 NA
ATOM     15  C   UNL     1       0.733  13.336  18.697  0.00  0.00    +0.000 A 
ATOM     16  C   UNL     1       1.268  12.135  19.133  0.00  0.00    +0.000 A 
ENDBRANCH   6  11
BRANCH   1  17
ATOM     17  N   UNL     1       2.850   5.611  20.751  0.00  0.00    +0.000 N 
ATOM     18  H   UNL     1       3.361   5.859  21.596  0.00  0.00    +0.000 HD
BRANCH  17  20
ATOM     19  O   UNL     1       2.149   3.672  22.170  0.00  0.00    +0.000 OA
ATOM     20  S   UNL     1       1.890   4.228  20.857  0.00  0.00    +0.000 S 
ATOM     21  O   UNL     1       0.543   4.524  20.417  0.00  0.00    +0.000 OA
BRANCH  20  22
ATOM     22  C   UNL     1       2.672   3.180  19.658  0.00  0.00    +0.000 A 
ATOM     23  C   UNL     1       2.067   2.982  18.415  0.00  0.00    +0.000 A 
ATOM     24  C   UNL     1       2.609   2.047  17.533  0.00  0.00    +0.000 A 
ATOM     25  C   UNL     1       3.747   1.322  17.895  0.00  0.00    +0.000 A 
ATOM     26  C   UNL     1       4.369   1.555  19.123  0.00  0.00    +0.000 A 
ATOM     27  C   UNL     1       3.844   2.499  20.003  0.00  0.00    +0.000 A 
ENDBRANCH  20  22
ENDBRANCH  17  20
ENDBRANCH   1  17
TORSDOF 4
ENDMDL
MODEL 9
REMARK VINA RESULT:      -7.7      1.947      2.867
REMARK  Name = 
REMARK  4 active torsions:
REMARK  status: ('A' for Active; 'I' for Inactive)
REMARK    1  A    between atoms: S_2  and  N_4
REMARK    2  A    between atoms: S_2  and  C_20
REMARK    3  A    between atoms: N_4  and  C_5
REMARK    4  A    between atoms: C_10  and  C_11
REMARK                            x       y       z     vdW  Elec       q    Type
REMARK                         _______ _______ _______ _____ _____    ______ ____
ROOT
ATOM      1  C   UNL     1       3.038   6.127  18.554  0.00  0.00    +0.000 A 
ATOM      2  C   UNL     1       3.374   6.939  17.469  0.00  0.00    +0.000 A 
ATOM      3  C   UNL     1       3.001   8.279  17.448  0.00  0.00    +0.000 A 
ATOM      4  C   UNL     1       2.283   8.836  18.513  0.00  0.00    +0.000 A 
ATOM      5  C   UNL     1       1.897   8.028  19.606  0.00  0.00    +0.000 A 
ATOM      6  C   UNL     1       1.182   8.257  20.833  0.00  0.00    +0.000 A 
ATOM      7  C   UNL     1       1.171   7.056  21.518  0.00  0.00    +0.000 A 
ATOM      8  N   UNL     1       1.816   6.120  20.756  0.00  0.00    +0.000 N 
ATOM      9  C   UNL     1       2.283   6.686  19.593  0.00  0.00    +0.000 A 
ATOM     10  H   UNL     1       1.984   5.161  21.025  0.00  0.00    +0.000 HD
ENDROOT
BRANCH   6  11
ATOM     11  C   UNL     1       0.578   9.479  21.352  0.00  0.00    +0.000 A 
ATOM     12  C   UNL     1       0.812  10.703  20.721  0.00  0.00    +0.000 A 
ATOM     13  C   UNL     1       0.267  11.851  21.270  0.00  0.00    +0.000 A 
ATOM     14  N   UNL     1      -0.507  11.862  22.373  0.00  0.00    +0.000 NA
ATOM     15  C   UNL     1      -0.745  10.665  22.954  0.00  0.00    +0.000 A 
ATOM     16  C   UNL     1      -0.227   9.466  22.492  0.00  0.00    +0.000 A 
ENDBRANCH   6  11
BRANCH   1  17
ATOM     17  N   UNL     1       3.460   4.775  18.614  0.00  0.00    +0.000 N 
ATOM     18  H   UNL     1       2.949   4.060  18.101  0.00  0.00    +0.000 HD
BRANCH  17  20
ATOM     19  O   UNL     1       5.599   5.589  19.628  0.00  0.00    +0.000 OA
ATOM     20  S   UNL     1       5.075   4.421  18.949  0.00  0.00    +0.000 S 
ATOM     21  O   UNL     1       5.181   3.100  19.533  0.00  0.00    +0.000 OA
BRANCH  20  22
ATOM     22  C   UNL     1       5.761   4.386  17.314  0.00  0.00    +0.000 A 
ATOM     23  C   UNL     1       7.047   4.887  17.094  0.00  0.00    +0.000 A 
ATOM     24  C   UNL     1       7.524   4.991  15.788  0.00  0.00    +0.000 A 
ATOM     25  C   UNL     1       6.721   4.594  14.716  0.00  0.00    +0.000 A 
ATOM     26  C   UNL     1       5.453   4.056  14.947  0.00  0.00    +0.000 A 
ATOM     27  C   UNL     1       4.975   3.933  16.249  0.00  0.00    +0.000 A 
ENDBRANCH  20  22
ENDBRANCH  17  20
ENDBRANCH   1  17
TORSDOF 4
ENDMDL
