MODEL 1
REMARK VINA RESULT:      -6.5      0.000      0.000
REMARK  Name = 
REMARK  9 active torsions:
REMARK  status: ('A' for Active; 'I' for Inactive)
REMARK    1  A    between atoms: N_1  and  C_2
REMARK    2  A    between atoms: C_2  and  C_3
REMARK    3  A    between atoms: C_2  and  C_15
REMARK    4  A    between atoms: C_3  and  C_4
REMARK    5  A    between atoms: C_4  and  S_5
REMARK    6  A    between atoms: S_5  and  C_6
REMARK    7  A    between atoms: C_9  and  C_10
REMARK    8  A    between atoms: C_10  and  O_12
REMARK    9  A    between atoms: C_15  and  O_17
REMARK                            x       y       z     vdW  Elec       q    Type
REMARK                         _______ _______ _______ _____ _____    ______ ____
ROOT
ATOM      1  S   UNK     1       2.626   6.507  19.127  0.00  0.00    +0.000 S 
ENDROOT
BRANCH   1   2
ATOM      2  C   UNK     1       3.764   5.998  17.843  0.00  0.00    +0.000 A 
ATOM      3  C   UNK     1       4.684   6.860  17.237  0.00  0.00    +0.000 A 
ATOM      4  C   UNK     1       5.566   6.395  16.259  0.00  0.00    +0.000 A 
ATOM      5  C   UNK     1       5.554   5.052  15.877  0.00  0.00    +0.000 A 
ATOM      6  C   UNK     1       4.656   4.171  16.491  0.00  0.00    +0.000 A 
ATOM      7  C   UNK     1       3.763   4.646  17.463  0.00  0.00    +0.000 A 
BRANCH   5   8
ATOM      8  C   UNK     1       6.554   4.618  14.868  0.00  0.00    +0.000 C 
ATOM      9  O   UNK     1       7.530   5.290  14.578  0.00  0.00    +0.000 OA
BRANCH   8  10
ATOM     10  O   UNK     1       6.271   3.445  14.269  0.00  0.00    +0.000 OA
ATOM     11  H   UNK     1       5.476   3.450  13.710  0.00  0.00    +0.000 HD
ENDBRANCH   8  10
ENDBRANCH   5   8
ENDBRANCH   1   2
BRANCH   1  12
ATOM     12  C   UNK     1       2.669   5.080  20.266  0.00  0.00    +0.000 C 
BRANCH  12  13
ATOM     13  C   UNK     1       1.262   4.552  20.542  0.00  0.00    +0.000 C 
BRANCH  13  14
ATOM     14  C   UNK     1       1.198   3.028  20.713  0.00  0.00    +0.000 C 
BRANCH  14  15
ATOM     15  N   UNK     1       2.116   2.507  21.765  0.00  0.00    +0.000 NA
ATOM     16  H   UNK     1       1.545   2.109  22.516  0.00  0.00    +0.000 HD
ATOM     17  H   UNK     1       2.608   3.290  22.207  0.00  0.00    +0.000 HD
ENDBRANCH  14  15
BRANCH  14  18
ATOM     18  C   UNK     1       1.476   2.263  19.404  0.00  0.00    +0.000 C 
ATOM     19  O   UNK     1       2.528   1.725  19.101  0.00  0.00    +0.000 OA
BRANCH  18  20
ATOM     20  O   UNK     1       0.380   2.265  18.600  0.00  0.00    +0.000 OA
ATOM     21  H   UNK     1      -0.216   1.548  18.933  0.00  0.00    +0.000 HD
ENDBRANCH  18  20
ENDBRANCH  14  18
ENDBRANCH  13  14
ENDBRANCH  12  13
ENDBRANCH   1  12
TORSDOF 9
ENDMDL
MODEL 2
REMARK VINA RESULT:      -6.4      1.462      1.586
REMARK  Name = 
REMARK  9 active torsions:
REMARK  status: ('A' for Active; 'I' for Inactive)
REMARK    1  A    between atoms: N_1  and  C_2
REMARK    2  A    between atoms: C_2  and  C_3
REMARK    3  A    between atoms: C_2  and  C_15
REMARK    4  A    between atoms: C_3  and  C_4
REMARK    5  A    between atoms: C_4  and  S_5
REMARK    6  A    between atoms: S_5  and  C_6
REMARK    7  A    between atoms: C_9  and  C_10
REMARK    8  A    between atoms: C_10  and  O_12
REMARK    9  A    between atoms: C_15  and  O_17
REMARK                            x       y       z     vdW  Elec       q    Type
REMARK                         _______ _______ _______ _____ _____    ______ ____
ROOT
ATOM      1  S   UNK     1       2.168   6.452  19.504  0.00  0.00    +0.000 S 
ENDROOT
BRANCH   1   2
ATOM      2  C   UNK     1       3.671   5.923  18.686  0.00  0.00    +0.000 A 
ATOM      3  C   UNK     1       4.061   6.370  17.420  0.00  0.00    +0.000 A 
ATOM      4  C   UNK     1       5.261   5.942  16.847  0.00  0.00    +0.000 A 
ATOM      5  C   UNK     1       6.102   5.066  17.537  0.00  0.00    +0.000 A 
ATOM      6  C   UNK     1       5.737   4.628  18.816  0.00  0.00    +0.000 A 
ATOM      7  C   UNK     1       4.524   5.052  19.382  0.00  0.00    +0.000 A 
BRANCH   5   8
ATOM      8  C   UNK     1       7.384   4.694  16.888  0.00  0.00    +0.000 C 
ATOM      9  O   UNK     1       7.613   4.910  15.710  0.00  0.00    +0.000 OA
BRANCH   8  10
ATOM     10  O   UNK     1       8.256   4.058  17.696  0.00  0.00    +0.000 OA
ATOM     11  H   UNK     1       7.884   3.752  18.540  0.00  0.00    +0.000 HD
ENDBRANCH   8  10
ENDBRANCH   5   8
ENDBRANCH   1   2
BRANCH   1  12
ATOM     12  C   UNK     1       2.005   5.219  20.841  0.00  0.00    +0.000 C 
BRANCH  12  13
ATOM     13  C   UNK     1       1.035   4.106  20.450  0.00  0.00    +0.000 C 
BRANCH  13  14
ATOM     14  C   UNK     1       1.573   2.694  20.725  0.00  0.00    +0.000 C 
BRANCH  14  15
ATOM     15  N   UNK     1       2.581   2.643  21.822  0.00  0.00    +0.000 NA
ATOM     16  H   UNK     1       2.870   3.604  22.033  0.00  0.00    +0.000 HD
ATOM     17  H   UNK     1       3.434   2.190  21.481  0.00  0.00    +0.000 HD
ENDBRANCH  14  15
BRANCH  14  18
ATOM     18  C   UNK     1       2.184   2.030  19.475  0.00  0.00    +0.000 C 
ATOM     19  O   UNK     1       3.370   1.823  19.284  0.00  0.00    +0.000 OA
BRANCH  18  20
ATOM     20  O   UNK     1       1.214   1.697  18.583  0.00  0.00    +0.000 OA
ATOM     21  H   UNK     1       1.385   0.760  18.315  0.00  0.00    +0.000 HD
ENDBRANCH  18  20
ENDBRANCH  14  18
ENDBRANCH  13  14
ENDBRANCH  12  13
ENDBRANCH   1  12
TORSDOF 9
ENDMDL
MODEL 3
REMARK VINA RESULT:      -6.3      0.303      1.433
REMARK  Name = 
REMARK  9 active torsions:
REMARK  status: ('A' for Active; 'I' for Inactive)
REMARK    1  A    between atoms: N_1  and  C_2
REMARK    2  A    between atoms: C_2  and  C_3
REMARK    3  A    between atoms: C_2  and  C_15
REMARK    4  A    between atoms: C_3  and  C_4
REMARK    5  A    between atoms: C_4  and  S_5
REMARK    6  A    between atoms: S_5  and  C_6
REMARK    7  A    between atoms: C_9  and  C_10
REMARK    8  A    between atoms: C_10  and  O_12
REMARK    9  A    between atoms: C_15  and  O_17
REMARK                            x       y       z     vdW  Elec       q    Type
REMARK                         _______ _______ _______ _____ _____    ______ ____
ROOT
ATOM      1  S   UNK     1       2.515   6.569  19.038  0.00  0.00    +0.000 S 
ENDROOT
BRANCH   1   2
ATOM      2  C   UNK     1       3.697   5.966  17.837  0.00  0.00    +0.000 A 
ATOM      3  C   UNK     1       3.777   4.629  17.433  0.00  0.00    +0.000 A 
ATOM      4  C   UNK     1       4.704   4.225  16.469  0.00  0.00    +0.000 A 
ATOM      5  C   UNK     1       5.562   5.156  15.879  0.00  0.00    +0.000 A 
ATOM      6  C   UNK     1       5.478   6.502  16.255  0.00  0.00    +0.000 A 
ATOM      7  C   UNK     1       4.554   6.900  17.233  0.00  0.00    +0.000 A 
BRANCH   5   8
ATOM      8  C   UNK     1       6.486   4.664  14.825  0.00  0.00    +0.000 C 
ATOM      9  O   UNK     1       6.267   3.655  14.177  0.00  0.00    +0.000 OA
BRANCH   8  10
ATOM     10  O   UNK     1       7.606   5.398  14.678  0.00  0.00    +0.000 OA
ATOM     11  H   UNK     1       8.276   5.269  15.371  0.00  0.00    +0.000 HD
ENDBRANCH   8  10
ENDBRANCH   5   8
ENDBRANCH   1   2
BRANCH   1  12
ATOM     12  C   UNK     1       2.557   5.258  20.309  0.00  0.00    +0.000 C 
BRANCH  12  13
ATOM     13  C   UNK     1       1.215   4.532  20.397  0.00  0.00    +0.000 C 
BRANCH  13  14
ATOM     14  C   UNK     1       1.344   3.033  20.706  0.00  0.00    +0.000 C 
BRANCH  14  15
ATOM     15  N   UNK     1       2.147   2.743  21.928  0.00  0.00    +0.000 NA
ATOM     16  H   UNK     1       2.771   3.539  22.094  0.00  0.00    +0.000 HD
ATOM     17  H   UNK     1       2.780   1.959  21.742  0.00  0.00    +0.000 HD
ENDBRANCH  14  15
BRANCH  14  18
ATOM     18  C   UNK     1       1.937   2.226  19.534  0.00  0.00    +0.000 C 
ATOM     19  O   UNK     1       3.114   1.947  19.383  0.00  0.00    +0.000 OA
BRANCH  18  20
ATOM     20  O   UNK     1       0.963   1.857  18.660  0.00  0.00    +0.000 OA
ATOM     21  H   UNK     1       1.382   1.232  18.018  0.00  0.00    +0.000 HD
ENDBRANCH  18  20
ENDBRANCH  14  18
ENDBRANCH  13  14
ENDBRANCH  12  13
ENDBRANCH   1  12
TORSDOF 9
ENDMDL
MODEL 4
REMARK VINA RESULT:      -6.3      3.330      6.302
REMARK  Name = 
REMARK  9 active torsions:
REMARK  status: ('A' for Active; 'I' for Inactive)
REMARK    1  A    between atoms: N_1  and  C_2
REMARK    2  A    between atoms: C_2  and  C_3
REMARK    3  A    between atoms: C_2  and  C_15
REMARK    4  A    between atoms: C_3  and  C_4
REMARK    5  A    between atoms: C_4  and  S_5
REMARK    6  A    between atoms: S_5  and  C_6
REMARK    7  A    between atoms: C_9  and  C_10
REMARK    8  A    between atoms: C_10  and  O_12
REMARK    9  A    between atoms: C_15  and  O_17
REMARK                            x       y       z     vdW  Elec       q    Type
REMARK                         _______ _______ _______ _____ _____    ______ ____
ROOT
ATOM      1  S   UNK     1       5.074   4.019  16.032  0.00  0.00    +0.000 S 
ENDROOT
BRANCH   1   2
ATOM      2  C   UNK     1       4.128   3.610  17.495  0.00  0.00    +0.000 A 
ATOM      3  C   UNK     1       4.703   3.159  18.687  0.00  0.00    +0.000 A 
ATOM      4  C   UNK     1       3.913   2.883  19.806  0.00  0.00    +0.000 A 
ATOM      5  C   UNK     1       2.529   3.068  19.757  0.00  0.00    +0.000 A 
ATOM      6  C   UNK     1       1.941   3.543  18.579  0.00  0.00    +0.000 A 
ATOM      7  C   UNK     1       2.738   3.806  17.454  0.00  0.00    +0.000 A 
BRANCH   5   8
ATOM      8  C   UNK     1       1.759   2.804  20.999  0.00  0.00    +0.000 C 
ATOM      9  O   UNK     1       2.289   2.457  22.041  0.00  0.00    +0.000 OA
BRANCH   8  10
ATOM     10  O   UNK     1       0.424   2.935  20.867  0.00  0.00    +0.000 OA
ATOM     11  H   UNK     1       0.051   3.745  21.254  0.00  0.00    +0.000 HD
ENDBRANCH   8  10
ENDBRANCH   5   8
ENDBRANCH   1   2
BRANCH   1  12
ATOM     12  C   UNK     1       5.089   5.844  16.082  0.00  0.00    +0.000 C 
BRANCH  12  13
ATOM     13  C   UNK     1       5.370   6.355  17.494  0.00  0.00    +0.000 C 
BRANCH  13  14
ATOM     14  C   UNK     1       6.863   6.541  17.797  0.00  0.00    +0.000 C 
BRANCH  14  15
ATOM     15  N   UNK     1       7.720   6.572  16.578  0.00  0.00    +0.000 NA
ATOM     16  H   UNK     1       7.223   7.101  15.854  0.00  0.00    +0.000 HD
ATOM     17  H   UNK     1       7.799   5.626  16.192  0.00  0.00    +0.000 HD
ENDBRANCH  14  15
BRANCH  14  18
ATOM     18  C   UNK     1       7.422   5.468  18.753  0.00  0.00    +0.000 C 
ATOM     19  O   UNK     1       7.369   5.500  19.971  0.00  0.00    +0.000 OA
BRANCH  18  20
ATOM     20  O   UNK     1       8.003   4.455  18.057  0.00  0.00    +0.000 OA
ATOM     21  H   UNK     1       8.718   4.090  18.634  0.00  0.00    +0.000 HD
ENDBRANCH  18  20
ENDBRANCH  14  18
ENDBRANCH  13  14
ENDBRANCH  12  13
ENDBRANCH   1  12
TORSDOF 9
ENDMDL
MODEL 5
REMARK VINA RESULT:      -6.2      0.729      1.732
REMARK  Name = 
REMARK  9 active torsions:
REMARK  status: ('A' for Active; 'I' for Inactive)
REMARK    1  A    between atoms: N_1  and  C_2
REMARK    2  A    between atoms: C_2  and  C_3
REMARK    3  A    between atoms: C_2  and  C_15
REMARK    4  A    between atoms: C_3  and  C_4
REMARK    5  A    between atoms: C_4  and  S_5
REMARK    6  A    between atoms: S_5  and  C_6
REMARK    7  A    between atoms: C_9  and  C_10
REMARK    8  A    between atoms: C_10  and  O_12
REMARK    9  A    between atoms: C_15  and  O_17
REMARK                            x       y       z     vdW  Elec       q    Type
REMARK                         _______ _______ _______ _____ _____    ______ ____
ROOT
ATOM      1  S   UNK     1       2.502   6.181  18.783  0.00  0.00    +0.000 S 
ENDROOT
BRANCH   1   2
ATOM      2  C   UNK     1       3.729   5.705  17.571  0.00  0.00    +0.000 A 
ATOM      3  C   UNK     1       3.959   4.381  17.181  0.00  0.00    +0.000 A 
ATOM      4  C   UNK     1       4.913   4.075  16.208  0.00  0.00    +0.000 A 
ATOM      5  C   UNK     1       5.647   5.092  15.593  0.00  0.00    +0.000 A 
ATOM      6  C   UNK     1       5.412   6.424  15.954  0.00  0.00    +0.000 A 
ATOM      7  C   UNK     1       4.462   6.724  16.942  0.00  0.00    +0.000 A 
BRANCH   5   8
ATOM      8  C   UNK     1       6.607   4.697  14.531  0.00  0.00    +0.000 C 
ATOM      9  O   UNK     1       6.385   3.790  13.746  0.00  0.00    +0.000 OA
BRANCH   8  10
ATOM     10  O   UNK     1       7.762   5.391  14.535  0.00  0.00    +0.000 OA
ATOM     11  H   UNK     1       8.530   4.914  14.177  0.00  0.00    +0.000 HD
ENDBRANCH   8  10
ENDBRANCH   5   8
ENDBRANCH   1   2
BRANCH   1  12
ATOM     12  C   UNK     1       2.946   5.132  20.211  0.00  0.00    +0.000 C 
BRANCH  12  13
ATOM     13  C   UNK     1       1.807   4.179  20.569  0.00  0.00    +0.000 C 
BRANCH  13  14
ATOM     14  C   UNK     1       2.126   2.704  20.286  0.00  0.00    +0.000 C 
BRANCH  14  15
ATOM     15  N   UNK     1       3.586   2.415  20.203  0.00  0.00    +0.000 NA
ATOM     16  H   UNK     1       3.736   1.754  19.434  0.00  0.00    +0.000 HD
ATOM     17  H   UNK     1       3.881   1.901  21.040  0.00  0.00    +0.000 HD
ENDBRANCH  14  15
BRANCH  14  18
ATOM     18  C   UNK     1       1.454   2.178  19.003  0.00  0.00    +0.000 C 
ATOM     19  O   UNK     1       0.273   2.285  18.720  0.00  0.00    +0.000 OA
BRANCH  18  20
ATOM     20  O   UNK     1       2.361   1.557  18.202  0.00  0.00    +0.000 OA
ATOM     21  H   UNK     1       3.144   2.159  18.142  0.00  0.00    +0.000 HD
ENDBRANCH  18  20
ENDBRANCH  14  18
ENDBRANCH  13  14
ENDBRANCH  12  13
ENDBRANCH   1  12
TORSDOF 9
ENDMDL
MODEL 6
REMARK VINA RESULT:      -6.2      1.611      1.746
REMARK  Name = 
REMARK  9 active torsions:
REMARK  status: ('A' for Active; 'I' for Inactive)
REMARK    1  A    between atoms: N_1  and  C_2
REMARK    2  A    between atoms: C_2  and  C_3
REMARK    3  A    between atoms: C_2  and  C_15
REMARK    4  A    between atoms: C_3  and  C_4
REMARK    5  A    between atoms: C_4  and  S_5
REMARK    6  A    between atoms: S_5  and  C_6
REMARK    7  A    between atoms: C_9  and  C_10
REMARK    8  A    between atoms: C_10  and  O_12
REMARK    9  A    between atoms: C_15  and  O_17
REMARK                            x       y       z     vdW  Elec       q    Type
REMARK                         _______ _______ _______ _____ _____    ______ ____
ROOT
ATOM      1  S   UNK     1       3.979   5.528  19.156  0.00  0.00    +0.000 S 
ENDROOT
BRANCH   1   2
ATOM      2  C   UNK     1       4.738   5.256  17.558  0.00  0.00    +0.000 A 
ATOM      3  C   UNK     1       4.887   6.256  16.592  0.00  0.00    +0.000 A 
ATOM      4  C   UNK     1       5.514   5.987  15.373  0.00  0.00    +0.000 A 
ATOM      5  C   UNK     1       6.018   4.713  15.102  0.00  0.00    +0.000 A 
ATOM      6  C   UNK     1       5.899   3.708  16.069  0.00  0.00    +0.000 A 
ATOM      7  C   UNK     1       5.256   3.979  17.286  0.00  0.00    +0.000 A 
BRANCH   5   8
ATOM      8  C   UNK     1       6.717   4.515  13.807  0.00  0.00    +0.000 C 
ATOM      9  O   UNK     1       7.505   5.327  13.352  0.00  0.00    +0.000 OA
BRANCH   8  10
ATOM     10  O   UNK     1       6.376   3.385  13.155  0.00  0.00    +0.000 OA
ATOM     11  H   UNK     1       5.922   2.719  13.699  0.00  0.00    +0.000 HD
ENDBRANCH   8  10
ENDBRANCH   5   8
ENDBRANCH   1   2
BRANCH   1  12
ATOM     12  C   UNK     1       2.200   5.416  18.760  0.00  0.00    +0.000 C 
BRANCH  12  13
ATOM     13  C   UNK     1       1.795   3.977  18.445  0.00  0.00    +0.000 C 
BRANCH  13  14
ATOM     14  C   UNK     1       2.424   2.940  19.385  0.00  0.00    +0.000 C 
BRANCH  14  15
ATOM     15  N   UNK     1       2.446   1.560  18.822  0.00  0.00    +0.000 NA
ATOM     16  H   UNK     1       3.149   1.018  19.334  0.00  0.00    +0.000 HD
ATOM     17  H   UNK     1       2.799   1.589  17.860  0.00  0.00    +0.000 HD
ENDBRANCH  14  15
BRANCH  14  18
ATOM     18  C   UNK     1       1.743   2.888  20.767  0.00  0.00    +0.000 C 
ATOM     19  O   UNK     1       2.306   2.718  21.835  0.00  0.00    +0.000 OA
BRANCH  18  20
ATOM     20  O   UNK     1       0.399   3.052  20.649  0.00  0.00    +0.000 OA
ATOM     21  H   UNK     1       0.098   2.426  19.944  0.00  0.00    +0.000 HD
ENDBRANCH  18  20
ENDBRANCH  14  18
ENDBRANCH  13  14
ENDBRANCH  12  13
ENDBRANCH   1  12
TORSDOF 9
ENDMDL
MODEL 7
REMARK VINA RESULT:      -6.2      3.330      6.328
REMARK  Name = 
REMARK  9 active torsions:
REMARK  status: ('A' for Active; 'I' for Inactive)
REMARK    1  A    between atoms: N_1  and  C_2
REMARK    2  A    between atoms: C_2  and  C_3
REMARK    3  A    between atoms: C_2  and  C_15
REMARK    4  A    between atoms: C_3  and  C_4
REMARK    5  A    between atoms: C_4  and  S_5
REMARK    6  A    between atoms: S_5  and  C_6
REMARK    7  A    between atoms: C_9  and  C_10
REMARK    8  A    between atoms: C_10  and  O_12
REMARK    9  A    between atoms: C_15  and  O_17
REMARK                            x       y       z     vdW  Elec       q    Type
REMARK                         _______ _______ _______ _____ _____    ______ ____
ROOT
ATOM      1  S   UNK     1       5.064   4.143  16.040  0.00  0.00    +0.000 S 
ENDROOT
BRANCH   1   2
ATOM      2  C   UNK     1       4.194   3.828  17.572  0.00  0.00    +0.000 A 
ATOM      3  C   UNK     1       3.926   4.814  18.527  0.00  0.00    +0.000 A 
ATOM      4  C   UNK     1       3.217   4.510  19.692  0.00  0.00    +0.000 A 
ATOM      5  C   UNK     1       2.748   3.214  19.917  0.00  0.00    +0.000 A 
ATOM      6  C   UNK     1       2.987   2.221  18.959  0.00  0.00    +0.000 A 
ATOM      7  C   UNK     1       3.711   2.529  17.797  0.00  0.00    +0.000 A 
BRANCH   5   8
ATOM      8  C   UNK     1       1.958   2.977  21.152  0.00  0.00    +0.000 C 
ATOM      9  O   UNK     1       2.477   2.769  22.235  0.00  0.00    +0.000 OA
BRANCH   8  10
ATOM     10  O   UNK     1       0.623   2.965  20.967  0.00  0.00    +0.000 OA
ATOM     11  H   UNK     1       0.096   2.888  21.781  0.00  0.00    +0.000 HD
ENDBRANCH   8  10
ENDBRANCH   5   8
ENDBRANCH   1   2
BRANCH   1  12
ATOM     12  C   UNK     1       5.341   5.947  16.121  0.00  0.00    +0.000 C 
BRANCH  12  13
ATOM     13  C   UNK     1       6.804   6.267  16.421  0.00  0.00    +0.000 C 
BRANCH  13  14
ATOM     14  C   UNK     1       7.081   6.551  17.904  0.00  0.00    +0.000 C 
BRANCH  14  15
ATOM     15  N   UNK     1       8.059   7.654  18.128  0.00  0.00    +0.000 NA
ATOM     16  H   UNK     1       7.627   8.338  18.757  0.00  0.00    +0.000 HD
ATOM     17  H   UNK     1       8.200   8.168  17.252  0.00  0.00    +0.000 HD
ENDBRANCH  14  15
BRANCH  14  18
ATOM     18  C   UNK     1       7.568   5.308  18.675  0.00  0.00    +0.000 C 
ATOM     19  O   UNK     1       8.078   4.317  18.181  0.00  0.00    +0.000 OA
BRANCH  18  20
ATOM     20  O   UNK     1       7.350   5.450  20.009  0.00  0.00    +0.000 OA
ATOM     21  H   UNK     1       6.379   5.603  20.121  0.00  0.00    +0.000 HD
ENDBRANCH  18  20
ENDBRANCH  14  18
ENDBRANCH  13  14
ENDBRANCH  12  13
ENDBRANCH   1  12
TORSDOF 9
ENDMDL
MODEL 8
REMARK VINA RESULT:      -6.2      2.082      6.039
REMARK  Name = 
REMARK  9 active torsions:
REMARK  status: ('A' for Active; 'I' for Inactive)
REMARK    1  A    between atoms: N_1  and  C_2
REMARK    2  A    between atoms: C_2  and  C_3
REMARK    3  A    between atoms: C_2  and  C_15
REMARK    4  A    between atoms: C_3  and  C_4
REMARK    5  A    between atoms: C_4  and  S_5
REMARK    6  A    between atoms: S_5  and  C_6
REMARK    7  A    between atoms: C_9  and  C_10
REMARK    8  A    between atoms: C_10  and  O_12
REMARK    9  A    between atoms: C_15  and  O_17
REMARK                            x       y       z     vdW  Elec       q    Type
REMARK                         _______ _______ _______ _____ _____    ______ ____
ROOT
ATOM      1  S   UNK     1       3.163   7.800  17.644  0.00  0.00    +0.000 S 
ENDROOT
BRANCH   1   2
ATOM      2  C   UNK     1       2.572   6.398  18.587  0.00  0.00    +0.000 A 
ATOM      3  C   UNK     1       2.372   6.425  19.970  0.00  0.00    +0.000 A 
ATOM      4  C   UNK     1       1.881   5.305  20.646  0.00  0.00    +0.000 A 
ATOM      5  C   UNK     1       1.567   4.138  19.946  0.00  0.00    +0.000 A 
ATOM      6  C   UNK     1       1.739   4.103  18.558  0.00  0.00    +0.000 A 
ATOM      7  C   UNK     1       2.245   5.226  17.886  0.00  0.00    +0.000 A 
BRANCH   5   8
ATOM      8  C   UNK     1       1.002   3.005  20.723  0.00  0.00    +0.000 C 
ATOM      9  O   UNK     1       1.385   2.720  21.845  0.00  0.00    +0.000 OA
BRANCH   8  10
ATOM     10  O   UNK     1       0.064   2.292  20.068  0.00  0.00    +0.000 OA
ATOM     11  H   UNK     1      -0.110   2.582  19.157  0.00  0.00    +0.000 HD
ENDBRANCH   8  10
ENDBRANCH   5   8
ENDBRANCH   1   2
BRANCH   1  12
ATOM     12  C   UNK     1       4.625   7.104  16.798  0.00  0.00    +0.000 C 
BRANCH  12  13
ATOM     13  C   UNK     1       5.550   6.397  17.787  0.00  0.00    +0.000 C 
BRANCH  13  14
ATOM     14  C   UNK     1       5.921   4.967  17.369  0.00  0.00    +0.000 C 
BRANCH  14  15
ATOM     15  N   UNK     1       6.017   4.017  18.515  0.00  0.00    +0.000 NA
ATOM     16  H   UNK     1       6.352   4.538  19.332  0.00  0.00    +0.000 HD
ATOM     17  H   UNK     1       6.757   3.333  18.329  0.00  0.00    +0.000 HD
ENDBRANCH  14  15
BRANCH  14  18
ATOM     18  C   UNK     1       7.237   4.896  16.570  0.00  0.00    +0.000 C 
ATOM     19  O   UNK     1       7.481   5.503  15.541  0.00  0.00    +0.000 OA
BRANCH  18  20
ATOM     20  O   UNK     1       8.117   4.046  17.162  0.00  0.00    +0.000 OA
ATOM     21  H   UNK     1       8.743   4.606  17.685  0.00  0.00    +0.000 HD
ENDBRANCH  18  20
ENDBRANCH  14  18
ENDBRANCH  13  14
ENDBRANCH  12  13
ENDBRANCH   1  12
TORSDOF 9
ENDMDL
MODEL 9
REMARK VINA RESULT:      -6.1      3.435      6.550
REMARK  Name = 
REMARK  9 active torsions:
REMARK  status: ('A' for Active; 'I' for Inactive)
REMARK    1  A    between atoms: N_1  and  C_2
REMARK    2  A    between atoms: C_2  and  C_3
REMARK    3  A    between atoms: C_2  and  C_15
REMARK    4  A    between atoms: C_3  and  C_4
REMARK    5  A    between atoms: C_4  and  S_5
REMARK    6  A    between atoms: S_5  and  C_6
REMARK    7  A    between atoms: C_9  and  C_10
REMARK    8  A    between atoms: C_10  and  O_12
REMARK    9  A    between atoms: C_15  and  O_17
REMARK                            x       y       z     vdW  Elec       q    Type
REMARK                         _______ _______ _______ _____ _____    ______ ____
ROOT
ATOM      1  S   UNK     1       4.800   4.989  16.182  0.00  0.00    +0.000 S 
ENDROOT
BRANCH   1   2
ATOM      2  C   UNK     1       3.994   4.353  17.648  0.00  0.00    +0.000 A 
ATOM      3  C   UNK     1       4.643   3.576  18.612  0.00  0.00    +0.000 A 
ATOM      4  C   UNK     1       3.966   3.132  19.751  0.00  0.00    +0.000 A 
ATOM      5  C   UNK     1       2.626   3.470  19.953  0.00  0.00    +0.000 A 
ATOM      6  C   UNK     1       1.969   4.268  19.009  0.00  0.00    +0.000 A 
ATOM      7  C   UNK     1       2.650   4.700  17.861  0.00  0.00    +0.000 A 
BRANCH   5   8
ATOM      8  C   UNK     1       1.986   3.006  21.210  0.00  0.00    +0.000 C 
ATOM      9  O   UNK     1       2.626   2.710  22.205  0.00  0.00    +0.000 OA
BRANCH   8  10
ATOM     10  O   UNK     1       0.644   2.896  21.146  0.00  0.00    +0.000 OA
ATOM     11  H   UNK     1       0.155   3.459  21.770  0.00  0.00    +0.000 HD
ENDBRANCH   8  10
ENDBRANCH   5   8
ENDBRANCH   1   2
BRANCH   1  12
ATOM     12  C   UNK     1       6.368   4.053  16.169  0.00  0.00    +0.000 C 
BRANCH  12  13
ATOM     13  C   UNK     1       7.533   4.922  16.639  0.00  0.00    +0.000 C 
BRANCH  13  14
ATOM     14  C   UNK     1       7.098   6.144  17.460  0.00  0.00    +0.000 C 
BRANCH  14  15
ATOM     15  N   UNK     1       7.477   7.446  16.839  0.00  0.00    +0.000 NA
ATOM     16  H   UNK     1       8.370   7.318  16.353  0.00  0.00    +0.000 HD
ATOM     17  H   UNK     1       7.684   8.128  17.575  0.00  0.00    +0.000 HD
ENDBRANCH  14  15
BRANCH  14  18
ATOM     18  C   UNK     1       7.637   6.122  18.904  0.00  0.00    +0.000 C 
ATOM     19  O   UNK     1       7.352   5.302  19.760  0.00  0.00    +0.000 OA
BRANCH  18  20
ATOM     20  O   UNK     1       8.488   7.160  19.118  0.00  0.00    +0.000 OA
ATOM     21  H   UNK     1       9.104   7.185  18.344  0.00  0.00    +0.000 HD
ENDBRANCH  18  20
ENDBRANCH  14  18
ENDBRANCH  13  14
ENDBRANCH  12  13
ENDBRANCH   1  12
TORSDOF 9
ENDMDL
