MODEL 1
REMARK VINA RESULT:      -8.1      0.000      0.000
REMARK  Name = 
REMARK  4 active torsions:
REMARK  status: ('A' for Active; 'I' for Inactive)
REMARK    1  A    between atoms: N_2  and  C_3
REMARK    2  A    between atoms: C_8  and  C_9
REMARK    3  A    between atoms: C_15  and  C_17
REMARK    4  A    between atoms: C_17  and  C_18
REMARK                            x       y       z     vdW  Elec       q    Type
REMARK                         _______ _______ _______ _____ _____    ______ ____
ROOT
ATOM      1  C   UNL     1       2.160   7.318  18.305  0.00  0.00    +0.000 C 
ATOM      2  C   UNL     1       1.739   7.676  19.765  0.00  0.00    +0.000 C 
ATOM      3  N   UNL     1       1.051   8.954  19.980  0.00  0.00    +0.000 NA
ATOM      4  C   UNL     1       1.297   9.524  21.324  0.00  0.00    +0.000 C 
ATOM      5  C   UNL     1       0.375  10.739  21.563  0.00  0.00    +0.000 C 
ATOM      6  N   UNL     1       0.457  11.716  20.462  0.00  0.00    +0.000 N 
ATOM      7  C   UNL     1       0.727  13.043  20.735  0.00  0.00    +0.000 C 
ATOM      8  O   UNL     1       0.952  13.448  21.876  0.00  0.00    +0.000 OA
ATOM      9  C   UNL     1       0.338  11.122  19.122  0.00  0.00    +0.000 C 
ATOM     10  C   UNL     1       1.361   9.983  18.965  0.00  0.00    +0.000 C 
ATOM     11  C   UNL     1       1.328   9.397  17.556  0.00  0.00    +0.000 C 
ATOM     12  O   UNL     1       2.386   8.447  17.445  0.00  0.00    +0.000 OA
ENDROOT
BRANCH   1  18
ATOM     13  C   UNL     1       4.673   4.541  18.930  0.00  0.00    +0.000 A 
ATOM     14  C   UNL     1       5.811   5.023  18.306  0.00  0.00    +0.000 A 
ATOM     15  F   UNL     1       6.935   4.304  18.279  0.00  0.00    +0.000 F 
ATOM     16  C   UNL     1       5.795   6.270  17.692  0.00  0.00    +0.000 A 
ATOM     17  C   UNL     1       4.613   7.021  17.696  0.00  0.00    +0.000 A 
ATOM     18  C   UNL     1       3.447   6.526  18.315  0.00  0.00    +0.000 A 
ATOM     19  C   UNL     1       3.504   5.289  18.958  0.00  0.00    +0.000 A 
ATOM     20  F   UNL     1       2.420   4.828  19.602  0.00  0.00    +0.000 F 
BRANCH  13  22
ATOM     21  C   UNL     1       4.707   2.242  20.042  0.00  0.00    +0.000 C 
ATOM     22  N   UNL     1       4.696   3.291  19.526  0.00  0.00    +0.000 NA
ENDBRANCH  13  22
ENDBRANCH   1  18
BRANCH   7  23
ATOM     23  C   UNL     1       0.779  14.022  19.567  0.00  0.00    +0.000 C 
BRANCH  23  24
ATOM     24  C   UNL     1       2.129  14.665  19.366  0.00  0.00    +0.000 A 
ATOM     25  C   UNL     1       2.328  16.016  19.671  0.00  0.00    +0.000 A 
ATOM     26  C   UNL     1       3.583  16.595  19.494  0.00  0.00    +0.000 A 
ATOM     27  C   UNL     1       4.619  15.801  19.010  0.00  0.00    +0.000 A 
ATOM     28  N   UNL     1       5.887  16.379  18.773  0.00  0.00    +0.000 N 
ATOM     29  C   UNL     1       7.008  15.759  18.291  0.00  0.00    +0.000 A 
ATOM     30  N   UNL     1       7.970  16.645  18.165  0.00  0.00    +0.000 NA
ATOM     31  N   UNL     1       7.435  17.838  18.584  0.00  0.00    +0.000 NA
ATOM     32  N   UNL     1       6.172  17.689  18.961  0.00  0.00    +0.000 NA
ATOM     33  N   UNL     1       4.462  14.480  18.731  0.00  0.00    +0.000 NA
ATOM     34  C   UNL     1       3.235  13.943  18.930  0.00  0.00    +0.000 A 
ENDBRANCH  23  24
ENDBRANCH   7  23
TORSDOF 4
ENDMDL
MODEL 2
REMARK VINA RESULT:      -8.0      0.626      1.074
REMARK  Name = 
REMARK  4 active torsions:
REMARK  status: ('A' for Active; 'I' for Inactive)
REMARK    1  A    between atoms: N_2  and  C_3
REMARK    2  A    between atoms: C_8  and  C_9
REMARK    3  A    between atoms: C_15  and  C_17
REMARK    4  A    between atoms: C_17  and  C_18
REMARK                            x       y       z     vdW  Elec       q    Type
REMARK                         _______ _______ _______ _____ _____    ______ ____
ROOT
ATOM      1  C   UNL     1       2.197   7.280  18.300  0.00  0.00    +0.000 C 
ATOM      2  C   UNL     1       1.775   7.642  19.759  0.00  0.00    +0.000 C 
ATOM      3  N   UNL     1       1.098   8.925  19.972  0.00  0.00    +0.000 NA
ATOM      4  C   UNL     1       1.345   9.494  21.316  0.00  0.00    +0.000 C 
ATOM      5  C   UNL     1       0.433  10.718  21.552  0.00  0.00    +0.000 C 
ATOM      6  N   UNL     1       0.525  11.692  20.450  0.00  0.00    +0.000 N 
ATOM      7  C   UNL     1       0.806  13.018  20.724  0.00  0.00    +0.000 C 
ATOM      8  O   UNL     1       1.032  13.422  21.865  0.00  0.00    +0.000 OA
ATOM      9  C   UNL     1       0.405  11.099  19.110  0.00  0.00    +0.000 C 
ATOM     10  C   UNL     1       1.418   9.952  18.956  0.00  0.00    +0.000 C 
ATOM     11  C   UNL     1       1.383   9.365  17.548  0.00  0.00    +0.000 C 
ATOM     12  O   UNL     1       2.434   8.406  17.440  0.00  0.00    +0.000 OA
ENDROOT
BRANCH   1  18
ATOM     13  C   UNL     1       4.687   4.486  18.937  0.00  0.00    +0.000 A 
ATOM     14  C   UNL     1       5.829   4.955  18.310  0.00  0.00    +0.000 A 
ATOM     15  F   UNL     1       6.947   4.226  18.286  0.00  0.00    +0.000 F 
ATOM     16  C   UNL     1       5.822   6.199  17.690  0.00  0.00    +0.000 A 
ATOM     17  C   UNL     1       4.647   6.959  17.691  0.00  0.00    +0.000 A 
ATOM     18  C   UNL     1       3.478   6.477  18.313  0.00  0.00    +0.000 A 
ATOM     19  C   UNL     1       3.525   5.243  18.963  0.00  0.00    +0.000 A 
ATOM     20  F   UNL     1       2.438   4.795  19.609  0.00  0.00    +0.000 F 
BRANCH  13  22
ATOM     21  C   UNL     1       4.703   2.180  20.036  0.00  0.00    +0.000 C 
ATOM     22  N   UNL     1       4.700   3.239  19.540  0.00  0.00    +0.000 NA
ENDBRANCH  13  22
ENDBRANCH   1  18
BRANCH   7  23
ATOM     23  C   UNL     1       0.868  13.996  19.555  0.00  0.00    +0.000 C 
BRANCH  23  24
ATOM     24  C   UNL     1       2.258  14.494  19.247  0.00  0.00    +0.000 A 
ATOM     25  C   UNL     1       3.123  13.743  18.444  0.00  0.00    +0.000 A 
ATOM     26  C   UNL     1       4.400  14.221  18.155  0.00  0.00    +0.000 A 
ATOM     27  C   UNL     1       4.785  15.451  18.683  0.00  0.00    +0.000 A 
ATOM     28  N   UNL     1       6.093  15.931  18.447  0.00  0.00    +0.000 N 
ATOM     29  C   UNL     1       6.644  17.101  18.894  0.00  0.00    +0.000 A 
ATOM     30  N   UNL     1       7.897  17.165  18.505  0.00  0.00    +0.000 NA
ATOM     31  N   UNL     1       8.125  16.011  17.796  0.00  0.00    +0.000 NA
ATOM     32  N   UNL     1       7.036  15.256  17.749  0.00  0.00    +0.000 NA
ATOM     33  N   UNL     1       3.957  16.214  19.444  0.00  0.00    +0.000 NA
ATOM     34  C   UNL     1       2.717  15.730  19.693  0.00  0.00    +0.000 A 
ENDBRANCH  23  24
ENDBRANCH   7  23
TORSDOF 4
ENDMDL
MODEL 3
REMARK VINA RESULT:      -7.7      1.786      2.363
REMARK  Name = 
REMARK  4 active torsions:
REMARK  status: ('A' for Active; 'I' for Inactive)
REMARK    1  A    between atoms: N_2  and  C_3
REMARK    2  A    between atoms: C_8  and  C_9
REMARK    3  A    between atoms: C_15  and  C_17
REMARK    4  A    between atoms: C_17  and  C_18
REMARK                            x       y       z     vdW  Elec       q    Type
REMARK                         _______ _______ _______ _____ _____    ______ ____
ROOT
ATOM      1  C   UNL     1       2.929   6.583  18.138  0.00  0.00    +0.000 C 
ATOM      2  C   UNL     1       2.446   6.801  19.606  0.00  0.00    +0.000 C 
ATOM      3  N   UNL     1       1.544   7.928  19.864  0.00  0.00    +0.000 NA
ATOM      4  C   UNL     1       1.681   8.477  21.233  0.00  0.00    +0.000 C 
ATOM      5  C   UNL     1       0.559   9.502  21.510  0.00  0.00    +0.000 C 
ATOM      6  N   UNL     1       0.472  10.521  20.449  0.00  0.00    +0.000 N 
ATOM      7  C   UNL     1       0.505  11.864  20.778  0.00  0.00    +0.000 C 
ATOM      8  O   UNL     1       0.651  12.254  21.937  0.00  0.00    +0.000 OA
ATOM      9  C   UNL     1       0.465   9.972  19.085  0.00  0.00    +0.000 C 
ATOM     10  C   UNL     1       1.672   9.037  18.894  0.00  0.00    +0.000 C 
ATOM     11  C   UNL     1       1.748   8.513  17.463  0.00  0.00    +0.000 C 
ATOM     12  O   UNL     1       2.957   7.768  17.326  0.00  0.00    +0.000 OA
ENDROOT
BRANCH   1  18
ATOM     13  C   UNL     1       6.321   5.388  16.919  0.00  0.00    +0.000 A 
ATOM     14  C   UNL     1       6.958   5.044  18.099  0.00  0.00    +0.000 A 
ATOM     15  F   UNL     1       8.214   4.594  18.094  0.00  0.00    +0.000 F 
ATOM     16  C   UNL     1       6.291   5.167  19.313  0.00  0.00    +0.000 A 
ATOM     17  C   UNL     1       4.981   5.660  19.328  0.00  0.00    +0.000 A 
ATOM     18  C   UNL     1       4.336   6.029  18.130  0.00  0.00    +0.000 A 
ATOM     19  C   UNL     1       5.014   5.856  16.923  0.00  0.00    +0.000 A 
ATOM     20  F   UNL     1       4.395   6.148  15.769  0.00  0.00    +0.000 F 
BRANCH  13  22
ATOM     21  C   UNL     1       7.563   5.166  14.698  0.00  0.00    +0.000 C 
ATOM     22  N   UNL     1       6.999   5.275  15.716  0.00  0.00    +0.000 NA
ENDBRANCH  13  22
ENDBRANCH   1  18
BRANCH   7  23
ATOM     23  C   UNL     1       0.389  12.883  19.651  0.00  0.00    +0.000 C 
BRANCH  23  24
ATOM     24  C   UNL     1       1.526  13.874  19.601  0.00  0.00    +0.000 A 
ATOM     25  C   UNL     1       2.600  13.681  18.726  0.00  0.00    +0.000 A 
ATOM     26  C   UNL     1       3.639  14.610  18.678  0.00  0.00    +0.000 A 
ATOM     27  C   UNL     1       3.576  15.719  19.517  0.00  0.00    +0.000 A 
ATOM     28  N   UNL     1       4.643  16.647  19.525  0.00  0.00    +0.000 N 
ATOM     29  C   UNL     1       4.757  17.778  20.287  0.00  0.00    +0.000 A 
ATOM     30  N   UNL     1       5.915  18.348  20.042  0.00  0.00    +0.000 NA
ATOM     31  N   UNL     1       6.528  17.556  19.103  0.00  0.00    +0.000 NA
ATOM     32  N   UNL     1       5.764  16.522  18.776  0.00  0.00    +0.000 NA
ATOM     33  N   UNL     1       2.532  15.946  20.358  0.00  0.00    +0.000 NA
ATOM     34  C   UNL     1       1.531  15.034  20.368  0.00  0.00    +0.000 A 
ENDBRANCH  23  24
ENDBRANCH   7  23
TORSDOF 4
ENDMDL
MODEL 4
REMARK VINA RESULT:      -7.7      1.722      2.209
REMARK  Name = 
REMARK  4 active torsions:
REMARK  status: ('A' for Active; 'I' for Inactive)
REMARK    1  A    between atoms: N_2  and  C_3
REMARK    2  A    between atoms: C_8  and  C_9
REMARK    3  A    between atoms: C_15  and  C_17
REMARK    4  A    between atoms: C_17  and  C_18
REMARK                            x       y       z     vdW  Elec       q    Type
REMARK                         _______ _______ _______ _____ _____    ______ ____
ROOT
ATOM      1  C   UNL     1       2.930   6.686  18.145  0.00  0.00    +0.000 C 
ATOM      2  C   UNL     1       2.411   6.859  19.607  0.00  0.00    +0.000 C 
ATOM      3  N   UNL     1       1.504   7.979  19.878  0.00  0.00    +0.000 NA
ATOM      4  C   UNL     1       1.607   8.483  21.267  0.00  0.00    +0.000 C 
ATOM      5  C   UNL     1       0.481   9.501  21.548  0.00  0.00    +0.000 C 
ATOM      6  N   UNL     1       0.421  10.554  20.519  0.00  0.00    +0.000 N 
ATOM      7  C   UNL     1       0.446  11.885  20.891  0.00  0.00    +0.000 C 
ATOM      8  O   UNL     1       0.564  12.238  22.064  0.00  0.00    +0.000 OA
ATOM      9  C   UNL     1       0.446  10.047  19.138  0.00  0.00    +0.000 C 
ATOM     10  C   UNL     1       1.657   9.117  18.947  0.00  0.00    +0.000 C 
ATOM     11  C   UNL     1       1.767   8.639  17.503  0.00  0.00    +0.000 C 
ATOM     12  O   UNL     1       2.978   7.896  17.372  0.00  0.00    +0.000 OA
ENDROOT
BRANCH   1  18
ATOM     13  C   UNL     1       6.332   5.482  16.966  0.00  0.00    +0.000 A 
ATOM     14  C   UNL     1       6.957   5.141  18.154  0.00  0.00    +0.000 A 
ATOM     15  F   UNL     1       8.212   4.690  18.164  0.00  0.00    +0.000 F 
ATOM     16  C   UNL     1       6.277   5.271  19.361  0.00  0.00    +0.000 A 
ATOM     17  C   UNL     1       4.968   5.765  19.360  0.00  0.00    +0.000 A 
ATOM     18  C   UNL     1       4.335   6.130  18.154  0.00  0.00    +0.000 A 
ATOM     19  C   UNL     1       5.026   5.951  16.955  0.00  0.00    +0.000 A 
ATOM     20  F   UNL     1       4.419   6.238  15.793  0.00  0.00    +0.000 F 
BRANCH  13  22
ATOM     21  C   UNL     1       7.601   5.277  14.759  0.00  0.00    +0.000 C 
ATOM     22  N   UNL     1       7.023   5.362  15.771  0.00  0.00    +0.000 NA
ENDBRANCH  13  22
ENDBRANCH   1  18
BRANCH   7  23
ATOM     23  C   UNL     1       0.359  12.940  19.794  0.00  0.00    +0.000 C 
BRANCH  23  24
ATOM     24  C   UNL     1       1.460  13.970  19.845  0.00  0.00    +0.000 A 
ATOM     25  C   UNL     1       1.196  15.273  20.279  0.00  0.00    +0.000 A 
ATOM     26  C   UNL     1       2.225  16.213  20.336  0.00  0.00    +0.000 A 
ATOM     27  C   UNL     1       3.504  15.821  19.951  0.00  0.00    +0.000 A 
ATOM     28  N   UNL     1       4.551  16.770  19.950  0.00  0.00    +0.000 N 
ATOM     29  C   UNL     1       5.857  16.568  19.593  0.00  0.00    +0.000 A 
ATOM     30  N   UNL     1       6.509  17.706  19.680  0.00  0.00    +0.000 NA
ATOM     31  N   UNL     1       5.588  18.631  20.105  0.00  0.00    +0.000 NA
ATOM     32  N   UNL     1       4.396  18.074  20.278  0.00  0.00    +0.000 NA
ATOM     33  N   UNL     1       3.795  14.555  19.551  0.00  0.00    +0.000 NA
ATOM     34  C   UNL     1       2.777  13.662  19.523  0.00  0.00    +0.000 A 
ENDBRANCH  23  24
ENDBRANCH   7  23
TORSDOF 4
ENDMDL
MODEL 5
REMARK VINA RESULT:      -7.7      1.838      2.284
REMARK  Name = 
REMARK  4 active torsions:
REMARK  status: ('A' for Active; 'I' for Inactive)
REMARK    1  A    between atoms: N_2  and  C_3
REMARK    2  A    between atoms: C_8  and  C_9
REMARK    3  A    between atoms: C_15  and  C_17
REMARK    4  A    between atoms: C_17  and  C_18
REMARK                            x       y       z     vdW  Elec       q    Type
REMARK                         _______ _______ _______ _____ _____    ______ ____
ROOT
ATOM      1  C   UNL     1       2.960   6.632  18.074  0.00  0.00    +0.000 C 
ATOM      2  C   UNL     1       2.353   6.646  19.512  0.00  0.00    +0.000 C 
ATOM      3  N   UNL     1       1.417   7.725  19.843  0.00  0.00    +0.000 NA
ATOM      4  C   UNL     1       1.431   8.081  21.281  0.00  0.00    +0.000 C 
ATOM      5  C   UNL     1       0.276   9.056  21.598  0.00  0.00    +0.000 C 
ATOM      6  N   UNL     1       0.264  10.211  20.682  0.00  0.00    +0.000 N 
ATOM      7  C   UNL     1       0.250  11.496  21.193  0.00  0.00    +0.000 C 
ATOM      8  O   UNL     1       0.293  11.724  22.402  0.00  0.00    +0.000 OA
ATOM      9  C   UNL     1       0.379   9.853  19.261  0.00  0.00    +0.000 C 
ATOM     10  C   UNL     1       1.610   8.956  19.048  0.00  0.00    +0.000 C 
ATOM     11  C   UNL     1       1.814   8.633  17.570  0.00  0.00    +0.000 C 
ATOM     12  O   UNL     1       3.040   7.916  17.436  0.00  0.00    +0.000 OA
ENDROOT
BRANCH   1  18
ATOM     13  C   UNL     1       6.385   5.430  16.959  0.00  0.00    +0.000 A 
ATOM     14  C   UNL     1       6.999   5.119  18.161  0.00  0.00    +0.000 A 
ATOM     15  F   UNL     1       8.257   4.678  18.194  0.00  0.00    +0.000 F 
ATOM     16  C   UNL     1       6.305   5.268  19.356  0.00  0.00    +0.000 A 
ATOM     17  C   UNL     1       4.992   5.752  19.331  0.00  0.00    +0.000 A 
ATOM     18  C   UNL     1       4.370   6.087  18.111  0.00  0.00    +0.000 A 
ATOM     19  C   UNL     1       5.076   5.888  16.923  0.00  0.00    +0.000 A 
ATOM     20  F   UNL     1       4.480   6.147  15.749  0.00  0.00    +0.000 F 
BRANCH  13  22
ATOM     21  C   UNL     1       7.688   5.190  14.775  0.00  0.00    +0.000 C 
ATOM     22  N   UNL     1       7.090   5.291  15.774  0.00  0.00    +0.000 NA
ENDBRANCH  13  22
ENDBRANCH   1  18
BRANCH   7  23
ATOM     23  C   UNL     1       0.214  12.660  20.209  0.00  0.00    +0.000 C 
BRANCH  23  24
ATOM     24  C   UNL     1       1.565  13.276  19.940  0.00  0.00    +0.000 A 
ATOM     25  C   UNL     1       2.244  13.971  20.947  0.00  0.00    +0.000 A 
ATOM     26  C   UNL     1       3.498  14.524  20.691  0.00  0.00    +0.000 A 
ATOM     27  C   UNL     1       4.046  14.369  19.420  0.00  0.00    +0.000 A 
ATOM     28  N   UNL     1       5.291  14.966  19.121  0.00  0.00    +0.000 N 
ATOM     29  C   UNL     1       5.969  14.929  17.933  0.00  0.00    +0.000 A 
ATOM     30  N   UNL     1       7.065  15.645  18.039  0.00  0.00    +0.000 NA
ATOM     31  N   UNL     1       7.070  16.130  19.323  0.00  0.00    +0.000 NA
ATOM     32  N   UNL     1       6.001  15.721  19.993  0.00  0.00    +0.000 NA
ATOM     33  N   UNL     1       3.421  13.676  18.431  0.00  0.00    +0.000 NA
ATOM     34  C   UNL     1       2.212  13.137  18.717  0.00  0.00    +0.000 A 
ENDBRANCH  23  24
ENDBRANCH   7  23
TORSDOF 4
ENDMDL
MODEL 6
REMARK VINA RESULT:      -7.5      5.706     10.399
REMARK  Name = 
REMARK  4 active torsions:
REMARK  status: ('A' for Active; 'I' for Inactive)
REMARK    1  A    between atoms: N_2  and  C_3
REMARK    2  A    between atoms: C_8  and  C_9
REMARK    3  A    between atoms: C_15  and  C_17
REMARK    4  A    between atoms: C_17  and  C_18
REMARK                            x       y       z     vdW  Elec       q    Type
REMARK                         _______ _______ _______ _____ _____    ______ ____
ROOT
ATOM      1  C   UNL     1      -1.773  13.393  21.940  0.00  0.00    +0.000 C 
ATOM      2  C   UNL     1      -1.178  12.320  22.905  0.00  0.00    +0.000 C 
ATOM      3  N   UNL     1      -0.163  11.410  22.366  0.00  0.00    +0.000 NA
ATOM      4  C   UNL     1      -0.160  10.087  23.031  0.00  0.00    +0.000 C 
ATOM      5  C   UNL     1       1.066   9.266  22.576  0.00  0.00    +0.000 C 
ATOM      6  N   UNL     1       1.177   9.211  21.107  0.00  0.00    +0.000 N 
ATOM      7  C   UNL     1       1.288   7.990  20.469  0.00  0.00    +0.000 C 
ATOM      8  O   UNL     1       1.254   6.922  21.080  0.00  0.00    +0.000 OA
ATOM      9  C   UNL     1       1.046  10.517  20.445  0.00  0.00    +0.000 C 
ATOM     10  C   UNL     1      -0.251  11.206  20.904  0.00  0.00    +0.000 C 
ATOM     11  C   UNL     1      -0.467  12.528  20.174  0.00  0.00    +0.000 C 
ATOM     12  O   UNL     1      -1.745  13.040  20.548  0.00  0.00    +0.000 OA
ENDROOT
BRANCH   1  18
ATOM     13  C   UNL     1      -4.912  15.069  23.266  0.00  0.00    +0.000 A 
ATOM     14  C   UNL     1      -5.906  14.181  22.891  0.00  0.00    +0.000 A 
ATOM     15  F   UNL     1      -7.188  14.434  23.158  0.00  0.00    +0.000 F 
ATOM     16  C   UNL     1      -5.575  13.007  22.224  0.00  0.00    +0.000 A 
ATOM     17  C   UNL     1      -4.234  12.745  21.920  0.00  0.00    +0.000 A 
ATOM     18  C   UNL     1      -3.222  13.656  22.284  0.00  0.00    +0.000 A 
ATOM     19  C   UNL     1      -3.578  14.806  22.989  0.00  0.00    +0.000 A 
ATOM     20  F   UNL     1      -2.621  15.656  23.394  0.00  0.00    +0.000 F 
BRANCH  13  22
ATOM     21  C   UNL     1      -5.543  17.225  24.482  0.00  0.00    +0.000 C 
ATOM     22  N   UNL     1      -5.253  16.243  23.918  0.00  0.00    +0.000 NA
ENDBRANCH  13  22
ENDBRANCH   1  18
BRANCH   7  23
ATOM     23  C   UNL     1       1.424   7.983  18.950  0.00  0.00    +0.000 C 
BRANCH  23  24
ATOM     24  C   UNL     1       2.698   7.345  18.452  0.00  0.00    +0.000 A 
ATOM     25  C   UNL     1       3.292   7.776  17.262  0.00  0.00    +0.000 A 
ATOM     26  C   UNL     1       4.477   7.189  16.819  0.00  0.00    +0.000 A 
ATOM     27  C   UNL     1       5.041   6.173  17.586  0.00  0.00    +0.000 A 
ATOM     28  N   UNL     1       6.213   5.527  17.130  0.00  0.00    +0.000 N 
ATOM     29  C   UNL     1       6.893   4.508  17.741  0.00  0.00    +0.000 A 
ATOM     30  N   UNL     1       7.902   4.147  16.981  0.00  0.00    +0.000 NA
ATOM     31  N   UNL     1       7.849   4.964  15.879  0.00  0.00    +0.000 NA
ATOM     32  N   UNL     1       6.831   5.810  15.960  0.00  0.00    +0.000 NA
ATOM     33  N   UNL     1       4.500   5.752  18.760  0.00  0.00    +0.000 NA
ATOM     34  C   UNL     1       3.359   6.354  19.171  0.00  0.00    +0.000 A 
ENDBRANCH  23  24
ENDBRANCH   7  23
TORSDOF 4
ENDMDL
MODEL 7
REMARK VINA RESULT:      -7.4      4.568      6.601
REMARK  Name = 
REMARK  4 active torsions:
REMARK  status: ('A' for Active; 'I' for Inactive)
REMARK    1  A    between atoms: N_2  and  C_3
REMARK    2  A    between atoms: C_8  and  C_9
REMARK    3  A    between atoms: C_15  and  C_17
REMARK    4  A    between atoms: C_17  and  C_18
REMARK                            x       y       z     vdW  Elec       q    Type
REMARK                         _______ _______ _______ _____ _____    ______ ____
ROOT
ATOM      1  C   UNL     1       2.552   7.290  19.705  0.00  0.00    +0.000 C 
ATOM      2  C   UNL     1       2.102   8.419  18.725  0.00  0.00    +0.000 C 
ATOM      3  N   UNL     1       1.411   9.579  19.297  0.00  0.00    +0.000 NA
ATOM      4  C   UNL     1       0.459  10.208  18.353  0.00  0.00    +0.000 C 
ATOM      5  C   UNL     1      -0.062  11.541  18.933  0.00  0.00    +0.000 C 
ATOM      6  N   UNL     1      -0.578  11.379  20.304  0.00  0.00    +0.000 N 
ATOM      7  C   UNL     1      -1.851  11.818  20.618  0.00  0.00    +0.000 C 
ATOM      8  O   UNL     1      -2.606  12.307  19.777  0.00  0.00    +0.000 OA
ATOM      9  C   UNL     1       0.321  10.641  21.203  0.00  0.00    +0.000 C 
ATOM     10  C   UNL     1       0.704   9.294  20.565  0.00  0.00    +0.000 C 
ATOM     11  C   UNL     1       1.569   8.460  21.505  0.00  0.00    +0.000 C 
ATOM     12  O   UNL     1       1.771   7.181  20.905  0.00  0.00    +0.000 OA
ENDROOT
BRANCH   1  18
ATOM     13  C   UNL     1       3.393   4.316  17.498  0.00  0.00    +0.000 A 
ATOM     14  C   UNL     1       2.360   3.437  17.774  0.00  0.00    +0.000 A 
ATOM     15  F   UNL     1       2.312   2.234  17.201  0.00  0.00    +0.000 F 
ATOM     16  C   UNL     1       1.354   3.802  18.663  0.00  0.00    +0.000 A 
ATOM     17  C   UNL     1       1.410   5.054  19.286  0.00  0.00    +0.000 A 
ATOM     18  C   UNL     1       2.470   5.944  19.020  0.00  0.00    +0.000 A 
ATOM     19  C   UNL     1       3.444   5.569  18.094  0.00  0.00    +0.000 A 
ATOM     20  F   UNL     1       4.429   6.427  17.785  0.00  0.00    +0.000 F 
BRANCH  13  22
ATOM     21  C   UNL     1       5.254   3.614  15.895  0.00  0.00    +0.000 C 
ATOM     22  N   UNL     1       4.398   3.939  16.622  0.00  0.00    +0.000 NA
ENDBRANCH  13  22
ENDBRANCH   1  18
BRANCH   7  23
ATOM     23  C   UNL     1      -2.335  11.652  22.054  0.00  0.00    +0.000 C 
BRANCH  23  24
ATOM     24  C   UNL     1      -2.744  12.945  22.716  0.00  0.00    +0.000 A 
ATOM     25  C   UNL     1      -1.779  13.818  23.230  0.00  0.00    +0.000 A 
ATOM     26  C   UNL     1      -2.169  15.017  23.827  0.00  0.00    +0.000 A 
ATOM     27  C   UNL     1      -3.527  15.314  23.897  0.00  0.00    +0.000 A 
ATOM     28  N   UNL     1      -3.948  16.497  24.545  0.00  0.00    +0.000 N 
ATOM     29  C   UNL     1      -5.232  16.939  24.719  0.00  0.00    +0.000 A 
ATOM     30  N   UNL     1      -5.213  18.055  25.412  0.00  0.00    +0.000 NA
ATOM     31  N   UNL     1      -3.889  18.312  25.668  0.00  0.00    +0.000 NA
ATOM     32  N   UNL     1      -3.110  17.376  25.142  0.00  0.00    +0.000 NA
ATOM     33  N   UNL     1      -4.484  14.497  23.383  0.00  0.00    +0.000 NA
ATOM     34  C   UNL     1      -4.073  13.348  22.795  0.00  0.00    +0.000 A 
ENDBRANCH  23  24
ENDBRANCH   7  23
TORSDOF 4
ENDMDL
MODEL 8
REMARK VINA RESULT:      -7.4      4.546      5.900
REMARK  Name = 
REMARK  4 active torsions:
REMARK  status: ('A' for Active; 'I' for Inactive)
REMARK    1  A    between atoms: N_2  and  C_3
REMARK    2  A    between atoms: C_8  and  C_9
REMARK    3  A    between atoms: C_15  and  C_17
REMARK    4  A    between atoms: C_17  and  C_18
REMARK                            x       y       z     vdW  Elec       q    Type
REMARK                         _______ _______ _______ _____ _____    ______ ____
ROOT
ATOM      1  C   UNL     1       2.541   7.322  19.624  0.00  0.00    +0.000 C 
ATOM      2  C   UNL     1       2.135   8.448  18.622  0.00  0.00    +0.000 C 
ATOM      3  N   UNL     1       1.430   9.616  19.161  0.00  0.00    +0.000 NA
ATOM      4  C   UNL     1       0.517  10.245  18.179  0.00  0.00    +0.000 C 
ATOM      5  C   UNL     1      -0.016  11.584  18.731  0.00  0.00    +0.000 C 
ATOM      6  N   UNL     1      -0.584  11.435  20.083  0.00  0.00    +0.000 N 
ATOM      7  C   UNL     1      -1.865  11.883  20.347  0.00  0.00    +0.000 C 
ATOM      8  O   UNL     1      -2.584  12.372  19.475  0.00  0.00    +0.000 OA
ATOM      9  C   UNL     1       0.277  10.696  21.018  0.00  0.00    +0.000 C 
ATOM     10  C   UNL     1       0.674   9.344  20.403  0.00  0.00    +0.000 C 
ATOM     11  C   UNL     1       1.499   8.509  21.379  0.00  0.00    +0.000 C 
ATOM     12  O   UNL     1       1.715   7.226  20.795  0.00  0.00    +0.000 OA
ENDROOT
BRANCH   1  18
ATOM     13  C   UNL     1       3.429   4.343  17.444  0.00  0.00    +0.000 A 
ATOM     14  C   UNL     1       2.396   3.460  17.709  0.00  0.00    +0.000 A 
ATOM     15  F   UNL     1       2.363   2.254  17.141  0.00  0.00    +0.000 F 
ATOM     16  C   UNL     1       1.376   3.823  18.581  0.00  0.00    +0.000 A 
ATOM     17  C   UNL     1       1.416   5.079  19.198  0.00  0.00    +0.000 A 
ATOM     18  C   UNL     1       2.476   5.973  18.944  0.00  0.00    +0.000 A 
ATOM     19  C   UNL     1       3.465   5.599  18.034  0.00  0.00    +0.000 A 
ATOM     20  F   UNL     1       4.450   6.460  17.737  0.00  0.00    +0.000 F 
BRANCH  13  22
ATOM     21  C   UNL     1       5.307   3.633  15.865  0.00  0.00    +0.000 C 
ATOM     22  N   UNL     1       4.449   3.966  16.585  0.00  0.00    +0.000 NA
ENDBRANCH  13  22
ENDBRANCH   1  18
BRANCH   7  23
ATOM     23  C   UNL     1      -2.402  11.729  21.765  0.00  0.00    +0.000 C 
BRANCH  23  24
ATOM     24  C   UNL     1      -2.302  12.983  22.598  0.00  0.00    +0.000 A 
ATOM     25  C   UNL     1      -3.429  13.779  22.827  0.00  0.00    +0.000 A 
ATOM     26  C   UNL     1      -3.327  14.928  23.610  0.00  0.00    +0.000 A 
ATOM     27  C   UNL     1      -2.087  15.256  24.149  0.00  0.00    +0.000 A 
ATOM     28  N   UNL     1      -1.947  16.444  24.901  0.00  0.00    +0.000 N 
ATOM     29  C   UNL     1      -0.810  16.928  25.490  0.00  0.00    +0.000 A 
ATOM     30  N   UNL     1      -1.077  18.083  26.057  0.00  0.00    +0.000 NA
ATOM     31  N   UNL     1      -2.409  18.316  25.819  0.00  0.00    +0.000 NA
ATOM     32  N   UNL     1      -2.950  17.326  25.123  0.00  0.00    +0.000 NA
ATOM     33  N   UNL     1      -0.980  14.488  23.965  0.00  0.00    +0.000 NA
ATOM     34  C   UNL     1      -1.116  13.369  23.214  0.00  0.00    +0.000 A 
ENDBRANCH  23  24
ENDBRANCH   7  23
TORSDOF 4
ENDMDL
MODEL 9
REMARK VINA RESULT:      -7.4      2.722      4.553
REMARK  Name = 
REMARK  4 active torsions:
REMARK  status: ('A' for Active; 'I' for Inactive)
REMARK    1  A    between atoms: N_2  and  C_3
REMARK    2  A    between atoms: C_8  and  C_9
REMARK    3  A    between atoms: C_15  and  C_17
REMARK    4  A    between atoms: C_17  and  C_18
REMARK                            x       y       z     vdW  Elec       q    Type
REMARK                         _______ _______ _______ _____ _____    ______ ____
ROOT
ATOM      1  C   UNL     1       1.234  10.617  18.723  0.00  0.00    +0.000 C 
ATOM      2  C   UNL     1       0.872  11.616  19.867  0.00  0.00    +0.000 C 
ATOM      3  N   UNL     1       1.318  13.005  19.721  0.00  0.00    +0.000 NA
ATOM      4  C   UNL     1       1.564  13.673  21.020  0.00  0.00    +0.000 C 
ATOM      5  C   UNL     1       1.810  15.182  20.804  0.00  0.00    +0.000 C 
ATOM      6  N   UNL     1       2.845  15.430  19.784  0.00  0.00    +0.000 N 
ATOM      7  C   UNL     1       3.923  16.244  20.078  0.00  0.00    +0.000 C 
ATOM      8  O   UNL     1       4.084  16.746  21.191  0.00  0.00    +0.000 OA
ATOM      9  C   UNL     1       2.662  14.664  18.542  0.00  0.00    +0.000 C 
ATOM     10  C   UNL     1       2.516  13.168  18.870  0.00  0.00    +0.000 C 
ATOM     11  C   UNL     1       2.410  12.329  17.600  0.00  0.00    +0.000 C 
ATOM     12  O   UNL     1       2.413  10.952  17.975  0.00  0.00    +0.000 OA
ENDROOT
BRANCH   1  18
ATOM     13  C   UNL     1       2.315   6.991  19.045  0.00  0.00    +0.000 A 
ATOM     14  C   UNL     1       1.955   6.686  20.347  0.00  0.00    +0.000 A 
ATOM     15  F   UNL     1       2.202   5.481  20.863  0.00  0.00    +0.000 F 
ATOM     16  C   UNL     1       1.331   7.643  21.139  0.00  0.00    +0.000 A 
ATOM     17  C   UNL     1       1.089   8.918  20.613  0.00  0.00    +0.000 A 
ATOM     18  C   UNL     1       1.470   9.236  19.294  0.00  0.00    +0.000 A 
ATOM     19  C   UNL     1       2.058   8.245  18.508  0.00  0.00    +0.000 A 
ATOM     20  F   UNL     1       2.375   8.513  17.232  0.00  0.00    +0.000 F 
BRANCH  13  22
ATOM     21  C   UNL     1       3.499   5.232  17.621  0.00  0.00    +0.000 C 
ATOM     22  N   UNL     1       2.949   6.035  18.269  0.00  0.00    +0.000 NA
ENDBRANCH  13  22
ENDBRANCH   1  18
BRANCH   7  23
ATOM     23  C   UNL     1       4.957  16.491  18.986  0.00  0.00    +0.000 C 
BRANCH  23  24
ATOM     24  C   UNL     1       6.130  15.542  19.026  0.00  0.00    +0.000 A 
ATOM     25  C   UNL     1       6.491  14.807  17.892  0.00  0.00    +0.000 A 
ATOM     26  C   UNL     1       7.585  13.944  17.938  0.00  0.00    +0.000 A 
ATOM     27  C   UNL     1       8.296  13.836  19.129  0.00  0.00    +0.000 A 
ATOM     28  N   UNL     1       9.376  12.928  19.215  0.00  0.00    +0.000 N 
ATOM     29  C   UNL     1      10.173  12.682  20.301  0.00  0.00    +0.000 A 
ATOM     30  N   UNL     1      11.033  11.737  19.999  0.00  0.00    +0.000 NA
ATOM     31  N   UNL     1      10.767  11.394  18.696  0.00  0.00    +0.000 NA
ATOM     32  N   UNL     1       9.767  12.114  18.207  0.00  0.00    +0.000 NA
ATOM     33  N   UNL     1       7.985  14.558  20.239  0.00  0.00    +0.000 NA
ATOM     34  C   UNL     1       6.927  15.399  20.157  0.00  0.00    +0.000 A 
ENDBRANCH  23  24
ENDBRANCH   7  23
TORSDOF 4
ENDMDL
