MODEL 1
REMARK VINA RESULT:      -6.2      0.000      0.000
REMARK  Name = 
REMARK  2 active torsions:
REMARK  status: ('A' for Active; 'I' for Inactive)
REMARK    1  A    between atoms: C_1  and  C_2
REMARK    2  A    between atoms: N_14  and  C_15
REMARK                            x       y       z     vdW  Elec       q    Type
REMARK                         _______ _______ _______ _____ _____    ______ ____
ROOT
ATOM      1  C   UNL     1       1.811   2.131  18.610  0.00  0.00    +0.000 C 
ATOM      2  C   UNL     1       2.058   3.593  18.799  0.00  0.00    +0.000 A 
ATOM      3  C   UNL     1       2.637   4.073  19.957  0.00  0.00    +0.000 A 
ATOM      4  C   UNL     1       2.732   5.451  20.132  0.00  0.00    +0.000 A 
ATOM      5  C   UNL     1       2.246   6.331  19.164  0.00  0.00    +0.000 A 
ATOM      6  N   UNL     1       2.295   7.706  19.394  0.00  0.00    +0.000 N 
ATOM      7  C   UNL     1       2.292   8.608  18.238  0.00  0.00    +0.000 C 
ATOM      8  C   UNL     1       0.950   9.330  18.035  0.00  0.00    +0.000 C 
ATOM      9  C   UNL     1       0.366   9.953  19.331  0.00  0.00    +0.000 C 
ATOM     10  C   UNL     1       0.317   8.814  20.376  0.00  0.00    +0.000 C 
ATOM     11  C   UNL     1       1.689   8.189  20.635  0.00  0.00    +0.000 C 
ATOM     12  C   UNL     1       1.235  11.126  19.859  0.00  0.00    +0.000 C 
ATOM     13  C   UNL     1       1.014  12.453  19.119  0.00  0.00    +0.000 C 
ATOM     14  N   UNL     1      -0.394  12.888  19.071  0.00  0.00    +0.000 NA
ATOM     15  C   UNL     1      -1.165  11.828  18.402  0.00  0.00    +0.000 C 
ATOM     16  C   UNL     1      -1.084  10.462  19.094  0.00  0.00    +0.000 C 
ATOM     17  N   UNL     1       1.751   5.813  18.022  0.00  0.00    +0.000 NA
ATOM     18  N   UNL     1       1.642   4.441  17.839  0.00  0.00    +0.000 NA
ENDROOT
BRANCH  14  19
ATOM     19  C   UNL     1      -0.910  13.310  20.402  0.00  0.00    +0.000 C 
ATOM     20  C   UNL     1      -2.093  14.276  20.405  0.00  0.00    +0.000 C 
ATOM     21  C   UNL     1      -1.464  15.648  20.367  0.00  0.00    +0.000 C 
ATOM     22  O   UNL     1      -0.211  15.549  21.046  0.00  0.00    +0.000 OA
ATOM     23  C   UNL     1       0.106  14.157  21.204  0.00  0.00    +0.000 C 
ENDBRANCH  14  19
TORSDOF 1
ENDMDL
MODEL 2
REMARK VINA RESULT:      -5.5      5.811      7.836
REMARK  Name = 
REMARK  2 active torsions:
REMARK  status: ('A' for Active; 'I' for Inactive)
REMARK    1  A    between atoms: C_1  and  C_2
REMARK    2  A    between atoms: N_14  and  C_15
REMARK                            x       y       z     vdW  Elec       q    Type
REMARK                         _______ _______ _______ _____ _____    ______ ____
ROOT
ATOM      1  C   UNL     1      -7.541  12.856  23.839  0.00  0.00    +0.000 C 
ATOM      2  C   UNL     1      -6.090  12.638  23.550  0.00  0.00    +0.000 A 
ATOM      3  C   UNL     1      -5.156  12.631  24.567  0.00  0.00    +0.000 A 
ATOM      4  C   UNL     1      -3.807  12.546  24.232  0.00  0.00    +0.000 A 
ATOM      5  C   UNL     1      -3.405  12.480  22.897  0.00  0.00    +0.000 A 
ATOM      6  N   UNL     1      -2.044  12.462  22.586  0.00  0.00    +0.000 N 
ATOM      7  C   UNL     1      -1.628  11.881  21.307  0.00  0.00    +0.000 C 
ATOM      8  C   UNL     1      -1.203  12.934  20.270  0.00  0.00    +0.000 C 
ATOM      9  C   UNL     1      -0.234  14.011  20.826  0.00  0.00    +0.000 C 
ATOM     10  C   UNL     1      -0.917  14.601  22.083  0.00  0.00    +0.000 C 
ATOM     11  C   UNL     1      -1.228  13.542  23.141  0.00  0.00    +0.000 C 
ATOM     12  C   UNL     1       1.150  13.415  21.200  0.00  0.00    +0.000 C 
ATOM     13  C   UNL     1       2.082  13.193  20.000  0.00  0.00    +0.000 C 
ATOM     14  N   UNL     1       2.289  14.394  19.168  0.00  0.00    +0.000 NA
ATOM     15  C   UNL     1       0.970  14.830  18.682  0.00  0.00    +0.000 C 
ATOM     16  C   UNL     1      -0.032  15.156  19.795  0.00  0.00    +0.000 C 
ATOM     17  N   UNL     1      -4.357  12.423  21.945  0.00  0.00    +0.000 NA
ATOM     18  N   UNL     1      -5.705  12.516  22.265  0.00  0.00    +0.000 NA
ENDROOT
BRANCH  14  19
ATOM     19  C   UNL     1       3.093  15.438  19.859  0.00  0.00    +0.000 C 
ATOM     20  C   UNL     1       3.678  16.544  18.983  0.00  0.00    +0.000 C 
ATOM     21  C   UNL     1       5.016  16.007  18.534  0.00  0.00    +0.000 C 
ATOM     22  O   UNL     1       5.492  15.156  19.578  0.00  0.00    +0.000 OA
ATOM     23  C   UNL     1       4.402  14.888  20.473  0.00  0.00    +0.000 C 
ENDBRANCH  14  19
TORSDOF 1
ENDMDL
MODEL 3
REMARK VINA RESULT:      -5.5      3.447      8.661
REMARK  Name = 
REMARK  2 active torsions:
REMARK  status: ('A' for Active; 'I' for Inactive)
REMARK    1  A    between atoms: C_1  and  C_2
REMARK    2  A    between atoms: N_14  and  C_15
REMARK                            x       y       z     vdW  Elec       q    Type
REMARK                         _______ _______ _______ _____ _____    ______ ____
ROOT
ATOM      1  C   UNL     1       1.593  15.035  20.552  0.00  0.00    +0.000 C 
ATOM      2  C   UNL     1       1.276  13.645  20.100  0.00  0.00    +0.000 A 
ATOM      3  C   UNL     1       0.243  12.930  20.674  0.00  0.00    +0.000 A 
ATOM      4  C   UNL     1       0.068  11.600  20.302  0.00  0.00    +0.000 A 
ATOM      5  C   UNL     1       0.922  10.997  19.377  0.00  0.00    +0.000 A 
ATOM      6  N   UNL     1       0.765   9.644  19.071  0.00  0.00    +0.000 N 
ATOM      7  C   UNL     1       1.267   9.157  17.783  0.00  0.00    +0.000 C 
ATOM      8  C   UNL     1       2.555   8.328  17.908  0.00  0.00    +0.000 C 
ATOM      9  C   UNL     1       2.506   7.248  19.023  0.00  0.00    +0.000 C 
ATOM     10  C   UNL     1       2.101   7.985  20.322  0.00  0.00    +0.000 C 
ATOM     11  C   UNL     1       0.761   8.711  20.198  0.00  0.00    +0.000 C 
ATOM     12  C   UNL     1       1.482   6.125  18.704  0.00  0.00    +0.000 C 
ATOM     13  C   UNL     1       1.994   5.075  17.708  0.00  0.00    +0.000 C 
ATOM     14  N   UNL     1       3.277   4.456  18.091  0.00  0.00    +0.000 NA
ATOM     15  C   UNL     1       4.272   5.534  18.211  0.00  0.00    +0.000 C 
ATOM     16  C   UNL     1       3.908   6.612  19.237  0.00  0.00    +0.000 C 
ATOM     17  N   UNL     1       1.872  11.757  18.796  0.00  0.00    +0.000 NA
ATOM     18  N   UNL     1       2.063  13.081  19.165  0.00  0.00    +0.000 NA
ENDROOT
BRANCH  14  19
ATOM     19  C   UNL     1       3.152   3.566  19.277  0.00  0.00    +0.000 C 
ATOM     20  C   UNL     1       4.217   2.483  19.436  0.00  0.00    +0.000 C 
ATOM     21  C   UNL     1       3.675   1.302  18.665  0.00  0.00    +0.000 C 
ATOM     22  O   UNL     1       2.251   1.370  18.749  0.00  0.00    +0.000 OA
ATOM     23  C   UNL     1       1.891   2.673  19.234  0.00  0.00    +0.000 C 
ENDBRANCH  14  19
TORSDOF 1
ENDMDL
MODEL 4
REMARK VINA RESULT:      -5.4      7.291      9.912
REMARK  Name = 
REMARK  2 active torsions:
REMARK  status: ('A' for Active; 'I' for Inactive)
REMARK    1  A    between atoms: C_1  and  C_2
REMARK    2  A    between atoms: N_14  and  C_15
REMARK                            x       y       z     vdW  Elec       q    Type
REMARK                         _______ _______ _______ _____ _____    ______ ____
ROOT
ATOM      1  C   UNL     1      -0.277  11.543  20.407  0.00  0.00    +0.000 C 
ATOM      2  C   UNL     1       0.713  12.653  20.248  0.00  0.00    +0.000 A 
ATOM      3  C   UNL     1       0.552  13.614  19.269  0.00  0.00    +0.000 A 
ATOM      4  C   UNL     1       1.564  14.552  19.085  0.00  0.00    +0.000 A 
ATOM      5  C   UNL     1       2.721  14.519  19.865  0.00  0.00    +0.000 A 
ATOM      6  N   UNL     1       3.748  15.430  19.617  0.00  0.00    +0.000 N 
ATOM      7  C   UNL     1       4.678  15.748  20.704  0.00  0.00    +0.000 C 
ATOM      8  C   UNL     1       6.063  15.105  20.527  0.00  0.00    +0.000 C 
ATOM      9  C   UNL     1       6.662  15.279  19.105  0.00  0.00    +0.000 C 
ATOM     10  C   UNL     1       5.591  14.756  18.117  0.00  0.00    +0.000 C 
ATOM     11  C   UNL     1       4.257  15.491  18.246  0.00  0.00    +0.000 C 
ATOM     12  C   UNL     1       7.001  16.761  18.790  0.00  0.00    +0.000 C 
ATOM     13  C   UNL     1       8.320  17.247  19.407  0.00  0.00    +0.000 C 
ATOM     14  N   UNL     1       9.486  16.410  19.070  0.00  0.00    +0.000 NA
ATOM     15  C   UNL     1       9.205  15.045  19.543  0.00  0.00    +0.000 C 
ATOM     16  C   UNL     1       7.945  14.418  18.937  0.00  0.00    +0.000 C 
ATOM     17  N   UNL     1       2.800  13.603  20.852  0.00  0.00    +0.000 NA
ATOM     18  N   UNL     1       1.802  12.656  21.039  0.00  0.00    +0.000 NA
ENDROOT
BRANCH  14  19
ATOM     19  C   UNL     1       9.878  16.522  17.639  0.00  0.00    +0.000 C 
ATOM     20  C   UNL     1      10.969  15.572  17.150  0.00  0.00    +0.000 C 
ATOM     21  C   UNL     1      12.262  16.306  17.419  0.00  0.00    +0.000 C 
ATOM     22  O   UNL     1      11.978  17.701  17.299  0.00  0.00    +0.000 OA
ATOM     23  C   UNL     1      10.552  17.872  17.299  0.00  0.00    +0.000 C 
ENDBRANCH  14  19
TORSDOF 1
ENDMDL
MODEL 5
REMARK VINA RESULT:      -5.3      6.897      8.345
REMARK  Name = 
REMARK  2 active torsions:
REMARK  status: ('A' for Active; 'I' for Inactive)
REMARK    1  A    between atoms: C_1  and  C_2
REMARK    2  A    between atoms: N_14  and  C_15
REMARK                            x       y       z     vdW  Elec       q    Type
REMARK                         _______ _______ _______ _____ _____    ______ ____
ROOT
ATOM      1  C   UNL     1      11.970  11.826  19.574  0.00  0.00    +0.000 C 
ATOM      2  C   UNL     1      10.903  12.835  19.292  0.00  0.00    +0.000 A 
ATOM      3  C   UNL     1      10.908  14.069  19.912  0.00  0.00    +0.000 A 
ATOM      4  C   UNL     1       9.827  14.922  19.707  0.00  0.00    +0.000 A 
ATOM      5  C   UNL     1       8.755  14.537  18.901  0.00  0.00    +0.000 A 
ATOM      6  N   UNL     1       7.654  15.384  18.765  0.00  0.00    +0.000 N 
ATOM      7  C   UNL     1       6.815  15.253  17.570  0.00  0.00    +0.000 C 
ATOM      8  C   UNL     1       5.462  14.578  17.849  0.00  0.00    +0.000 C 
ATOM      9  C   UNL     1       4.720  15.143  19.090  0.00  0.00    +0.000 C 
ATOM     10  C   UNL     1       5.720  15.062  20.268  0.00  0.00    +0.000 C 
ATOM     11  C   UNL     1       7.013  15.834  20.001  0.00  0.00    +0.000 C 
ATOM     12  C   UNL     1       4.261  16.611  18.879  0.00  0.00    +0.000 C 
ATOM     13  C   UNL     1       2.980  16.754  18.045  0.00  0.00    +0.000 C 
ATOM     14  N   UNL     1       1.840  15.967  18.554  0.00  0.00    +0.000 NA
ATOM     15  C   UNL     1       2.249  14.554  18.573  0.00  0.00    +0.000 C 
ATOM     16  C   UNL     1       3.483  14.270  19.438  0.00  0.00    +0.000 C 
ATOM     17  N   UNL     1       8.828  13.351  18.264  0.00  0.00    +0.000 NA
ATOM     18  N   UNL     1       9.896  12.487  18.467  0.00  0.00    +0.000 NA
ENDROOT
BRANCH  14  19
ATOM     19  C   UNL     1       1.306  16.495  19.838  0.00  0.00    +0.000 C 
ATOM     20  C   UNL     1       0.243  15.651  20.538  0.00  0.00    +0.000 C 
ATOM     21  C   UNL     1      -1.066  16.129  19.956  0.00  0.00    +0.000 C 
ATOM     22  O   UNL     1      -0.894  17.509  19.628  0.00  0.00    +0.000 OA
ATOM     23  C   UNL     1       0.509  17.810  19.668  0.00  0.00    +0.000 C 
ENDBRANCH  14  19
TORSDOF 1
ENDMDL
MODEL 6
REMARK VINA RESULT:      -5.3      5.729      8.242
REMARK  Name = 
REMARK  2 active torsions:
REMARK  status: ('A' for Active; 'I' for Inactive)
REMARK    1  A    between atoms: C_1  and  C_2
REMARK    2  A    between atoms: N_14  and  C_15
REMARK                            x       y       z     vdW  Elec       q    Type
REMARK                         _______ _______ _______ _____ _____    ______ ____
ROOT
ATOM      1  C   UNL     1      -7.849  13.025  23.125  0.00  0.00    +0.000 C 
ATOM      2  C   UNL     1      -6.365  13.205  23.176  0.00  0.00    +0.000 A 
ATOM      3  C   UNL     1      -5.805  14.320  23.769  0.00  0.00    +0.000 A 
ATOM      4  C   UNL     1      -4.426  14.498  23.681  0.00  0.00    +0.000 A 
ATOM      5  C   UNL     1      -3.628  13.578  23.002  0.00  0.00    +0.000 A 
ATOM      6  N   UNL     1      -2.258  13.814  22.873  0.00  0.00    +0.000 N 
ATOM      7  C   UNL     1      -1.369  12.669  22.653  0.00  0.00    +0.000 C 
ATOM      8  C   UNL     1      -0.846  12.575  21.210  0.00  0.00    +0.000 C 
ATOM      9  C   UNL     1      -0.308  13.917  20.646  0.00  0.00    +0.000 C 
ATOM     10  C   UNL     1      -1.440  14.954  20.840  0.00  0.00    +0.000 C 
ATOM     11  C   UNL     1      -1.863  15.102  22.302  0.00  0.00    +0.000 C 
ATOM     12  C   UNL     1       0.978  14.386  21.378  0.00  0.00    +0.000 C 
ATOM     13  C   UNL     1       2.258  13.676  20.915  0.00  0.00    +0.000 C 
ATOM     14  N   UNL     1       2.489  13.740  19.460  0.00  0.00    +0.000 NA
ATOM     15  C   UNL     1       1.328  13.124  18.798  0.00  0.00    +0.000 C 
ATOM     16  C   UNL     1      -0.010  13.796  19.125  0.00  0.00    +0.000 C 
ATOM     17  N   UNL     1      -4.214  12.472  22.499  0.00  0.00    +0.000 NA
ATOM     18  N   UNL     1      -5.588  12.287  22.571  0.00  0.00    +0.000 NA
ENDROOT
BRANCH  14  19
ATOM     19  C   UNL     1       2.837  15.110  18.994  0.00  0.00    +0.000 C 
ATOM     20  C   UNL     1       3.458  15.224  17.604  0.00  0.00    +0.000 C 
ATOM     21  C   UNL     1       4.943  15.075  17.837  0.00  0.00    +0.000 C 
ATOM     22  O   UNL     1       5.214  15.606  19.136  0.00  0.00    +0.000 OA
ATOM     23  C   UNL     1       3.964  15.764  19.826  0.00  0.00    +0.000 C 
ENDBRANCH  14  19
TORSDOF 1
ENDMDL
MODEL 7
REMARK VINA RESULT:      -5.2      1.937      3.279
REMARK  Name = 
REMARK  2 active torsions:
REMARK  status: ('A' for Active; 'I' for Inactive)
REMARK    1  A    between atoms: C_1  and  C_2
REMARK    2  A    between atoms: N_14  and  C_15
REMARK                            x       y       z     vdW  Elec       q    Type
REMARK                         _______ _______ _______ _____ _____    ______ ____
ROOT
ATOM      1  C   UNL     1       4.236   5.097  19.371  0.00  0.00    +0.000 C 
ATOM      2  C   UNL     1       3.336   6.251  19.066  0.00  0.00    +0.000 A 
ATOM      3  C   UNL     1       3.317   6.825  17.810  0.00  0.00    +0.000 A 
ATOM      4  C   UNL     1       2.552   7.972  17.613  0.00  0.00    +0.000 A 
ATOM      5  C   UNL     1       1.827   8.537  18.663  0.00  0.00    +0.000 A 
ATOM      6  N   UNL     1       1.121   9.723  18.455  0.00  0.00    +0.000 N 
ATOM      7  C   UNL     1      -0.014  10.023  19.332  0.00  0.00    +0.000 C 
ATOM      8  C   UNL     1       0.287  11.125  20.361  0.00  0.00    +0.000 C 
ATOM      9  C   UNL     1       0.976  12.379  19.758  0.00  0.00    +0.000 C 
ATOM     10  C   UNL     1       2.222  11.866  18.999  0.00  0.00    +0.000 C 
ATOM     11  C   UNL     1       1.876  10.851  17.909  0.00  0.00    +0.000 C 
ATOM     12  C   UNL     1       0.040  13.151  18.790  0.00  0.00    +0.000 C 
ATOM     13  C   UNL     1      -0.987  14.050  19.493  0.00  0.00    +0.000 C 
ATOM     14  N   UNL     1      -0.395  15.007  20.448  0.00  0.00    +0.000 NA
ATOM     15  C   UNL     1       0.339  14.229  21.458  0.00  0.00    +0.000 C 
ATOM     16  C   UNL     1       1.449  13.342  20.883  0.00  0.00    +0.000 C 
ATOM     17  N   UNL     1       1.825   7.902  19.852  0.00  0.00    +0.000 NA
ATOM     18  N   UNL     1       2.591   6.763  20.064  0.00  0.00    +0.000 NA
ENDROOT
BRANCH  14  19
ATOM     19  C   UNL     1       0.386  16.079  19.775  0.00  0.00    +0.000 C 
ATOM     20  C   UNL     1       0.801  17.270  20.637  0.00  0.00    +0.000 C 
ATOM     21  C   UNL     1      -0.355  18.236  20.532  0.00  0.00    +0.000 C 
ATOM     22  O   UNL     1      -0.935  18.050  19.240  0.00  0.00    +0.000 OA
ATOM     23  C   UNL     1      -0.422  16.827  18.689  0.00  0.00    +0.000 C 
ENDBRANCH  14  19
TORSDOF 1
ENDMDL
MODEL 8
REMARK VINA RESULT:      -5.2      2.090      2.717
REMARK  Name = 
REMARK  2 active torsions:
REMARK  status: ('A' for Active; 'I' for Inactive)
REMARK    1  A    between atoms: C_1  and  C_2
REMARK    2  A    between atoms: N_14  and  C_15
REMARK                            x       y       z     vdW  Elec       q    Type
REMARK                         _______ _______ _______ _____ _____    ______ ____
ROOT
ATOM      1  C   UNL     1       2.871   4.401  17.805  0.00  0.00    +0.000 C 
ATOM      2  C   UNL     1       2.511   5.466  18.790  0.00  0.00    +0.000 A 
ATOM      3  C   UNL     1       1.916   5.148  19.995  0.00  0.00    +0.000 A 
ATOM      4  C   UNL     1       1.491   6.185  20.822  0.00  0.00    +0.000 A 
ATOM      5  C   UNL     1       1.652   7.518  20.439  0.00  0.00    +0.000 A 
ATOM      6  N   UNL     1       1.159   8.536  21.256  0.00  0.00    +0.000 N 
ATOM      7  C   UNL     1       1.759   9.869  21.150  0.00  0.00    +0.000 C 
ATOM      8  C   UNL     1       0.861  10.883  20.422  0.00  0.00    +0.000 C 
ATOM      9  C   UNL     1      -0.613  10.884  20.908  0.00  0.00    +0.000 C 
ATOM     10  C   UNL     1      -1.104   9.420  20.808  0.00  0.00    +0.000 C 
ATOM     11  C   UNL     1      -0.253   8.453  21.631  0.00  0.00    +0.000 C 
ATOM     12  C   UNL     1      -0.746  11.394  22.369  0.00  0.00    +0.000 C 
ATOM     13  C   UNL     1      -0.697  12.922  22.507  0.00  0.00    +0.000 C 
ATOM     14  N   UNL     1      -1.675  13.634  21.663  0.00  0.00    +0.000 NA
ATOM     15  C   UNL     1      -1.406  13.266  20.264  0.00  0.00    +0.000 C 
ATOM     16  C   UNL     1      -1.499  11.762  19.982  0.00  0.00    +0.000 C 
ATOM     17  N   UNL     1       2.299   7.776  19.284  0.00  0.00    +0.000 NA
ATOM     18  N   UNL     1       2.719   6.752  18.447  0.00  0.00    +0.000 NA
ENDROOT
BRANCH  14  19
ATOM     19  C   UNL     1      -3.078  13.434  22.118  0.00  0.00    +0.000 C 
ATOM     20  C   UNL     1      -4.152  14.255  21.408  0.00  0.00    +0.000 C 
ATOM     21  C   UNL     1      -4.227  15.543  22.192  0.00  0.00    +0.000 C 
ATOM     22  O   UNL     1      -3.897  15.224  23.545  0.00  0.00    +0.000 OA
ATOM     23  C   UNL     1      -3.318  13.911  23.569  0.00  0.00    +0.000 C 
ENDBRANCH  14  19
TORSDOF 1
ENDMDL
MODEL 9
REMARK VINA RESULT:      -5.1      8.272     11.272
REMARK  Name = 
REMARK  2 active torsions:
REMARK  status: ('A' for Active; 'I' for Inactive)
REMARK    1  A    between atoms: C_1  and  C_2
REMARK    2  A    between atoms: N_14  and  C_15
REMARK                            x       y       z     vdW  Elec       q    Type
REMARK                         _______ _______ _______ _____ _____    ______ ____
ROOT
ATOM      1  C   UNL     1      -0.231  18.112  20.353  0.00  0.00    +0.000 C 
ATOM      2  C   UNL     1       1.065  17.723  19.717  0.00  0.00    +0.000 A 
ATOM      3  C   UNL     1       1.094  16.892  18.614  0.00  0.00    +0.000 A 
ATOM      4  C   UNL     1       2.329  16.463  18.136  0.00  0.00    +0.000 A 
ATOM      5  C   UNL     1       3.514  16.855  18.761  0.00  0.00    +0.000 A 
ATOM      6  N   UNL     1       4.735  16.359  18.302  0.00  0.00    +0.000 N 
ATOM      7  C   UNL     1       5.950  17.131  18.575  0.00  0.00    +0.000 C 
ATOM      8  C   UNL     1       6.831  16.510  19.671  0.00  0.00    +0.000 C 
ATOM      9  C   UNL     1       7.069  14.985  19.500  0.00  0.00    +0.000 C 
ATOM     10  C   UNL     1       5.669  14.339  19.374  0.00  0.00    +0.000 C 
ATOM     11  C   UNL     1       4.860  14.904  18.206  0.00  0.00    +0.000 C 
ATOM     12  C   UNL     1       7.922  14.664  18.243  0.00  0.00    +0.000 C 
ATOM     13  C   UNL     1       9.429  14.880  18.436  0.00  0.00    +0.000 C 
ATOM     14  N   UNL     1       9.998  14.162  19.592  0.00  0.00    +0.000 NA
ATOM     15  C   UNL     1       9.286  14.623  20.795  0.00  0.00    +0.000 C 
ATOM     16  C   UNL     1       7.771  14.392  20.754  0.00  0.00    +0.000 C 
ATOM     17  N   UNL     1       3.435  17.721  19.792  0.00  0.00    +0.000 NA
ATOM     18  N   UNL     1       2.210  18.148  20.284  0.00  0.00    +0.000 NA
ENDROOT
BRANCH  14  19
ATOM     19  C   UNL     1      10.028  12.688  19.394  0.00  0.00    +0.000 C 
ATOM     20  C   UNL     1      10.912  11.886  20.346  0.00  0.00    +0.000 C 
ATOM     21  C   UNL     1      12.267  11.865  19.681  0.00  0.00    +0.000 C 
ATOM     22  O   UNL     1      12.038  11.903  18.271  0.00  0.00    +0.000 OA
ATOM     23  C   UNL     1      10.668  12.271  18.049  0.00  0.00    +0.000 C 
ENDBRANCH  14  19
TORSDOF 1
ENDMDL
