MODEL 1
REMARK VINA RESULT:      -7.2      0.000      0.000
REMARK  Name = 
REMARK  11 active torsions:
REMARK  status: ('A' for Active; 'I' for Inactive)
REMARK    1  A    between atoms: C_2  and  C_3
REMARK    2  A    between atoms: C_3  and  C_4
REMARK    3  A    between atoms: C_4  and  N_5
REMARK    4  A    between atoms: C_4  and  C_15
REMARK    5  A    between atoms: N_5  and  CA_6
REMARK    6  A    between atoms: CA_6  and  C_7
REMARK    7  A    between atoms: CA_6  and  C_9
REMARK    8  A    between atoms: C_7  and  O_8
REMARK    9  A    between atoms: C_18  and  O_20
REMARK   10  A    between atoms: O_20  and  C_21
REMARK   11  A    between atoms: C_21  and  C_22
REMARK                            x       y       z     vdW  Elec       q    Type
REMARK                         _______ _______ _______ _____ _____    ______ ____
ROOT
ATOM      1  C   UNL     1       4.799   6.675  16.728  0.00  0.00    +0.000 C 
ENDROOT
BRANCH   1   2
ATOM      2  C   UNL     1       3.820   6.979  17.919  0.00  0.00    +0.000 A 
ATOM      3  C   UNL     1       4.058   6.387  19.160  0.00  0.00    +0.000 A 
ATOM      4  N   UNL     1       2.795   6.196  19.643  0.00  0.00    +0.000 N 
ATOM      5  C   UNL     1       2.170   4.991  19.987  0.00  0.00    +0.000 C 
ATOM      6  O   UNL     1       1.064   4.964  20.491  0.00  0.00    +0.000 OA
ATOM      7  C   UNL     1       2.241   7.436  19.562  0.00  0.00    +0.000 A 
ATOM      8  C   UNL     1       1.331   8.085  20.401  0.00  0.00    +0.000 A 
ATOM      9  C   UNL     1       0.809   9.287  19.958  0.00  0.00    +0.000 A 
ATOM     10  C   UNL     1       1.145   9.761  18.694  0.00  0.00    +0.000 A 
ATOM     11  C   UNL     1       2.086   9.093  17.865  0.00  0.00    +0.000 A 
ATOM     12  C   UNL     1       2.731   7.913  18.316  0.00  0.00    +0.000 A 
BRANCH   5  13
ATOM     13  O   UNL     1       2.904   3.942  19.519  0.00  0.00    +0.000 OA
BRANCH  13  14
ATOM     14  C   UNL     1       2.527   2.656  20.030  0.00  0.00    +0.000 C 
ATOM     15  C   UNL     1       1.660   1.878  19.054  0.00  0.00    +0.000 C 
ENDBRANCH  13  14
ENDBRANCH   5  13
ENDBRANCH   1   2
BRANCH   1  16
ATOM     16  N   UNL     1       4.594   5.359  16.091  0.00  0.00    +0.000 NA
ATOM     17  H   UNL     1       4.113   5.476  15.201  0.00  0.00    +0.000 HD
BRANCH  16  18
ATOM     18  CA  UNL     1       5.782   4.523  15.909  0.00  0.00    +0.000 C 
BRANCH  18  19
ATOM     19  C   UNL     1       6.320   4.473  14.474  0.00  0.00    +0.000 A 
ATOM     20  C   UNL     1       7.384   5.261  13.998  0.00  0.00    +0.000 A 
ATOM     21  C   UNL     1       7.809   5.149  12.670  0.00  0.00    +0.000 A 
ATOM     22  C   UNL     1       7.181   4.276  11.790  0.00  0.00    +0.000 A 
ATOM     23  C   UNL     1       6.127   3.486  12.236  0.00  0.00    +0.000 A 
ATOM     24  C   UNL     1       5.710   3.577  13.563  0.00  0.00    +0.000 A 
ENDBRANCH  18  19
BRANCH  18  25
ATOM     25  C   UNL     1       5.627   3.078  16.470  0.00  0.00    +0.000 C 
BRANCH  25  26
ATOM     26  O   UNL     1       4.569   2.954  17.420  0.00  0.00    +0.000 OA
ATOM     27  H   UNL     1       4.217   2.050  17.333  0.00  0.00    +0.000 HD
ENDBRANCH  25  26
ENDBRANCH  18  25
ENDBRANCH  16  18
ENDBRANCH   1  16
BRANCH   1  28
ATOM     28  C   UNL     1       6.304   6.668  17.303  0.00  0.00    +0.000 C 
BRANCH  28  30
ATOM     29  C   UNL     1       8.209   8.235  18.142  0.00  0.00    +0.000 C 
ATOM     30  C   UNL     1       7.350   7.768  17.227  0.00  0.00    +0.000 C 
ENDBRANCH  28  30
ENDBRANCH   1  28
TORSDOF 10
ENDMDL
MODEL 2
REMARK VINA RESULT:      -7.2      0.410      1.086
REMARK  Name = 
REMARK  11 active torsions:
REMARK  status: ('A' for Active; 'I' for Inactive)
REMARK    1  A    between atoms: C_2  and  C_3
REMARK    2  A    between atoms: C_3  and  C_4
REMARK    3  A    between atoms: C_4  and  N_5
REMARK    4  A    between atoms: C_4  and  C_15
REMARK    5  A    between atoms: N_5  and  CA_6
REMARK    6  A    between atoms: CA_6  and  C_7
REMARK    7  A    between atoms: CA_6  and  C_9
REMARK    8  A    between atoms: C_7  and  O_8
REMARK    9  A    between atoms: C_18  and  O_20
REMARK   10  A    between atoms: O_20  and  C_21
REMARK   11  A    between atoms: C_21  and  C_22
REMARK                            x       y       z     vdW  Elec       q    Type
REMARK                         _______ _______ _______ _____ _____    ______ ____
ROOT
ATOM      1  C   UNL     1       4.934   6.563  16.917  0.00  0.00    +0.000 C 
ENDROOT
BRANCH   1   2
ATOM      2  C   UNL     1       3.886   6.899  18.038  0.00  0.00    +0.000 A 
ATOM      3  C   UNL     1       4.016   6.294  19.290  0.00  0.00    +0.000 A 
ATOM      4  N   UNL     1       2.716   6.148  19.682  0.00  0.00    +0.000 N 
ATOM      5  C   UNL     1       2.025   4.965  19.975  0.00  0.00    +0.000 C 
ATOM      6  O   UNL     1       0.887   4.977  20.401  0.00  0.00    +0.000 OA
ATOM      7  C   UNL     1       2.215   7.408  19.571  0.00  0.00    +0.000 A 
ATOM      8  C   UNL     1       1.273   8.087  20.348  0.00  0.00    +0.000 A 
ATOM      9  C   UNL     1       0.827   9.309  19.878  0.00  0.00    +0.000 A 
ATOM     10  C   UNL     1       1.267   9.774  18.643  0.00  0.00    +0.000 A 
ATOM     11  C   UNL     1       2.239   9.075  17.877  0.00  0.00    +0.000 A 
ATOM     12  C   UNL     1       2.808   7.871  18.365  0.00  0.00    +0.000 A 
BRANCH   5  13
ATOM     13  O   UNL     1       2.751   3.892  19.553  0.00  0.00    +0.000 OA
BRANCH  13  14
ATOM     14  C   UNL     1       2.337   2.626  20.085  0.00  0.00    +0.000 C 
ATOM     15  C   UNL     1       2.603   2.510  21.576  0.00  0.00    +0.000 C 
ENDBRANCH  13  14
ENDBRANCH   5  13
ENDBRANCH   1   2
BRANCH   1  16
ATOM     16  N   UNL     1       4.593   5.383  16.097  0.00  0.00    +0.000 NA
ATOM     17  H   UNL     1       4.206   5.682  15.204  0.00  0.00    +0.000 HD
BRANCH  16  18
ATOM     18  CA  UNL     1       5.659   4.405  15.875  0.00  0.00    +0.000 C 
BRANCH  18  19
ATOM     19  C   UNL     1       6.185   4.342  14.436  0.00  0.00    +0.000 A 
ATOM     20  C   UNL     1       5.645   3.521  13.429  0.00  0.00    +0.000 A 
ATOM     21  C   UNL     1       6.190   3.528  12.141  0.00  0.00    +0.000 A 
ATOM     22  C   UNL     1       7.286   4.326  11.834  0.00  0.00    +0.000 A 
ATOM     23  C   UNL     1       7.839   5.145  12.812  0.00  0.00    +0.000 A 
ATOM     24  C   UNL     1       7.288   5.159  14.092  0.00  0.00    +0.000 A 
ENDBRANCH  18  19
BRANCH  18  25
ATOM     25  C   UNL     1       5.314   2.972  16.380  0.00  0.00    +0.000 C 
BRANCH  25  26
ATOM     26  O   UNL     1       4.724   2.961  17.679  0.00  0.00    +0.000 OA
ATOM     27  H   UNL     1       5.072   3.739  18.152  0.00  0.00    +0.000 HD
ENDBRANCH  25  26
ENDBRANCH  18  25
ENDBRANCH  16  18
ENDBRANCH   1  16
BRANCH   1  28
ATOM     28  C   UNL     1       6.342   6.227  17.626  0.00  0.00    +0.000 C 
BRANCH  28  30
ATOM     29  C   UNL     1       7.744   8.422  17.617  0.00  0.00    +0.000 C 
ATOM     30  C   UNL     1       7.584   7.098  17.721  0.00  0.00    +0.000 C 
ENDBRANCH  28  30
ENDBRANCH   1  28
TORSDOF 10
ENDMDL
MODEL 3
REMARK VINA RESULT:      -7.2      1.075      1.126
REMARK  Name = 
REMARK  11 active torsions:
REMARK  status: ('A' for Active; 'I' for Inactive)
REMARK    1  A    between atoms: C_2  and  C_3
REMARK    2  A    between atoms: C_3  and  C_4
REMARK    3  A    between atoms: C_4  and  N_5
REMARK    4  A    between atoms: C_4  and  C_15
REMARK    5  A    between atoms: N_5  and  CA_6
REMARK    6  A    between atoms: CA_6  and  C_7
REMARK    7  A    between atoms: CA_6  and  C_9
REMARK    8  A    between atoms: C_7  and  O_8
REMARK    9  A    between atoms: C_18  and  O_20
REMARK   10  A    between atoms: O_20  and  C_21
REMARK   11  A    between atoms: C_21  and  C_22
REMARK                            x       y       z     vdW  Elec       q    Type
REMARK                         _______ _______ _______ _____ _____    ______ ____
ROOT
ATOM      1  C   UNL     1       4.467   6.310  16.693  0.00  0.00    +0.000 C 
ENDROOT
BRANCH   1   2
ATOM      2  C   UNL     1       3.653   6.545  18.016  0.00  0.00    +0.000 A 
ATOM      3  C   UNL     1       4.024   5.855  19.172  0.00  0.00    +0.000 A 
ATOM      4  N   UNL     1       2.824   5.657  19.793  0.00  0.00    +0.000 N 
ATOM      5  C   UNL     1       2.208   4.443  20.125  0.00  0.00    +0.000 C 
ATOM      6  O   UNL     1       1.172   4.404  20.761  0.00  0.00    +0.000 OA
ATOM      7  C   UNL     1       2.304   6.912  19.873  0.00  0.00    +0.000 A 
ATOM      8  C   UNL     1       1.526   7.516  20.864  0.00  0.00    +0.000 A 
ATOM      9  C   UNL     1       0.992   8.760  20.578  0.00  0.00    +0.000 A 
ATOM     10  C   UNL     1       1.184   9.320  19.320  0.00  0.00    +0.000 A 
ATOM     11  C   UNL     1       1.994   8.696  18.332  0.00  0.00    +0.000 A 
ATOM     12  C   UNL     1       2.652   7.471  18.613  0.00  0.00    +0.000 A 
BRANCH   5  13
ATOM     13  O   UNL     1       2.845   3.417  19.495  0.00  0.00    +0.000 OA
BRANCH  13  14
ATOM     14  C   UNL     1       2.059   2.716  18.521  0.00  0.00    +0.000 C 
ATOM     15  C   UNL     1       2.372   3.153  17.101  0.00  0.00    +0.000 C 
ENDBRANCH  13  14
ENDBRANCH   5  13
ENDBRANCH   1   2
BRANCH   1  16
ATOM     16  N   UNL     1       5.222   5.041  16.659  0.00  0.00    +0.000 NA
ATOM     17  H   UNL     1       4.694   4.338  16.146  0.00  0.00    +0.000 HD
BRANCH  16  18
ATOM     18  CA  UNL     1       6.593   5.103  16.149  0.00  0.00    +0.000 C 
BRANCH  18  19
ATOM     19  C   UNL     1       6.746   4.740  14.668  0.00  0.00    +0.000 A 
ATOM     20  C   UNL     1       7.676   5.336  13.796  0.00  0.00    +0.000 A 
ATOM     21  C   UNL     1       7.745   4.941  12.457  0.00  0.00    +0.000 A 
ATOM     22  C   UNL     1       6.890   3.969  11.953  0.00  0.00    +0.000 A 
ATOM     23  C   UNL     1       5.961   3.364  12.794  0.00  0.00    +0.000 A 
ATOM     24  C   UNL     1       5.899   3.738  14.135  0.00  0.00    +0.000 A 
ENDBRANCH  18  19
BRANCH  18  25
ATOM     25  C   UNL     1       7.619   4.301  17.004  0.00  0.00    +0.000 C 
BRANCH  25  26
ATOM     26  O   UNL     1       7.273   4.241  18.387  0.00  0.00    +0.000 OA
ATOM     27  H   UNL     1       6.886   3.360  18.542  0.00  0.00    +0.000 HD
ENDBRANCH  25  26
ENDBRANCH  18  25
ENDBRANCH  16  18
ENDBRANCH   1  16
BRANCH   1  28
ATOM     28  C   UNL     1       5.559   7.487  16.557  0.00  0.00    +0.000 C 
BRANCH  28  30
ATOM     29  C   UNL     1       7.865   7.999  17.656  0.00  0.00    +0.000 C 
ATOM     30  C   UNL     1       6.528   8.004  17.609  0.00  0.00    +0.000 C 
ENDBRANCH  28  30
ENDBRANCH   1  28
TORSDOF 10
ENDMDL
MODEL 4
REMARK VINA RESULT:      -7.1      2.501      7.326
REMARK  Name = 
REMARK  11 active torsions:
REMARK  status: ('A' for Active; 'I' for Inactive)
REMARK    1  A    between atoms: C_2  and  C_3
REMARK    2  A    between atoms: C_3  and  C_4
REMARK    3  A    between atoms: C_4  and  N_5
REMARK    4  A    between atoms: C_4  and  C_15
REMARK    5  A    between atoms: N_5  and  CA_6
REMARK    6  A    between atoms: CA_6  and  C_7
REMARK    7  A    between atoms: CA_6  and  C_9
REMARK    8  A    between atoms: C_7  and  O_8
REMARK    9  A    between atoms: C_18  and  O_20
REMARK   10  A    between atoms: O_20  and  C_21
REMARK   11  A    between atoms: C_21  and  C_22
REMARK                            x       y       z     vdW  Elec       q    Type
REMARK                         _______ _______ _______ _____ _____    ______ ____
ROOT
ATOM      1  C   UNL     1       1.654   7.835  18.826  0.00  0.00    +0.000 C 
ENDROOT
BRANCH   1   2
ATOM      2  C   UNL     1       2.537   6.651  18.291  0.00  0.00    +0.000 A 
ATOM      3  C   UNL     1       2.113   5.338  18.507  0.00  0.00    +0.000 A 
ATOM      4  N   UNL     1       3.294   4.669  18.660  0.00  0.00    +0.000 N 
ATOM      5  C   UNL     1       3.747   3.951  19.773  0.00  0.00    +0.000 C 
ATOM      6  O   UNL     1       4.788   3.323  19.749  0.00  0.00    +0.000 OA
ATOM      7  C   UNL     1       3.985   4.997  17.533  0.00  0.00    +0.000 A 
ATOM      8  C   UNL     1       4.871   4.248  16.756  0.00  0.00    +0.000 A 
ATOM      9  C   UNL     1       5.563   4.917  15.762  0.00  0.00    +0.000 A 
ATOM     10  C   UNL     1       5.407   6.292  15.620  0.00  0.00    +0.000 A 
ATOM     11  C   UNL     1       4.487   7.032  16.411  0.00  0.00    +0.000 A 
ATOM     12  C   UNL     1       3.675   6.375  17.372  0.00  0.00    +0.000 A 
BRANCH   5  13
ATOM     13  O   UNL     1       2.954   4.220  20.848  0.00  0.00    +0.000 OA
BRANCH  13  14
ATOM     14  C   UNL     1       2.359   3.074  21.471  0.00  0.00    +0.000 C 
ATOM     15  C   UNL     1       1.083   2.634  20.773  0.00  0.00    +0.000 C 
ENDBRANCH  13  14
ENDBRANCH   5  13
ENDBRANCH   1   2
BRANCH   1  16
ATOM     16  N   UNL     1       1.926   9.136  18.182  0.00  0.00    +0.000 NA
ATOM     17  H   UNL     1       1.693   9.088  17.192  0.00  0.00    +0.000 HD
BRANCH  16  18
ATOM     18  CA  UNL     1       1.297  10.313  18.784  0.00  0.00    +0.000 C 
BRANCH  18  19
ATOM     19  C   UNL     1      -0.196  10.474  18.476  0.00  0.00    +0.000 A 
ATOM     20  C   UNL     1      -0.889   9.736  17.499  0.00  0.00    +0.000 A 
ATOM     21  C   UNL     1      -2.255   9.950  17.286  0.00  0.00    +0.000 A 
ATOM     22  C   UNL     1      -2.951  10.905  18.017  0.00  0.00    +0.000 A 
ATOM     23  C   UNL     1      -2.289  11.648  18.989  0.00  0.00    +0.000 A 
ATOM     24  C   UNL     1      -0.933  11.426  19.222  0.00  0.00    +0.000 A 
ENDBRANCH  18  19
BRANCH  18  25
ATOM     25  C   UNL     1       2.048  11.647  18.492  0.00  0.00    +0.000 C 
BRANCH  25  26
ATOM     26  O   UNL     1       2.612  11.699  17.183  0.00  0.00    +0.000 OA
ATOM     27  H   UNL     1       1.929  11.374  16.569  0.00  0.00    +0.000 HD
ENDBRANCH  25  26
ENDBRANCH  18  25
ENDBRANCH  16  18
ENDBRANCH   1  16
BRANCH   1  28
ATOM     28  C   UNL     1       1.972   8.033  20.393  0.00  0.00    +0.000 C 
BRANCH  28  30
ATOM     29  C   UNL     1      -0.324   8.437  21.555  0.00  0.00    +0.000 C 
ATOM     30  C   UNL     1       1.013   8.403  21.513  0.00  0.00    +0.000 C 
ENDBRANCH  28  30
ENDBRANCH   1  28
TORSDOF 10
ENDMDL
MODEL 5
REMARK VINA RESULT:      -7.0      1.151      1.279
REMARK  Name = 
REMARK  11 active torsions:
REMARK  status: ('A' for Active; 'I' for Inactive)
REMARK    1  A    between atoms: C_2  and  C_3
REMARK    2  A    between atoms: C_3  and  C_4
REMARK    3  A    between atoms: C_4  and  N_5
REMARK    4  A    between atoms: C_4  and  C_15
REMARK    5  A    between atoms: N_5  and  CA_6
REMARK    6  A    between atoms: CA_6  and  C_7
REMARK    7  A    between atoms: CA_6  and  C_9
REMARK    8  A    between atoms: C_7  and  O_8
REMARK    9  A    between atoms: C_18  and  O_20
REMARK   10  A    between atoms: O_20  and  C_21
REMARK   11  A    between atoms: C_21  and  C_22
REMARK                            x       y       z     vdW  Elec       q    Type
REMARK                         _______ _______ _______ _____ _____    ______ ____
ROOT
ATOM      1  C   UNL     1       5.040   6.958  16.926  0.00  0.00    +0.000 C 
ENDROOT
BRANCH   1   2
ATOM      2  C   UNL     1       4.012   6.760  18.097  0.00  0.00    +0.000 A 
ATOM      3  C   UNL     1       4.233   5.745  19.029  0.00  0.00    +0.000 A 
ATOM      4  N   UNL     1       2.964   5.353  19.345  0.00  0.00    +0.000 N 
ATOM      5  C   UNL     1       2.376   4.094  19.176  0.00  0.00    +0.000 C 
ATOM      6  O   UNL     1       1.256   3.850  19.583  0.00  0.00    +0.000 OA
ATOM      7  C   UNL     1       2.364   6.517  19.719  0.00  0.00    +0.000 A 
ATOM      8  C   UNL     1       1.404   6.774  20.700  0.00  0.00    +0.000 A 
ATOM      9  C   UNL     1       0.849   8.042  20.726  0.00  0.00    +0.000 A 
ATOM     10  C   UNL     1       1.207   8.970  19.754  0.00  0.00    +0.000 A 
ATOM     11  C   UNL     1       2.200   8.693  18.775  0.00  0.00    +0.000 A 
ATOM     12  C   UNL     1       2.876   7.446  18.771  0.00  0.00    +0.000 A 
BRANCH   5  13
ATOM     13  O   UNL     1       3.164   3.321  18.378  0.00  0.00    +0.000 OA
BRANCH  13  14
ATOM     14  C   UNL     1       3.514   2.040  18.919  0.00  0.00    +0.000 C 
ATOM     15  C   UNL     1       4.291   2.154  20.220  0.00  0.00    +0.000 C 
ENDBRANCH  13  14
ENDBRANCH   5  13
ENDBRANCH   1   2
BRANCH   1  16
ATOM     16  N   UNL     1       5.064   5.855  15.944  0.00  0.00    +0.000 NA
ATOM     17  H   UNL     1       4.657   6.166  15.064  0.00  0.00    +0.000 HD
BRANCH  16  18
ATOM     18  CA  UNL     1       6.361   5.223  15.696  0.00  0.00    +0.000 C 
BRANCH  18  19
ATOM     19  C   UNL     1       6.582   4.751  14.254  0.00  0.00    +0.000 A 
ATOM     20  C   UNL     1       7.602   5.228  13.410  0.00  0.00    +0.000 A 
ATOM     21  C   UNL     1       7.729   4.739  12.106  0.00  0.00    +0.000 A 
ATOM     22  C   UNL     1       6.843   3.790  11.610  0.00  0.00    +0.000 A 
ATOM     23  C   UNL     1       5.826   3.303  12.423  0.00  0.00    +0.000 A 
ATOM     24  C   UNL     1       5.705   3.770  13.731  0.00  0.00    +0.000 A 
ENDBRANCH  18  19
BRANCH  18  25
ATOM     25  C   UNL     1       6.701   4.073  16.691  0.00  0.00    +0.000 C 
BRANCH  25  26
ATOM     26  O   UNL     1       8.059   4.094  17.130  0.00  0.00    +0.000 OA
ATOM     27  H   UNL     1       8.098   4.696  17.894  0.00  0.00    +0.000 HD
ENDBRANCH  25  26
ENDBRANCH  18  25
ENDBRANCH  16  18
ENDBRANCH   1  16
BRANCH   1  28
ATOM     28  C   UNL     1       6.520   7.029  17.560  0.00  0.00    +0.000 C 
BRANCH  28  30
ATOM     29  C   UNL     1       8.098   9.059  17.978  0.00  0.00    +0.000 C 
ATOM     30  C   UNL     1       7.627   8.028  17.266  0.00  0.00    +0.000 C 
ENDBRANCH  28  30
ENDBRANCH   1  28
TORSDOF 10
ENDMDL
MODEL 6
REMARK VINA RESULT:      -7.0      1.361      3.507
REMARK  Name = 
REMARK  11 active torsions:
REMARK  status: ('A' for Active; 'I' for Inactive)
REMARK    1  A    between atoms: C_2  and  C_3
REMARK    2  A    between atoms: C_3  and  C_4
REMARK    3  A    between atoms: C_4  and  N_5
REMARK    4  A    between atoms: C_4  and  C_15
REMARK    5  A    between atoms: N_5  and  CA_6
REMARK    6  A    between atoms: CA_6  and  C_7
REMARK    7  A    between atoms: CA_6  and  C_9
REMARK    8  A    between atoms: C_7  and  O_8
REMARK    9  A    between atoms: C_18  and  O_20
REMARK   10  A    between atoms: O_20  and  C_21
REMARK   11  A    between atoms: C_21  and  C_22
REMARK                            x       y       z     vdW  Elec       q    Type
REMARK                         _______ _______ _______ _____ _____    ______ ____
ROOT
ATOM      1  C   UNL     1       5.026   6.767  17.433  0.00  0.00    +0.000 C 
ENDROOT
BRANCH   1   2
ATOM      2  C   UNL     1       3.838   6.287  18.343  0.00  0.00    +0.000 A 
ATOM      3  C   UNL     1       2.566   6.822  18.135  0.00  0.00    +0.000 A 
ATOM      4  N   UNL     1       2.047   6.847  19.399  0.00  0.00    +0.000 N 
ATOM      5  C   UNL     1       1.614   7.955  20.138  0.00  0.00    +0.000 C 
ATOM      6  O   UNL     1       1.087   7.832  21.227  0.00  0.00    +0.000 OA
ATOM      7  C   UNL     1       2.197   5.562  19.821  0.00  0.00    +0.000 A 
ATOM      8  C   UNL     1       1.385   4.769  20.635  0.00  0.00    +0.000 A 
ATOM      9  C   UNL     1       1.895   3.548  21.040  0.00  0.00    +0.000 A 
ATOM     10  C   UNL     1       3.193   3.192  20.689  0.00  0.00    +0.000 A 
ATOM     11  C   UNL     1       3.996   4.008  19.845  0.00  0.00    +0.000 A 
ATOM     12  C   UNL     1       3.481   5.219  19.316  0.00  0.00    +0.000 A 
BRANCH   5  13
ATOM     13  O   UNL     1       2.027   9.103  19.531  0.00  0.00    +0.000 OA
BRANCH  13  14
ATOM     14  C   UNL     1       0.977   9.945  19.037  0.00  0.00    +0.000 C 
ATOM     15  C   UNL     1       0.671  11.100  19.976  0.00  0.00    +0.000 C 
ENDBRANCH  13  14
ENDBRANCH   5  13
ENDBRANCH   1   2
BRANCH   1  16
ATOM     16  N   UNL     1       4.981   6.252  16.050  0.00  0.00    +0.000 NA
ATOM     17  H   UNL     1       5.460   6.896  15.424  0.00  0.00    +0.000 HD
BRANCH  16  18
ATOM     18  CA  UNL     1       5.478   4.892  15.837  0.00  0.00    +0.000 C 
BRANCH  18  19
ATOM     19  C   UNL     1       6.134   4.651  14.473  0.00  0.00    +0.000 A 
ATOM     20  C   UNL     1       7.300   5.299  14.027  0.00  0.00    +0.000 A 
ATOM     21  C   UNL     1       7.829   5.017  12.763  0.00  0.00    +0.000 A 
ATOM     22  C   UNL     1       7.207   4.109  11.916  0.00  0.00    +0.000 A 
ATOM     23  C   UNL     1       6.052   3.455  12.332  0.00  0.00    +0.000 A 
ATOM     24  C   UNL     1       5.530   3.716  13.598  0.00  0.00    +0.000 A 
ENDBRANCH  18  19
BRANCH  18  25
ATOM     25  C   UNL     1       4.421   3.783  16.123  0.00  0.00    +0.000 C 
BRANCH  25  26
ATOM     26  O   UNL     1       4.903   2.757  16.989  0.00  0.00    +0.000 OA
ATOM     27  H   UNL     1       4.763   1.910  16.527  0.00  0.00    +0.000 HD
ENDBRANCH  25  26
ENDBRANCH  18  25
ENDBRANCH  16  18
ENDBRANCH   1  16
BRANCH   1  28
ATOM     28  C   UNL     1       6.402   6.224  18.071  0.00  0.00    +0.000 C 
BRANCH  28  30
ATOM     29  C   UNL     1       8.099   8.194  17.914  0.00  0.00    +0.000 C 
ATOM     30  C   UNL     1       7.749   6.924  18.148  0.00  0.00    +0.000 C 
ENDBRANCH  28  30
ENDBRANCH   1  28
TORSDOF 10
ENDMDL
MODEL 7
REMARK VINA RESULT:      -6.9      1.292      3.558
REMARK  Name = 
REMARK  11 active torsions:
REMARK  status: ('A' for Active; 'I' for Inactive)
REMARK    1  A    between atoms: C_2  and  C_3
REMARK    2  A    between atoms: C_3  and  C_4
REMARK    3  A    between atoms: C_4  and  N_5
REMARK    4  A    between atoms: C_4  and  C_15
REMARK    5  A    between atoms: N_5  and  CA_6
REMARK    6  A    between atoms: CA_6  and  C_7
REMARK    7  A    between atoms: CA_6  and  C_9
REMARK    8  A    between atoms: C_7  and  O_8
REMARK    9  A    between atoms: C_18  and  O_20
REMARK   10  A    between atoms: O_20  and  C_21
REMARK   11  A    between atoms: C_21  and  C_22
REMARK                            x       y       z     vdW  Elec       q    Type
REMARK                         _______ _______ _______ _____ _____    ______ ____
ROOT
ATOM      1  C   UNL     1       4.942   6.570  17.429  0.00  0.00    +0.000 C 
ENDROOT
BRANCH   1   2
ATOM      2  C   UNL     1       3.791   6.081  18.380  0.00  0.00    +0.000 A 
ATOM      3  C   UNL     1       2.509   6.611  18.220  0.00  0.00    +0.000 A 
ATOM      4  N   UNL     1       2.037   6.630  19.502  0.00  0.00    +0.000 N 
ATOM      5  C   UNL     1       1.625   7.734  20.259  0.00  0.00    +0.000 C 
ATOM      6  O   UNL     1       1.139   7.606  21.366  0.00  0.00    +0.000 OA
ATOM      7  C   UNL     1       2.209   5.345  19.915  0.00  0.00    +0.000 A 
ATOM      8  C   UNL     1       1.430   4.546  20.756  0.00  0.00    +0.000 A 
ATOM      9  C   UNL     1       1.960   3.326  21.139  0.00  0.00    +0.000 A 
ATOM     10  C   UNL     1       3.246   2.978  20.740  0.00  0.00    +0.000 A 
ATOM     11  C   UNL     1       4.014   3.799  19.870  0.00  0.00    +0.000 A 
ATOM     12  C   UNL     1       3.475   5.010  19.363  0.00  0.00    +0.000 A 
BRANCH   5  13
ATOM     13  O   UNL     1       2.010   8.886  19.640  0.00  0.00    +0.000 OA
BRANCH  13  14
ATOM     14  C   UNL     1       0.993   9.890  19.530  0.00  0.00    +0.000 C 
ATOM     15  C   UNL     1       0.393   9.956  18.135  0.00  0.00    +0.000 C 
ENDBRANCH  13  14
ENDBRANCH   5  13
ENDBRANCH   1   2
BRANCH   1  16
ATOM     16  N   UNL     1       4.918   5.964  16.082  0.00  0.00    +0.000 NA
ATOM     17  H   UNL     1       5.166   6.663  15.384  0.00  0.00    +0.000 HD
BRANCH  16  18
ATOM     18  CA  UNL     1       5.725   4.759  15.887  0.00  0.00    +0.000 C 
BRANCH  18  19
ATOM     19  C   UNL     1       6.250   4.559  14.461  0.00  0.00    +0.000 A 
ATOM     20  C   UNL     1       5.700   3.657  13.532  0.00  0.00    +0.000 A 
ATOM     21  C   UNL     1       6.245   3.540  12.249  0.00  0.00    +0.000 A 
ATOM     22  C   UNL     1       7.349   4.294  11.871  0.00  0.00    +0.000 A 
ATOM     23  C   UNL     1       7.912   5.192  12.771  0.00  0.00    +0.000 A 
ATOM     24  C   UNL     1       7.362   5.329  14.045  0.00  0.00    +0.000 A 
ENDBRANCH  18  19
BRANCH  18  25
ATOM     25  C   UNL     1       5.039   3.454  16.390  0.00  0.00    +0.000 C 
BRANCH  25  26
ATOM     26  O   UNL     1       3.614   3.529  16.381  0.00  0.00    +0.000 OA
ATOM     27  H   UNL     1       3.360   4.138  17.097  0.00  0.00    +0.000 HD
ENDBRANCH  25  26
ENDBRANCH  18  25
ENDBRANCH  16  18
ENDBRANCH   1  16
BRANCH   1  28
ATOM     28  C   UNL     1       6.352   6.149  18.086  0.00  0.00    +0.000 C 
BRANCH  28  30
ATOM     29  C   UNL     1       7.958   8.156  17.662  0.00  0.00    +0.000 C 
ATOM     30  C   UNL     1       7.654   6.934  18.115  0.00  0.00    +0.000 C 
ENDBRANCH  28  30
ENDBRANCH   1  28
TORSDOF 10
ENDMDL
MODEL 8
REMARK VINA RESULT:      -6.9      2.405      7.166
REMARK  Name = 
REMARK  11 active torsions:
REMARK  status: ('A' for Active; 'I' for Inactive)
REMARK    1  A    between atoms: C_2  and  C_3
REMARK    2  A    between atoms: C_3  and  C_4
REMARK    3  A    between atoms: C_4  and  N_5
REMARK    4  A    between atoms: C_4  and  C_15
REMARK    5  A    between atoms: N_5  and  CA_6
REMARK    6  A    between atoms: CA_6  and  C_7
REMARK    7  A    between atoms: CA_6  and  C_9
REMARK    8  A    between atoms: C_7  and  O_8
REMARK    9  A    between atoms: C_18  and  O_20
REMARK   10  A    between atoms: O_20  and  C_21
REMARK   11  A    between atoms: C_21  and  C_22
REMARK                            x       y       z     vdW  Elec       q    Type
REMARK                         _______ _______ _______ _____ _____    ______ ____
ROOT
ATOM      1  C   UNL     1       1.987   7.694  18.649  0.00  0.00    +0.000 C 
ENDROOT
BRANCH   1   2
ATOM      2  C   UNL     1       2.796   6.448  18.138  0.00  0.00    +0.000 A 
ATOM      3  C   UNL     1       2.294   5.167  18.380  0.00  0.00    +0.000 A 
ATOM      4  N   UNL     1       3.432   4.431  18.547  0.00  0.00    +0.000 N 
ATOM      5  C   UNL     1       3.841   3.709  19.676  0.00  0.00    +0.000 C 
ATOM      6  O   UNL     1       4.842   3.019  19.665  0.00  0.00    +0.000 OA
ATOM      7  C   UNL     1       4.141   4.695  17.416  0.00  0.00    +0.000 A 
ATOM      8  C   UNL     1       4.980   3.877  16.655  0.00  0.00    +0.000 A 
ATOM      9  C   UNL     1       5.711   4.483  15.648  0.00  0.00    +0.000 A 
ATOM     10  C   UNL     1       5.639   5.862  15.479  0.00  0.00    +0.000 A 
ATOM     11  C   UNL     1       4.765   6.672  16.253  0.00  0.00    +0.000 A 
ATOM     12  C   UNL     1       3.915   6.085  17.227  0.00  0.00    +0.000 A 
BRANCH   5  13
ATOM     13  O   UNL     1       3.066   4.047  20.744  0.00  0.00    +0.000 OA
BRANCH  13  14
ATOM     14  C   UNL     1       2.388   2.954  21.377  0.00  0.00    +0.000 C 
ATOM     15  C   UNL     1       1.071   2.619  20.697  0.00  0.00    +0.000 C 
ENDBRANCH  13  14
ENDBRANCH   5  13
ENDBRANCH   1   2
BRANCH   1  16
ATOM     16  N   UNL     1       2.535   8.995  18.216  0.00  0.00    +0.000 NA
ATOM     17  H   UNL     1       3.181   8.858  17.442  0.00  0.00    +0.000 HD
BRANCH  16  18
ATOM     18  CA  UNL     1       1.566  10.038  17.876  0.00  0.00    +0.000 C 
BRANCH  18  19
ATOM     19  C   UNL     1       1.766  11.368  18.612  0.00  0.00    +0.000 A 
ATOM     20  C   UNL     1       1.213  11.670  19.870  0.00  0.00    +0.000 A 
ATOM     21  C   UNL     1       1.449  12.912  20.468  0.00  0.00    +0.000 A 
ATOM     22  C   UNL     1       2.213  13.879  19.827  0.00  0.00    +0.000 A 
ATOM     23  C   UNL     1       2.770  13.606  18.582  0.00  0.00    +0.000 A 
ATOM     24  C   UNL     1       2.557  12.363  17.989  0.00  0.00    +0.000 A 
ENDBRANCH  18  19
BRANCH  18  25
ATOM     25  C   UNL     1       0.081   9.580  17.996  0.00  0.00    +0.000 C 
BRANCH  25  26
ATOM     26  O   UNL     1      -0.828  10.435  17.304  0.00  0.00    +0.000 OA
ATOM     27  H   UNL     1      -1.575  10.599  17.907  0.00  0.00    +0.000 HD
ENDBRANCH  25  26
ENDBRANCH  18  25
ENDBRANCH  16  18
ENDBRANCH   1  16
BRANCH   1  28
ATOM     28  C   UNL     1       2.032   7.699  20.260  0.00  0.00    +0.000 C 
BRANCH  28  30
ATOM     29  C   UNL     1       1.116   9.082  22.268  0.00  0.00    +0.000 C 
ATOM     30  C   UNL     1       0.998   8.242  21.233  0.00  0.00    +0.000 C 
ENDBRANCH  28  30
ENDBRANCH   1  28
TORSDOF 10
ENDMDL
MODEL 9
REMARK VINA RESULT:      -6.8      5.840      9.404
REMARK  Name = 
REMARK  11 active torsions:
REMARK  status: ('A' for Active; 'I' for Inactive)
REMARK    1  A    between atoms: C_2  and  C_3
REMARK    2  A    between atoms: C_3  and  C_4
REMARK    3  A    between atoms: C_4  and  N_5
REMARK    4  A    between atoms: C_4  and  C_15
REMARK    5  A    between atoms: N_5  and  CA_6
REMARK    6  A    between atoms: CA_6  and  C_7
REMARK    7  A    between atoms: CA_6  and  C_9
REMARK    8  A    between atoms: C_7  and  O_8
REMARK    9  A    between atoms: C_18  and  O_20
REMARK   10  A    between atoms: O_20  and  C_21
REMARK   11  A    between atoms: C_21  and  C_22
REMARK                            x       y       z     vdW  Elec       q    Type
REMARK                         _______ _______ _______ _____ _____    ______ ____
ROOT
ATOM      1  C   UNL     1      -1.639  10.839  18.383  0.00  0.00    +0.000 C 
ENDROOT
BRANCH   1   2
ATOM      2  C   UNL     1      -2.933  11.545  18.928  0.00  0.00    +0.000 A 
ATOM      3  C   UNL     1      -2.808  12.754  19.615  0.00  0.00    +0.000 A 
ATOM      4  N   UNL     1      -3.818  12.678  20.531  0.00  0.00    +0.000 N 
ATOM      5  C   UNL     1      -3.726  12.696  21.928  0.00  0.00    +0.000 C 
ATOM      6  O   UNL     1      -4.716  12.710  22.634  0.00  0.00    +0.000 OA
ATOM      7  C   UNL     1      -4.914  12.428  19.763  0.00  0.00    +0.000 A 
ATOM      8  C   UNL     1      -6.238  12.853  19.898  0.00  0.00    +0.000 A 
ATOM      9  C   UNL     1      -7.175  12.283  19.055  0.00  0.00    +0.000 A 
ATOM     10  C   UNL     1      -6.787  11.281  18.172  0.00  0.00    +0.000 A 
ATOM     11  C   UNL     1      -5.431  10.876  18.039  0.00  0.00    +0.000 A 
ATOM     12  C   UNL     1      -4.415  11.504  18.805  0.00  0.00    +0.000 A 
BRANCH   5  13
ATOM     13  O   UNL     1      -2.429  12.524  22.306  0.00  0.00    +0.000 OA
BRANCH  13  14
ATOM     14  C   UNL     1      -2.221  11.590  23.375  0.00  0.00    +0.000 C 
ATOM     15  C   UNL     1      -1.079  10.630  23.090  0.00  0.00    +0.000 C 
ENDBRANCH  13  14
ENDBRANCH   5  13
ENDBRANCH   1   2
BRANCH   1  16
ATOM     16  N   UNL     1      -0.522  11.758  18.089  0.00  0.00    +0.000 NA
ATOM     17  H   UNL     1      -0.845  12.723  18.136  0.00  0.00    +0.000 HD
BRANCH  16  18
ATOM     18  CA  UNL     1       0.690  11.601  18.894  0.00  0.00    +0.000 C 
BRANCH  18  19
ATOM     19  C   UNL     1       1.207  10.162  19.006  0.00  0.00    +0.000 A 
ATOM     20  C   UNL     1       1.091   9.364  20.159  0.00  0.00    +0.000 A 
ATOM     21  C   UNL     1       1.593   8.059  20.171  0.00  0.00    +0.000 A 
ATOM     22  C   UNL     1       2.234   7.530  19.057  0.00  0.00    +0.000 A 
ATOM     23  C   UNL     1       2.363   8.299  17.905  0.00  0.00    +0.000 A 
ATOM     24  C   UNL     1       1.847   9.593  17.878  0.00  0.00    +0.000 A 
ENDBRANCH  18  19
BRANCH  18  25
ATOM     25  C   UNL     1       0.593  12.244  20.310  0.00  0.00    +0.000 C 
BRANCH  25  26
ATOM     26  O   UNL     1       1.859  12.646  20.832  0.00  0.00    +0.000 OA
ATOM     27  H   UNL     1       2.501  12.569  20.104  0.00  0.00    +0.000 HD
ENDBRANCH  25  26
ENDBRANCH  18  25
ENDBRANCH  16  18
ENDBRANCH   1  16
BRANCH   1  28
ATOM     28  C   UNL     1      -2.007  10.117  16.990  0.00  0.00    +0.000 C 
BRANCH  28  30
ATOM     29  C   UNL     1      -3.180  10.164  14.664  0.00  0.00    +0.000 C 
ATOM     30  C   UNL     1      -2.622  10.729  15.742  0.00  0.00    +0.000 C 
ENDBRANCH  28  30
ENDBRANCH   1  28
TORSDOF 10
ENDMDL
