MODEL 1
REMARK VINA RESULT:      -7.0      0.000      0.000
REMARK  Name = 
REMARK  11 active torsions:
REMARK  status: ('A' for Active; 'I' for Inactive)
REMARK    1  A    between atoms: C_1  and  C_2
REMARK    2  A    between atoms: N_4  and  C_5
REMARK    3  A    between atoms: C_5  and  C_6
REMARK    4  A    between atoms: C_5  and  C_7
REMARK    5  A    between atoms: C_7  and  O_8
REMARK    6  A    between atoms: C_15  and  C_16
REMARK    7  A    between atoms: C_25  and  C_26
REMARK    8  A    between atoms: C_26  and  N_27
REMARK    9  A    between atoms: N_27  and  C_28
REMARK   10  A    between atoms: N_27  and  C_29
REMARK   11  A    between atoms: C_29  and  C_30
REMARK                            x       y       z     vdW  Elec       q    Type
REMARK                         _______ _______ _______ _____ _____    ______ ____
ROOT
ATOM      1  C   UNL     1      -5.827  16.040  19.843  0.00  0.00    +0.000 C 
ATOM      2  C   UNL     1      -5.060  14.929  20.578  0.00  0.00    +0.000 C 
ATOM      3  C   UNL     1      -5.127  15.177  22.127  0.00  0.00    +0.000 C 
ATOM      4  N   UNL     1      -5.542  14.029  22.970  0.00  0.00    +0.000 NA
ATOM      5  S   UNL     1      -4.350  13.286  23.883  0.00  0.00    +0.000 S 
ATOM      6  O   UNL     1      -3.897  14.296  24.822  0.00  0.00    +0.000 OA
ATOM      7  O   UNL     1      -4.731  11.979  24.354  0.00  0.00    +0.000 OA
ATOM      8  C   UNL     1      -3.074  13.046  22.691  0.00  0.00    +0.000 A 
ATOM      9  C   UNL     1      -1.794  13.366  23.160  0.00  0.00    +0.000 A 
ATOM     10  C   UNL     1      -0.741  13.374  22.279  0.00  0.00    +0.000 A 
ATOM     11  C   UNL     1      -0.904  13.002  20.937  0.00  0.00    +0.000 A 
ATOM     12  C   UNL     1      -2.219  12.703  20.471  0.00  0.00    +0.000 A 
ATOM     13  C   UNL     1      -3.326  12.752  21.339  0.00  0.00    +0.000 A 
ATOM     14  O   UNL     1      -4.622  12.485  20.895  0.00  0.00    +0.000 OA
ATOM     15  C   UNL     1      -5.218  13.472  19.986  0.00  0.00    +0.000 C 
ENDROOT
BRANCH  11  16
ATOM     16  C   UNL     1       0.324  12.980  20.109  0.00  0.00    +0.000 A 
ATOM     17  C   UNL     1       0.991  14.192  19.811  0.00  0.00    +0.000 A 
ATOM     18  C   UNL     1       2.024  14.260  18.878  0.00  0.00    +0.000 A 
ATOM     19  C   UNL     1       2.455  13.097  18.257  0.00  0.00    +0.000 A 
ATOM     20  C   UNL     1       1.858  11.877  18.579  0.00  0.00    +0.000 A 
ATOM     21  C   UNL     1       0.800  11.818  19.494  0.00  0.00    +0.000 A 
ENDBRANCH  11  16
BRANCH   4  22
ATOM     22  C   UNL     1      -6.952  13.582  22.966  0.00  0.00    +0.000 C 
ATOM     23  C   UNL     1      -7.653  14.023  24.245  0.00  0.00    +0.000 C 
BRANCH  22  24
ATOM     24  C   UNL     1      -7.268  12.104  22.687  0.00  0.00    +0.000 C 
BRANCH  24  25
ATOM     25  O   UNL     1      -7.591  11.387  23.864  0.00  0.00    +0.000 OA
ATOM     26  H   UNL     1      -7.867  10.493  23.587  0.00  0.00    +0.000 HD
ENDBRANCH  24  25
ENDBRANCH  22  24
ENDBRANCH   4  22
BRANCH  15  27
ATOM     27  C   UNL     1      -6.730  13.138  19.494  0.00  0.00    +0.000 C 
BRANCH  27  28
ATOM     28  N   UNL     1      -7.003  12.581  18.136  0.00  0.00    +0.000 NA
ATOM     29  C   UNL     1      -6.347  13.382  17.093  0.00  0.00    +0.000 C 
BRANCH  28  30
ATOM     30  C   UNL     1      -6.473  11.184  17.996  0.00  0.00    +0.000 C 
BRANCH  30  31
ATOM     31  C   UNL     1      -5.044  11.026  17.507  0.00  0.00    +0.000 A 
ATOM     32  C   UNL     1      -4.077  10.408  18.310  0.00  0.00    +0.000 A 
ATOM     33  C   UNL     1      -2.800  10.130  17.811  0.00  0.00    +0.000 A 
ATOM     34  C   UNL     1      -2.470  10.462  16.498  0.00  0.00    +0.000 A 
ATOM     35  C   UNL     1      -3.421  11.070  15.681  0.00  0.00    +0.000 A 
ATOM     36  C   UNL     1      -4.700  11.343  16.179  0.00  0.00    +0.000 A 
ENDBRANCH  30  31
ENDBRANCH  28  30
ENDBRANCH  27  28
ENDBRANCH  15  27
TORSDOF 8
ENDMDL
MODEL 2
REMARK VINA RESULT:      -6.7      4.119      6.266
REMARK  Name = 
REMARK  11 active torsions:
REMARK  status: ('A' for Active; 'I' for Inactive)
REMARK    1  A    between atoms: C_1  and  C_2
REMARK    2  A    between atoms: N_4  and  C_5
REMARK    3  A    between atoms: C_5  and  C_6
REMARK    4  A    between atoms: C_5  and  C_7
REMARK    5  A    between atoms: C_7  and  O_8
REMARK    6  A    between atoms: C_15  and  C_16
REMARK    7  A    between atoms: C_25  and  C_26
REMARK    8  A    between atoms: C_26  and  N_27
REMARK    9  A    between atoms: N_27  and  C_28
REMARK   10  A    between atoms: N_27  and  C_29
REMARK   11  A    between atoms: C_29  and  C_30
REMARK                            x       y       z     vdW  Elec       q    Type
REMARK                         _______ _______ _______ _____ _____    ______ ____
ROOT
ATOM      1  C   UNL     1       1.799  13.271  19.010  0.00  0.00    +0.000 C 
ATOM      2  C   UNL     1       1.334  11.865  19.422  0.00  0.00    +0.000 C 
ATOM      3  C   UNL     1       1.377  11.733  20.986  0.00  0.00    +0.000 C 
ATOM      4  N   UNL     1       0.156  11.209  21.646  0.00  0.00    +0.000 NA
ATOM      5  S   UNL     1       0.228   9.646  22.247  0.00  0.00    +0.000 S 
ATOM      6  O   UNL     1       1.234   9.680  23.293  0.00  0.00    +0.000 OA
ATOM      7  O   UNL     1      -1.072   9.083  22.511  0.00  0.00    +0.000 OA
ATOM      8  C   UNL     1       0.900   8.760  20.880  0.00  0.00    +0.000 A 
ATOM      9  C   UNL     1       1.897   7.844  21.234  0.00  0.00    +0.000 A 
ATOM     10  C   UNL     1       2.607   7.210  20.244  0.00  0.00    +0.000 A 
ATOM     11  C   UNL     1       2.311   7.407  18.888  0.00  0.00    +0.000 A 
ATOM     12  C   UNL     1       1.308   8.363  18.545  0.00  0.00    +0.000 A 
ATOM     13  C   UNL     1       0.611   9.074  19.539  0.00  0.00    +0.000 A 
ATOM     14  O   UNL     1      -0.355  10.029  19.221  0.00  0.00    +0.000 OA
ATOM     15  C   UNL     1       0.128  11.266  18.594  0.00  0.00    +0.000 C 
ENDROOT
BRANCH  11  16
ATOM     16  C   UNL     1       3.099   6.608  17.922  0.00  0.00    +0.000 A 
ATOM     17  C   UNL     1       2.914   5.207  17.855  0.00  0.00    +0.000 A 
ATOM     18  C   UNL     1       3.762   4.381  17.120  0.00  0.00    +0.000 A 
ATOM     19  C   UNL     1       4.791   4.949  16.383  0.00  0.00    +0.000 A 
ATOM     20  C   UNL     1       4.959   6.334  16.379  0.00  0.00    +0.000 A 
ATOM     21  C   UNL     1       4.124   7.158  17.144  0.00  0.00    +0.000 A 
ENDBRANCH  11  16
BRANCH   4  22
ATOM     22  C   UNL     1      -1.054  12.054  21.737  0.00  0.00    +0.000 C 
ATOM     23  C   UNL     1      -0.676  13.530  21.687  0.00  0.00    +0.000 C 
BRANCH  22  24
ATOM     24  C   UNL     1      -2.051  11.814  22.883  0.00  0.00    +0.000 C 
BRANCH  24  25
ATOM     25  O   UNL     1      -3.240  12.570  22.734  0.00  0.00    +0.000 OA
ATOM     26  H   UNL     1      -3.974  11.933  22.654  0.00  0.00    +0.000 HD
ENDBRANCH  24  25
ENDBRANCH  22  24
ENDBRANCH   4  22
BRANCH  15  27
ATOM     27  C   UNL     1      -1.020  12.360  18.244  0.00  0.00    +0.000 C 
BRANCH  27  28
ATOM     28  N   UNL     1      -2.349  11.949  17.702  0.00  0.00    +0.000 NA
ATOM     29  C   UNL     1      -2.201  10.980  16.609  0.00  0.00    +0.000 C 
BRANCH  28  30
ATOM     30  C   UNL     1      -3.189  11.281  18.752  0.00  0.00    +0.000 C 
BRANCH  30  31
ATOM     31  C   UNL     1      -4.642  11.710  18.859  0.00  0.00    +0.000 A 
ATOM     32  C   UNL     1      -4.994  12.885  19.535  0.00  0.00    +0.000 A 
ATOM     33  C   UNL     1      -6.310  13.358  19.513  0.00  0.00    +0.000 A 
ATOM     34  C   UNL     1      -7.296  12.666  18.811  0.00  0.00    +0.000 A 
ATOM     35  C   UNL     1      -6.964  11.499  18.126  0.00  0.00    +0.000 A 
ATOM     36  C   UNL     1      -5.646  11.028  18.144  0.00  0.00    +0.000 A 
ENDBRANCH  30  31
ENDBRANCH  28  30
ENDBRANCH  27  28
ENDBRANCH  15  27
TORSDOF 8
ENDMDL
MODEL 3
REMARK VINA RESULT:      -6.7      0.929      1.400
REMARK  Name = 
REMARK  11 active torsions:
REMARK  status: ('A' for Active; 'I' for Inactive)
REMARK    1  A    between atoms: C_1  and  C_2
REMARK    2  A    between atoms: N_4  and  C_5
REMARK    3  A    between atoms: C_5  and  C_6
REMARK    4  A    between atoms: C_5  and  C_7
REMARK    5  A    between atoms: C_7  and  O_8
REMARK    6  A    between atoms: C_15  and  C_16
REMARK    7  A    between atoms: C_25  and  C_26
REMARK    8  A    between atoms: C_26  and  N_27
REMARK    9  A    between atoms: N_27  and  C_28
REMARK   10  A    between atoms: N_27  and  C_29
REMARK   11  A    between atoms: C_29  and  C_30
REMARK                            x       y       z     vdW  Elec       q    Type
REMARK                         _______ _______ _______ _____ _____    ______ ____
ROOT
ATOM      1  C   UNL     1      -5.413  16.194  19.955  0.00  0.00    +0.000 C 
ATOM      2  C   UNL     1      -4.565  15.187  20.749  0.00  0.00    +0.000 C 
ATOM      3  C   UNL     1      -4.736  15.452  22.288  0.00  0.00    +0.000 C 
ATOM      4  N   UNL     1      -5.062  14.279  23.135  0.00  0.00    +0.000 NA
ATOM      5  S   UNL     1      -3.842  13.688  24.119  0.00  0.00    +0.000 S 
ATOM      6  O   UNL     1      -3.549  14.757  25.056  0.00  0.00    +0.000 OA
ATOM      7  O   UNL     1      -4.100  12.355  24.600  0.00  0.00    +0.000 OA
ATOM      8  C   UNL     1      -2.490  13.572  22.994  0.00  0.00    +0.000 A 
ATOM      9  C   UNL     1      -1.278  14.039  23.515  0.00  0.00    +0.000 A 
ATOM     10  C   UNL     1      -0.190  14.150  22.685  0.00  0.00    +0.000 A 
ATOM     11  C   UNL     1      -0.245  13.740  21.345  0.00  0.00    +0.000 A 
ATOM     12  C   UNL     1      -1.495  13.288  20.825  0.00  0.00    +0.000 A 
ATOM     13  C   UNL     1      -2.642  13.228  21.638  0.00  0.00    +0.000 A 
ATOM     14  O   UNL     1      -3.877  12.812  21.140  0.00  0.00    +0.000 OA
ATOM     15  C   UNL     1      -4.533  13.712  20.182  0.00  0.00    +0.000 C 
ENDROOT
BRANCH  11  16
ATOM     16  C   UNL     1       1.017  13.840  20.577  0.00  0.00    +0.000 A 
ATOM     17  C   UNL     1       1.912  14.905  20.835  0.00  0.00    +0.000 A 
ATOM     18  C   UNL     1       3.007  15.168  20.015  0.00  0.00    +0.000 A 
ATOM     19  C   UNL     1       3.267  14.332  18.939  0.00  0.00    +0.000 A 
ATOM     20  C   UNL     1       2.437  13.236  18.698  0.00  0.00    +0.000 A 
ATOM     21  C   UNL     1       1.320  12.993  19.506  0.00  0.00    +0.000 A 
ENDBRANCH  11  16
BRANCH   4  22
ATOM     22  C   UNL     1      -6.413  13.678  23.074  0.00  0.00    +0.000 C 
ATOM     23  C   UNL     1      -7.441  14.722  22.656  0.00  0.00    +0.000 C 
BRANCH  22  24
ATOM     24  C   UNL     1      -6.939  12.893  24.287  0.00  0.00    +0.000 C 
BRANCH  24  25
ATOM     25  O   UNL     1      -7.145  11.522  23.997  0.00  0.00    +0.000 OA
ATOM     26  H   UNL     1      -6.280  11.150  23.747  0.00  0.00    +0.000 HD
ENDBRANCH  24  25
ENDBRANCH  22  24
ENDBRANCH   4  22
BRANCH  15  27
ATOM     27  C   UNL     1      -5.973  13.204  19.628  0.00  0.00    +0.000 C 
BRANCH  27  28
ATOM     28  N   UNL     1      -6.165  11.813  19.120  0.00  0.00    +0.000 NA
ATOM     29  C   UNL     1      -7.539  11.348  19.351  0.00  0.00    +0.000 C 
BRANCH  28  30
ATOM     30  C   UNL     1      -5.931  11.730  17.640  0.00  0.00    +0.000 C 
BRANCH  30  31
ATOM     31  C   UNL     1      -4.663  11.037  17.172  0.00  0.00    +0.000 A 
ATOM     32  C   UNL     1      -4.171  11.242  15.877  0.00  0.00    +0.000 A 
ATOM     33  C   UNL     1      -2.931  10.724  15.490  0.00  0.00    +0.000 A 
ATOM     34  C   UNL     1      -2.160   9.994  16.393  0.00  0.00    +0.000 A 
ATOM     35  C   UNL     1      -2.628   9.786  17.688  0.00  0.00    +0.000 A 
ATOM     36  C   UNL     1      -3.867  10.309  18.077  0.00  0.00    +0.000 A 
ENDBRANCH  30  31
ENDBRANCH  28  30
ENDBRANCH  27  28
ENDBRANCH  15  27
TORSDOF 8
ENDMDL
MODEL 4
REMARK VINA RESULT:      -6.5      4.060      6.578
REMARK  Name = 
REMARK  11 active torsions:
REMARK  status: ('A' for Active; 'I' for Inactive)
REMARK    1  A    between atoms: C_1  and  C_2
REMARK    2  A    between atoms: N_4  and  C_5
REMARK    3  A    between atoms: C_5  and  C_6
REMARK    4  A    between atoms: C_5  and  C_7
REMARK    5  A    between atoms: C_7  and  O_8
REMARK    6  A    between atoms: C_15  and  C_16
REMARK    7  A    between atoms: C_25  and  C_26
REMARK    8  A    between atoms: C_26  and  N_27
REMARK    9  A    between atoms: N_27  and  C_28
REMARK   10  A    between atoms: N_27  and  C_29
REMARK   11  A    between atoms: C_29  and  C_30
REMARK                            x       y       z     vdW  Elec       q    Type
REMARK                         _______ _______ _______ _____ _____    ______ ____
ROOT
ATOM      1  C   UNL     1      -0.156  10.916  18.414  0.00  0.00    +0.000 C 
ATOM      2  C   UNL     1       0.310  12.141  19.216  0.00  0.00    +0.000 C 
ATOM      3  C   UNL     1      -0.692  13.330  18.995  0.00  0.00    +0.000 C 
ATOM      4  N   UNL     1      -1.198  14.013  20.211  0.00  0.00    +0.000 NA
ATOM      5  S   UNL     1      -0.599  15.544  20.528  0.00  0.00    +0.000 S 
ATOM      6  O   UNL     1      -1.045  16.371  19.421  0.00  0.00    +0.000 OA
ATOM      7  O   UNL     1      -0.825  15.970  21.886  0.00  0.00    +0.000 OA
ATOM      8  C   UNL     1       1.138  15.301  20.352  0.00  0.00    +0.000 A 
ATOM      9  C   UNL     1       1.783  16.316  19.637  0.00  0.00    +0.000 A 
ATOM     10  C   UNL     1       3.104  16.161  19.296  0.00  0.00    +0.000 A 
ATOM     11  C   UNL     1       3.841  15.041  19.708  0.00  0.00    +0.000 A 
ATOM     12  C   UNL     1       3.161  14.005  20.416  0.00  0.00    +0.000 A 
ATOM     13  C   UNL     1       1.791  14.110  20.720  0.00  0.00    +0.000 A 
ATOM     14  O   UNL     1       1.106  13.096  21.390  0.00  0.00    +0.000 OA
ATOM     15  C   UNL     1       0.904  11.843  20.650  0.00  0.00    +0.000 C 
ENDROOT
BRANCH  11  16
ATOM     16  C   UNL     1       5.276  15.029  19.340  0.00  0.00    +0.000 A 
ATOM     17  C   UNL     1       5.653  14.806  17.995  0.00  0.00    +0.000 A 
ATOM     18  C   UNL     1       6.977  14.582  17.624  0.00  0.00    +0.000 A 
ATOM     19  C   UNL     1       7.970  14.631  18.590  0.00  0.00    +0.000 A 
ATOM     20  C   UNL     1       7.635  14.912  19.915  0.00  0.00    +0.000 A 
ATOM     21  C   UNL     1       6.300  15.106  20.290  0.00  0.00    +0.000 A 
ENDBRANCH  11  16
BRANCH   4  22
ATOM     22  C   UNL     1      -2.177  13.331  21.086  0.00  0.00    +0.000 C 
ATOM     23  C   UNL     1      -3.569  13.384  20.469  0.00  0.00    +0.000 C 
BRANCH  22  24
ATOM     24  C   UNL     1      -2.255  13.724  22.571  0.00  0.00    +0.000 C 
BRANCH  24  25
ATOM     25  O   UNL     1      -1.078  13.386  23.283  0.00  0.00    +0.000 OA
ATOM     26  H   UNL     1      -1.352  13.144  24.187  0.00  0.00    +0.000 HD
ENDBRANCH  24  25
ENDBRANCH  22  24
ENDBRANCH   4  22
BRANCH  15  27
ATOM     27  C   UNL     1       0.096  10.686  21.455  0.00  0.00    +0.000 C 
BRANCH  27  28
ATOM     28  N   UNL     1       0.799   9.502  22.033  0.00  0.00    +0.000 NA
ATOM     29  C   UNL     1       0.433   9.304  23.442  0.00  0.00    +0.000 C 
BRANCH  28  30
ATOM     30  C   UNL     1       0.429   8.237  21.316  0.00  0.00    +0.000 C 
BRANCH  30  31
ATOM     31  C   UNL     1       1.479   7.617  20.410  0.00  0.00    +0.000 A 
ATOM     32  C   UNL     1       1.916   6.303  20.615  0.00  0.00    +0.000 A 
ATOM     33  C   UNL     1       2.772   5.680  19.700  0.00  0.00    +0.000 A 
ATOM     34  C   UNL     1       3.201   6.361  18.562  0.00  0.00    +0.000 A 
ATOM     35  C   UNL     1       2.771   7.667  18.336  0.00  0.00    +0.000 A 
ATOM     36  C   UNL     1       1.910   8.288  19.249  0.00  0.00    +0.000 A 
ENDBRANCH  30  31
ENDBRANCH  28  30
ENDBRANCH  27  28
ENDBRANCH  15  27
TORSDOF 8
ENDMDL
MODEL 5
REMARK VINA RESULT:      -6.5      3.947      6.579
REMARK  Name = 
REMARK  11 active torsions:
REMARK  status: ('A' for Active; 'I' for Inactive)
REMARK    1  A    between atoms: C_1  and  C_2
REMARK    2  A    between atoms: N_4  and  C_5
REMARK    3  A    between atoms: C_5  and  C_6
REMARK    4  A    between atoms: C_5  and  C_7
REMARK    5  A    between atoms: C_7  and  O_8
REMARK    6  A    between atoms: C_15  and  C_16
REMARK    7  A    between atoms: C_25  and  C_26
REMARK    8  A    between atoms: C_26  and  N_27
REMARK    9  A    between atoms: N_27  and  C_28
REMARK   10  A    between atoms: N_27  and  C_29
REMARK   11  A    between atoms: C_29  and  C_30
REMARK                            x       y       z     vdW  Elec       q    Type
REMARK                         _______ _______ _______ _____ _____    ______ ____
ROOT
ATOM      1  C   UNL     1      -0.343  10.968  18.091  0.00  0.00    +0.000 C 
ATOM      2  C   UNL     1       0.112  12.117  19.003  0.00  0.00    +0.000 C 
ATOM      3  C   UNL     1      -1.032  13.186  19.117  0.00  0.00    +0.000 C 
ATOM      4  N   UNL     1      -1.408  13.621  20.485  0.00  0.00    +0.000 NA
ATOM      5  S   UNL     1      -0.930  15.157  20.952  0.00  0.00    +0.000 S 
ATOM      6  O   UNL     1      -1.632  16.067  20.065  0.00  0.00    +0.000 OA
ATOM      7  O   UNL     1      -0.982  15.354  22.379  0.00  0.00    +0.000 OA
ATOM      8  C   UNL     1       0.772  15.165  20.498  0.00  0.00    +0.000 A 
ATOM      9  C   UNL     1       1.185  16.345  19.868  0.00  0.00    +0.000 A 
ATOM     10  C   UNL     1       2.444  16.410  19.325  0.00  0.00    +0.000 A 
ATOM     11  C   UNL     1       3.351  15.347  19.446  0.00  0.00    +0.000 A 
ATOM     12  C   UNL     1       2.905  14.143  20.069  0.00  0.00    +0.000 A 
ATOM     13  C   UNL     1       1.597  14.028  20.576  0.00  0.00    +0.000 A 
ATOM     14  O   UNL     1       1.138  12.851  21.166  0.00  0.00    +0.000 OA
ATOM     15  C   UNL     1       0.955  11.699  20.274  0.00  0.00    +0.000 C 
ENDROOT
BRANCH  11  16
ATOM     16  C   UNL     1       4.702  15.571  18.882  0.00  0.00    +0.000 A 
ATOM     17  C   UNL     1       5.290  14.584  18.057  0.00  0.00    +0.000 A 
ATOM     18  C   UNL     1       6.626  14.644  17.667  0.00  0.00    +0.000 A 
ATOM     19  C   UNL     1       7.397  15.731  18.050  0.00  0.00    +0.000 A 
ATOM     20  C   UNL     1       6.826  16.752  18.810  0.00  0.00    +0.000 A 
ATOM     21  C   UNL     1       5.492  16.673  19.227  0.00  0.00    +0.000 A 
ENDBRANCH  11  16
BRANCH   4  22
ATOM     22  C   UNL     1      -2.158  12.703  21.370  0.00  0.00    +0.000 C 
ATOM     23  C   UNL     1      -3.648  12.761  21.055  0.00  0.00    +0.000 C 
BRANCH  22  24
ATOM     24  C   UNL     1      -1.947  12.791  22.891  0.00  0.00    +0.000 C 
BRANCH  24  25
ATOM     25  O   UNL     1      -0.613  12.507  23.270  0.00  0.00    +0.000 OA
ATOM     26  H   UNL     1      -0.654  11.837  23.978  0.00  0.00    +0.000 HD
ENDBRANCH  24  25
ENDBRANCH  22  24
ENDBRANCH   4  22
BRANCH  15  27
ATOM     27  C   UNL     1       0.411  10.346  20.990  0.00  0.00    +0.000 C 
BRANCH  27  28
ATOM     28  N   UNL     1       1.350   9.332  21.556  0.00  0.00    +0.000 NA
ATOM     29  C   UNL     1       1.217   9.242  23.017  0.00  0.00    +0.000 C 
BRANCH  28  30
ATOM     30  C   UNL     1       1.068   7.960  21.019  0.00  0.00    +0.000 C 
BRANCH  30  31
ATOM     31  C   UNL     1       1.889   7.496  19.827  0.00  0.00    +0.000 A 
ATOM     32  C   UNL     1       2.163   8.365  18.764  0.00  0.00    +0.000 A 
ATOM     33  C   UNL     1       3.036   7.989  17.737  0.00  0.00    +0.000 A 
ATOM     34  C   UNL     1       3.652   6.740  17.759  0.00  0.00    +0.000 A 
ATOM     35  C   UNL     1       3.399   5.864  18.813  0.00  0.00    +0.000 A 
ATOM     36  C   UNL     1       2.530   6.242  19.843  0.00  0.00    +0.000 A 
ENDBRANCH  30  31
ENDBRANCH  28  30
ENDBRANCH  27  28
ENDBRANCH  15  27
TORSDOF 8
ENDMDL
MODEL 6
REMARK VINA RESULT:      -6.5      5.194      7.610
REMARK  Name = 
REMARK  11 active torsions:
REMARK  status: ('A' for Active; 'I' for Inactive)
REMARK    1  A    between atoms: C_1  and  C_2
REMARK    2  A    between atoms: N_4  and  C_5
REMARK    3  A    between atoms: C_5  and  C_6
REMARK    4  A    between atoms: C_5  and  C_7
REMARK    5  A    between atoms: C_7  and  O_8
REMARK    6  A    between atoms: C_15  and  C_16
REMARK    7  A    between atoms: C_25  and  C_26
REMARK    8  A    between atoms: C_26  and  N_27
REMARK    9  A    between atoms: N_27  and  C_28
REMARK   10  A    between atoms: N_27  and  C_29
REMARK   11  A    between atoms: C_29  and  C_30
REMARK                            x       y       z     vdW  Elec       q    Type
REMARK                         _______ _______ _______ _____ _____    ______ ____
ROOT
ATOM      1  C   UNL     1       1.529  13.274  18.283  0.00  0.00    +0.000 C 
ATOM      2  C   UNL     1       2.146  14.033  19.468  0.00  0.00    +0.000 C 
ATOM      3  C   UNL     1       1.923  15.576  19.280  0.00  0.00    +0.000 C 
ATOM      4  N   UNL     1       1.354  16.315  20.434  0.00  0.00    +0.000 NA
ATOM      5  S   UNL     1       2.394  17.314  21.285  0.00  0.00    +0.000 S 
ATOM      6  O   UNL     1       2.797  18.343  20.344  0.00  0.00    +0.000 OA
ATOM      7  O   UNL     1       1.890  17.679  22.584  0.00  0.00    +0.000 OA
ATOM      8  C   UNL     1       3.778  16.257  21.554  0.00  0.00    +0.000 A 
ATOM      9  C   UNL     1       5.014  16.874  21.332  0.00  0.00    +0.000 A 
ATOM     10  C   UNL     1       6.157  16.114  21.353  0.00  0.00    +0.000 A 
ATOM     11  C   UNL     1       6.122  14.746  21.659  0.00  0.00    +0.000 A 
ATOM     12  C   UNL     1       4.851  14.128  21.858  0.00  0.00    +0.000 A 
ATOM     13  C   UNL     1       3.660  14.873  21.777  0.00  0.00    +0.000 A 
ATOM     14  O   UNL     1       2.409  14.280  21.945  0.00  0.00    +0.000 OA
ATOM     15  C   UNL     1       1.973  13.359  20.887  0.00  0.00    +0.000 C 
ENDROOT
BRANCH  11  16
ATOM     16  C   UNL     1       7.431  14.055  21.722  0.00  0.00    +0.000 A 
ATOM     17  C   UNL     1       8.357  14.209  20.664  0.00  0.00    +0.000 A 
ATOM     18  C   UNL     1       9.510  13.431  20.569  0.00  0.00    +0.000 A 
ATOM     19  C   UNL     1       9.793  12.512  21.568  0.00  0.00    +0.000 A 
ATOM     20  C   UNL     1       8.929  12.383  22.657  0.00  0.00    +0.000 A 
ATOM     21  C   UNL     1       7.756  13.144  22.733  0.00  0.00    +0.000 A 
ENDBRANCH  11  16
BRANCH   4  22
ATOM     22  C   UNL     1      -0.071  16.137  20.793  0.00  0.00    +0.000 C 
ATOM     23  C   UNL     1      -0.957  16.975  19.880  0.00  0.00    +0.000 C 
BRANCH  22  24
ATOM     24  C   UNL     1      -0.504  16.333  22.255  0.00  0.00    +0.000 C 
BRANCH  24  25
ATOM     25  O   UNL     1       0.095  15.392  23.128  0.00  0.00    +0.000 OA
ATOM     26  H   UNL     1       0.957  15.761  23.396  0.00  0.00    +0.000 HD
ENDBRANCH  24  25
ENDBRANCH  22  24
ENDBRANCH   4  22
BRANCH  15  27
ATOM     27  C   UNL     1       0.507  12.693  21.108  0.00  0.00    +0.000 C 
BRANCH  27  28
ATOM     28  N   UNL     1       0.354  11.262  21.509  0.00  0.00    +0.000 NA
ATOM     29  C   UNL     1      -0.533  11.129  22.671  0.00  0.00    +0.000 C 
BRANCH  28  30
ATOM     30  C   UNL     1      -0.258  10.445  20.409  0.00  0.00    +0.000 C 
BRANCH  30  31
ATOM     31  C   UNL     1       0.638   9.440  19.705  0.00  0.00    +0.000 A 
ATOM     32  C   UNL     1       1.026   9.636  18.374  0.00  0.00    +0.000 A 
ATOM     33  C   UNL     1       1.964   8.793  17.769  0.00  0.00    +0.000 A 
ATOM     34  C   UNL     1       2.532   7.742  18.486  0.00  0.00    +0.000 A 
ATOM     35  C   UNL     1       2.165   7.536  19.814  0.00  0.00    +0.000 A 
ATOM     36  C   UNL     1       1.231   8.382  20.422  0.00  0.00    +0.000 A 
ENDBRANCH  30  31
ENDBRANCH  28  30
ENDBRANCH  27  28
ENDBRANCH  15  27
TORSDOF 8
ENDMDL
MODEL 7
REMARK VINA RESULT:      -6.5      4.250      6.314
REMARK  Name = 
REMARK  11 active torsions:
REMARK  status: ('A' for Active; 'I' for Inactive)
REMARK    1  A    between atoms: C_1  and  C_2
REMARK    2  A    between atoms: N_4  and  C_5
REMARK    3  A    between atoms: C_5  and  C_6
REMARK    4  A    between atoms: C_5  and  C_7
REMARK    5  A    between atoms: C_7  and  O_8
REMARK    6  A    between atoms: C_15  and  C_16
REMARK    7  A    between atoms: C_25  and  C_26
REMARK    8  A    between atoms: C_26  and  N_27
REMARK    9  A    between atoms: N_27  and  C_28
REMARK   10  A    between atoms: N_27  and  C_29
REMARK   11  A    between atoms: C_29  and  C_30
REMARK                            x       y       z     vdW  Elec       q    Type
REMARK                         _______ _______ _______ _____ _____    ______ ____
ROOT
ATOM      1  C   UNL     1      -0.772  12.413  17.927  0.00  0.00    +0.000 C 
ATOM      2  C   UNL     1      -0.135  12.949  19.220  0.00  0.00    +0.000 C 
ATOM      3  C   UNL     1      -1.175  13.837  19.992  0.00  0.00    +0.000 C 
ATOM      4  N   UNL     1      -1.370  13.539  21.432  0.00  0.00    +0.000 NA
ATOM      5  S   UNL     1      -0.728  14.631  22.528  0.00  0.00    +0.000 S 
ATOM      6  O   UNL     1      -1.446  15.872  22.302  0.00  0.00    +0.000 OA
ATOM      7  O   UNL     1      -0.614  14.093  23.860  0.00  0.00    +0.000 OA
ATOM      8  C   UNL     1       0.913  14.838  21.920  0.00  0.00    +0.000 A 
ATOM      9  C   UNL     1       1.348  16.168  21.905  0.00  0.00    +0.000 A 
ATOM     10  C   UNL     1       2.544  16.476  21.305  0.00  0.00    +0.000 A 
ATOM     11  C   UNL     1       3.373  15.480  20.769  0.00  0.00    +0.000 A 
ATOM     12  C   UNL     1       2.903  14.132  20.771  0.00  0.00    +0.000 A 
ATOM     13  C   UNL     1       1.650  13.800  21.320  0.00  0.00    +0.000 A 
ATOM     14  O   UNL     1       1.166  12.493  21.309  0.00  0.00    +0.000 OA
ATOM     15  C   UNL     1       0.801  11.941  19.998  0.00  0.00    +0.000 C 
ENDROOT
BRANCH  11  16
ATOM     16  C   UNL     1       4.671  15.934  20.219  0.00  0.00    +0.000 A 
ATOM     17  C   UNL     1       5.216  17.171  20.637  0.00  0.00    +0.000 A 
ATOM     18  C   UNL     1       6.321  17.744  20.011  0.00  0.00    +0.000 A 
ATOM     19  C   UNL     1       6.945  17.062  18.978  0.00  0.00    +0.000 A 
ATOM     20  C   UNL     1       6.468  15.810  18.586  0.00  0.00    +0.000 A 
ATOM     21  C   UNL     1       5.339  15.252  19.197  0.00  0.00    +0.000 A 
ENDBRANCH  11  16
BRANCH   4  22
ATOM     22  C   UNL     1      -2.092  12.314  21.840  0.00  0.00    +0.000 C 
ATOM     23  C   UNL     1      -3.597  12.544  21.792  0.00  0.00    +0.000 C 
BRANCH  22  24
ATOM     24  C   UNL     1      -1.715  11.629  23.164  0.00  0.00    +0.000 C 
BRANCH  24  25
ATOM     25  O   UNL     1      -0.395  11.116  23.152  0.00  0.00    +0.000 OA
ATOM     26  H   UNL     1      -0.222  10.795  22.248  0.00  0.00    +0.000 HD
ENDBRANCH  24  25
ENDBRANCH  22  24
ENDBRANCH   4  22
BRANCH  15  27
ATOM     27  C   UNL     1       0.231  10.419  20.020  0.00  0.00    +0.000 C 
BRANCH  27  28
ATOM     28  N   UNL     1       0.899   9.326  19.253  0.00  0.00    +0.000 NA
ATOM     29  C   UNL     1       1.738   9.868  18.176  0.00  0.00    +0.000 C 
BRANCH  28  30
ATOM     30  C   UNL     1       1.806   8.513  20.129  0.00  0.00    +0.000 C 
BRANCH  30  31
ATOM     31  C   UNL     1       2.021   7.057  19.752  0.00  0.00    +0.000 A 
ATOM     32  C   UNL     1       1.595   6.027  20.599  0.00  0.00    +0.000 A 
ATOM     33  C   UNL     1       1.658   4.690  20.192  0.00  0.00    +0.000 A 
ATOM     34  C   UNL     1       2.146   4.362  18.928  0.00  0.00    +0.000 A 
ATOM     35  C   UNL     1       2.568   5.373  18.068  0.00  0.00    +0.000 A 
ATOM     36  C   UNL     1       2.498   6.711  18.473  0.00  0.00    +0.000 A 
ENDBRANCH  30  31
ENDBRANCH  28  30
ENDBRANCH  27  28
ENDBRANCH  15  27
TORSDOF 8
ENDMDL
MODEL 8
REMARK VINA RESULT:      -6.4      4.742      8.181
REMARK  Name = 
REMARK  11 active torsions:
REMARK  status: ('A' for Active; 'I' for Inactive)
REMARK    1  A    between atoms: C_1  and  C_2
REMARK    2  A    between atoms: N_4  and  C_5
REMARK    3  A    between atoms: C_5  and  C_6
REMARK    4  A    between atoms: C_5  and  C_7
REMARK    5  A    between atoms: C_7  and  O_8
REMARK    6  A    between atoms: C_15  and  C_16
REMARK    7  A    between atoms: C_25  and  C_26
REMARK    8  A    between atoms: C_26  and  N_27
REMARK    9  A    between atoms: N_27  and  C_28
REMARK   10  A    between atoms: N_27  and  C_29
REMARK   11  A    between atoms: C_29  and  C_30
REMARK                            x       y       z     vdW  Elec       q    Type
REMARK                         _______ _______ _______ _____ _____    ______ ____
ROOT
ATOM      1  C   UNL     1       3.832  14.652  21.245  0.00  0.00    +0.000 C 
ATOM      2  C   UNL     1       2.599  13.872  20.762  0.00  0.00    +0.000 C 
ATOM      3  C   UNL     1       1.470  13.941  21.852  0.00  0.00    +0.000 C 
ATOM      4  N   UNL     1       0.119  14.342  21.390  0.00  0.00    +0.000 NA
ATOM      5  S   UNL     1      -1.046  13.140  21.314  0.00  0.00    +0.000 S 
ATOM      6  O   UNL     1      -1.235  12.697  22.683  0.00  0.00    +0.000 OA
ATOM      7  O   UNL     1      -2.184  13.507  20.509  0.00  0.00    +0.000 OA
ATOM      8  C   UNL     1      -0.197  11.863  20.445  0.00  0.00    +0.000 A 
ATOM      9  C   UNL     1      -0.389  10.587  20.986  0.00  0.00    +0.000 A 
ATOM     10  C   UNL     1       0.346   9.534  20.497  0.00  0.00    +0.000 A 
ATOM     11  C   UNL     1       1.231   9.695  19.422  0.00  0.00    +0.000 A 
ATOM     12  C   UNL     1       1.432  11.008  18.899  0.00  0.00    +0.000 A 
ATOM     13  C   UNL     1       0.741  12.114  19.427  0.00  0.00    +0.000 A 
ATOM     14  O   UNL     1       0.942  13.407  18.944  0.00  0.00    +0.000 OA
ATOM     15  C   UNL     1       2.249  14.015  19.227  0.00  0.00    +0.000 C 
ENDROOT
BRANCH  11  16
ATOM     16  C   UNL     1       1.906   8.468  18.940  0.00  0.00    +0.000 A 
ATOM     17  C   UNL     1       1.983   7.333  19.781  0.00  0.00    +0.000 A 
ATOM     18  C   UNL     1       2.773   6.229  19.468  0.00  0.00    +0.000 A 
ATOM     19  C   UNL     1       3.469   6.212  18.268  0.00  0.00    +0.000 A 
ATOM     20  C   UNL     1       3.363   7.290  17.389  0.00  0.00    +0.000 A 
ATOM     21  C   UNL     1       2.591   8.411  17.722  0.00  0.00    +0.000 A 
ENDBRANCH  11  16
BRANCH   4  22
ATOM     22  C   UNL     1      -0.144  15.747  21.009  0.00  0.00    +0.000 C 
ATOM     23  C   UNL     1      -0.377  16.599  22.251  0.00  0.00    +0.000 C 
BRANCH  22  24
ATOM     24  C   UNL     1      -1.230  16.049  19.964  0.00  0.00    +0.000 C 
BRANCH  24  25
ATOM     25  O   UNL     1      -0.863  15.628  18.663  0.00  0.00    +0.000 OA
ATOM     26  H   UNL     1      -0.076  15.060  18.759  0.00  0.00    +0.000 HD
ENDBRANCH  24  25
ENDBRANCH  22  24
ENDBRANCH   4  22
BRANCH  15  27
ATOM     27  C   UNL     1       2.449  15.524  18.659  0.00  0.00    +0.000 C 
BRANCH  27  28
ATOM     28  N   UNL     1       3.581  15.870  17.748  0.00  0.00    +0.000 NA
ATOM     29  C   UNL     1       3.156  16.818  16.710  0.00  0.00    +0.000 C 
BRANCH  28  30
ATOM     30  C   UNL     1       4.704  16.530  18.492  0.00  0.00    +0.000 C 
BRANCH  30  31
ATOM     31  C   UNL     1       6.060  15.847  18.458  0.00  0.00    +0.000 A 
ATOM     32  C   UNL     1       6.211  14.584  17.873  0.00  0.00    +0.000 A 
ATOM     33  C   UNL     1       7.479  14.015  17.710  0.00  0.00    +0.000 A 
ATOM     34  C   UNL     1       8.617  14.702  18.126  0.00  0.00    +0.000 A 
ATOM     35  C   UNL     1       8.489  15.963  18.704  0.00  0.00    +0.000 A 
ATOM     36  C   UNL     1       7.221  16.534  18.862  0.00  0.00    +0.000 A 
ENDBRANCH  30  31
ENDBRANCH  28  30
ENDBRANCH  27  28
ENDBRANCH  15  27
TORSDOF 8
ENDMDL
MODEL 9
REMARK VINA RESULT:      -6.4      2.877      6.643
REMARK  Name = 
REMARK  11 active torsions:
REMARK  status: ('A' for Active; 'I' for Inactive)
REMARK    1  A    between atoms: C_1  and  C_2
REMARK    2  A    between atoms: N_4  and  C_5
REMARK    3  A    between atoms: C_5  and  C_6
REMARK    4  A    between atoms: C_5  and  C_7
REMARK    5  A    between atoms: C_7  and  O_8
REMARK    6  A    between atoms: C_15  and  C_16
REMARK    7  A    between atoms: C_25  and  C_26
REMARK    8  A    between atoms: C_26  and  N_27
REMARK    9  A    between atoms: N_27  and  C_28
REMARK   10  A    between atoms: N_27  and  C_29
REMARK   11  A    between atoms: C_29  and  C_30
REMARK                            x       y       z     vdW  Elec       q    Type
REMARK                         _______ _______ _______ _____ _____    ______ ____
ROOT
ATOM      1  C   UNL     1      -0.951   9.788  20.124  0.00  0.00    +0.000 C 
ATOM      2  C   UNL     1      -1.179  11.286  20.382  0.00  0.00    +0.000 C 
ATOM      3  C   UNL     1       0.127  11.924  20.977  0.00  0.00    +0.000 C 
ATOM      4  N   UNL     1       0.621  13.163  20.329  0.00  0.00    +0.000 NA
ATOM      5  S   UNL     1       0.416  14.596  21.172  0.00  0.00    +0.000 S 
ATOM      6  O   UNL     1       1.220  14.456  22.373  0.00  0.00    +0.000 OA
ATOM      7  O   UNL     1       0.555  15.765  20.341  0.00  0.00    +0.000 OA
ATOM      8  C   UNL     1      -1.279  14.504  21.644  0.00  0.00    +0.000 A 
ATOM      9  C   UNL     1      -1.520  14.886  22.968  0.00  0.00    +0.000 A 
ATOM     10  C   UNL     1      -2.773  14.706  23.501  0.00  0.00    +0.000 A 
ATOM     11  C   UNL     1      -3.833  14.211  22.729  0.00  0.00    +0.000 A 
ATOM     12  C   UNL     1      -3.564  13.803  21.388  0.00  0.00    +0.000 A 
ATOM     13  C   UNL     1      -2.273  13.916  20.840  0.00  0.00    +0.000 A 
ATOM     14  O   UNL     1      -1.987  13.500  19.539  0.00  0.00    +0.000 OA
ATOM     15  C   UNL     1      -2.027  12.053  19.291  0.00  0.00    +0.000 C 
ENDROOT
BRANCH  11  16
ATOM     16  C   UNL     1      -5.152  14.134  23.400  0.00  0.00    +0.000 A 
ATOM     17  C   UNL     1      -5.659  12.878  23.808  0.00  0.00    +0.000 A 
ATOM     18  C   UNL     1      -6.969  12.717  24.255  0.00  0.00    +0.000 A 
ATOM     19  C   UNL     1      -7.793  13.828  24.357  0.00  0.00    +0.000 A 
ATOM     20  C   UNL     1      -7.300  15.090  24.022  0.00  0.00    +0.000 A 
ATOM     21  C   UNL     1      -5.993  15.243  23.544  0.00  0.00    +0.000 A 
ENDBRANCH  11  16
BRANCH   4  22
ATOM     22  C   UNL     1       1.247  13.096  18.990  0.00  0.00    +0.000 C 
ATOM     23  C   UNL     1       1.633  11.661  18.656  0.00  0.00    +0.000 C 
BRANCH  22  24
ATOM     24  C   UNL     1       2.419  14.036  18.664  0.00  0.00    +0.000 C 
BRANCH  24  25
ATOM     25  O   UNL     1       1.992  15.253  18.080  0.00  0.00    +0.000 OA
ATOM     26  H   UNL     1       2.095  15.946  18.757  0.00  0.00    +0.000 HD
ENDBRANCH  24  25
ENDBRANCH  22  24
ENDBRANCH   4  22
BRANCH  15  27
ATOM     27  C   UNL     1      -1.681  11.601  17.770  0.00  0.00    +0.000 C 
BRANCH  27  28
ATOM     28  N   UNL     1      -2.747  11.140  16.831  0.00  0.00    +0.000 NA
ATOM     29  C   UNL     1      -2.244  10.100  15.924  0.00  0.00    +0.000 C 
BRANCH  28  30
ATOM     30  C   UNL     1      -3.906  10.537  17.569  0.00  0.00    +0.000 C 
BRANCH  30  31
ATOM     31  C   UNL     1      -5.064  11.456  17.920  0.00  0.00    +0.000 A 
ATOM     32  C   UNL     1      -5.558  11.516  19.229  0.00  0.00    +0.000 A 
ATOM     33  C   UNL     1      -6.524  12.463  19.588  0.00  0.00    +0.000 A 
ATOM     34  C   UNL     1      -7.009  13.366  18.644  0.00  0.00    +0.000 A 
ATOM     35  C   UNL     1      -6.524  13.327  17.339  0.00  0.00    +0.000 A 
ATOM     36  C   UNL     1      -5.554  12.384  16.981  0.00  0.00    +0.000 A 
ENDBRANCH  30  31
ENDBRANCH  28  30
ENDBRANCH  27  28
ENDBRANCH  15  27
TORSDOF 8
ENDMDL
