MODEL 1
REMARK VINA RESULT:      -7.9      0.000      0.000
REMARK  Name = 
REMARK  9 active torsions:
REMARK  status: ('A' for Active; 'I' for Inactive)
REMARK    1  A    between atoms: C_1  and  O_2
REMARK    2  A    between atoms: O_2  and  C_3
REMARK    3  A    between atoms: C_7  and  C_8
REMARK    4  A    between atoms: C_11  and  N_12
REMARK    5  A    between atoms: C_13  and  C_15
REMARK    6  A    between atoms: C_19  and  C_20
REMARK    7  A    between atoms: C_29  and  O_30
REMARK    8  A    between atoms: C_31  and  O_32
REMARK    9  A    between atoms: O_32  and  C_33
REMARK                            x       y       z     vdW  Elec       q    Type
REMARK                         _______ _______ _______ _____ _____    ______ ____
ROOT
ATOM      1  C   UNL     1       0.663   9.599  20.904  0.00  0.00    +0.000 A 
ATOM      2  C   UNL     1       0.112   9.356  22.164  0.00  0.00    +0.000 A 
ATOM      3  C   UNL     1      -0.581  10.353  22.847  0.00  0.00    +0.000 A 
ATOM      4  C   UNL     1      -0.720  11.634  22.312  0.00  0.00    +0.000 A 
ATOM      5  C   UNL     1      -0.183  11.889  21.047  0.00  0.00    +0.000 A 
ATOM      6  C   UNL     1       0.516  10.884  20.357  0.00  0.00    +0.000 A 
ENDROOT
BRANCH   1  11
ATOM      7  C   UNL     1       2.614   3.922  20.419  0.00  0.00    +0.000 A 
ATOM      8  C   UNL     1       2.075   5.083  20.987  0.00  0.00    +0.000 A 
ATOM      9  C   UNL     1       2.078   6.273  20.279  0.00  0.00    +0.000 A 
ATOM     10  O   UNL     1       1.485   7.343  20.895  0.00  0.00    +0.000 OA
ATOM     11  C   UNL     1       1.410   8.536  20.202  0.00  0.00    +0.000 A 
ATOM     12  C   UNL     1       1.952   8.732  18.994  0.00  0.00    +0.000 A 
ATOM     13  C   UNL     1       2.628   7.618  18.320  0.00  0.00    +0.000 A 
ATOM     14  O   UNL     1       3.134   7.757  17.212  0.00  0.00    +0.000 OA
ATOM     15  C   UNL     1       2.651   6.328  19.015  0.00  0.00    +0.000 A 
ATOM     16  C   UNL     1       3.222   5.186  18.435  0.00  0.00    +0.000 A 
ATOM     17  C   UNL     1       3.216   3.962  19.137  0.00  0.00    +0.000 A 
BRANCH   7  19
ATOM     18  C   UNL     1       1.434   2.497  21.891  0.00  0.00    +0.000 C 
ATOM     19  O   UNL     1       2.600   2.723  21.098  0.00  0.00    +0.000 OA
ENDBRANCH   7  19
BRANCH  16  20
ATOM     20  O   UNL     1       3.772   5.267  17.179  0.00  0.00    +0.000 OA
ATOM     21  H   UNL     1       3.059   5.201  16.505  0.00  0.00    +0.000 HD
ENDBRANCH  16  20
BRANCH  17  22
ATOM     22  O   UNL     1       3.733   2.765  18.699  0.00  0.00    +0.000 OA
ATOM     23  C   UNL     1       2.935   1.940  17.858  0.00  0.00    +0.000 C 
ENDBRANCH  17  22
ENDBRANCH   1  11
BRANCH   4  24
ATOM     24  N   UNL     1      -1.383  12.671  23.011  0.00  0.00    +0.000 N 
ATOM     25  C   UNL     1      -2.752  12.889  22.948  0.00  0.00    +0.000 C 
ATOM     26  O   UNL     1      -3.568  12.186  22.357  0.00  0.00    +0.000 OA
ATOM     27  H   UNL     1      -0.845  13.171  23.708  0.00  0.00    +0.000 HD
BRANCH  25  28
ATOM     28  C   UNL     1      -3.304  14.042  23.698  0.00  0.00    +0.000 A 
ATOM     29  C   UNL     1      -4.682  14.281  23.574  0.00  0.00    +0.000 A 
ATOM     30  C   UNL     1      -5.259  15.424  24.119  0.00  0.00    +0.000 A 
ATOM     31  C   UNL     1      -4.456  16.342  24.795  0.00  0.00    +0.000 A 
ATOM     32  C   UNL     1      -3.078  16.101  24.933  0.00  0.00    +0.000 A 
ATOM     33  C   UNL     1      -2.500  14.949  24.387  0.00  0.00    +0.000 A 
BRANCH  32  34
ATOM     34  C   UNL     1      -2.268  17.062  25.607  0.00  0.00    +0.000 C 
ATOM     35  N   UNL     1      -1.614  17.847  26.138  0.00  0.00    +0.000 NA
ENDBRANCH  32  34
ENDBRANCH  25  28
ENDBRANCH   4  24
TORSDOF 7
ENDMDL
MODEL 2
REMARK VINA RESULT:      -7.8      0.733      1.172
REMARK  Name = 
REMARK  9 active torsions:
REMARK  status: ('A' for Active; 'I' for Inactive)
REMARK    1  A    between atoms: C_1  and  O_2
REMARK    2  A    between atoms: O_2  and  C_3
REMARK    3  A    between atoms: C_7  and  C_8
REMARK    4  A    between atoms: C_11  and  N_12
REMARK    5  A    between atoms: C_13  and  C_15
REMARK    6  A    between atoms: C_19  and  C_20
REMARK    7  A    between atoms: C_29  and  O_30
REMARK    8  A    between atoms: C_31  and  O_32
REMARK    9  A    between atoms: O_32  and  C_33
REMARK                            x       y       z     vdW  Elec       q    Type
REMARK                         _______ _______ _______ _____ _____    ______ ____
ROOT
ATOM      1  C   UNL     1       0.313   9.775  20.886  0.00  0.00    +0.000 A 
ATOM      2  C   UNL     1      -0.110  10.922  20.210  0.00  0.00    +0.000 A 
ATOM      3  C   UNL     1      -0.905  11.874  20.845  0.00  0.00    +0.000 A 
ATOM      4  C   UNL     1      -1.330  11.700  22.163  0.00  0.00    +0.000 A 
ATOM      5  C   UNL     1      -0.905  10.563  22.854  0.00  0.00    +0.000 A 
ATOM      6  C   UNL     1      -0.103   9.601  22.215  0.00  0.00    +0.000 A 
ENDROOT
BRANCH   1  11
ATOM      7  C   UNL     1       2.653   4.246  20.418  0.00  0.00    +0.000 A 
ATOM      8  C   UNL     1       2.028   5.366  20.980  0.00  0.00    +0.000 A 
ATOM      9  C   UNL     1       1.961   6.555  20.275  0.00  0.00    +0.000 A 
ATOM     10  O   UNL     1       1.287   7.580  20.884  0.00  0.00    +0.000 OA
ATOM     11  C   UNL     1       1.141   8.768  20.193  0.00  0.00    +0.000 A 
ATOM     12  C   UNL     1       1.687   9.004  18.993  0.00  0.00    +0.000 A 
ATOM     13  C   UNL     1       2.447   7.941  18.328  0.00  0.00    +0.000 A 
ATOM     14  O   UNL     1       2.958   8.117  17.228  0.00  0.00    +0.000 OA
ATOM     15  C   UNL     1       2.547   6.653  19.020  0.00  0.00    +0.000 A 
ATOM     16  C   UNL     1       3.203   5.554  18.446  0.00  0.00    +0.000 A 
ATOM     17  C   UNL     1       3.270   4.331  19.145  0.00  0.00    +0.000 A 
BRANCH   7  19
ATOM     18  C   UNL     1       1.471   2.615  21.656  0.00  0.00    +0.000 C 
ATOM     19  O   UNL     1       2.711   3.046  21.094  0.00  0.00    +0.000 OA
ENDBRANCH   7  19
BRANCH  16  20
ATOM     20  O   UNL     1       3.765   5.677  17.199  0.00  0.00    +0.000 OA
ATOM     21  H   UNL     1       3.911   6.629  16.999  0.00  0.00    +0.000 HD
ENDBRANCH  16  20
BRANCH  17  22
ATOM     22  O   UNL     1       3.874   3.173  18.712  0.00  0.00    +0.000 OA
ATOM     23  C   UNL     1       3.140   2.289  17.874  0.00  0.00    +0.000 C 
ENDBRANCH  17  22
ENDBRANCH   1  11
BRANCH   4  24
ATOM     24  N   UNL     1      -2.173  12.635  22.808  0.00  0.00    +0.000 N 
ATOM     25  C   UNL     1      -3.510  12.818  22.484  0.00  0.00    +0.000 C 
ATOM     26  O   UNL     1      -4.152  12.159  21.669  0.00  0.00    +0.000 OA
ATOM     27  H   UNL     1      -1.815  13.073  23.648  0.00  0.00    +0.000 HD
BRANCH  25  28
ATOM     28  C   UNL     1      -4.262  13.867  23.213  0.00  0.00    +0.000 A 
ATOM     29  C   UNL     1      -5.663  13.817  23.132  0.00  0.00    +0.000 A 
ATOM     30  C   UNL     1      -6.443  14.843  23.658  0.00  0.00    +0.000 A 
ATOM     31  C   UNL     1      -5.823  15.931  24.271  0.00  0.00    +0.000 A 
ATOM     32  C   UNL     1      -4.422  15.979  24.366  0.00  0.00    +0.000 A 
ATOM     33  C   UNL     1      -3.639  14.945  23.839  0.00  0.00    +0.000 A 
BRANCH  32  34
ATOM     34  C   UNL     1      -3.804  17.111  24.975  0.00  0.00    +0.000 C 
ATOM     35  N   UNL     1      -3.318  18.027  25.477  0.00  0.00    +0.000 NA
ENDBRANCH  32  34
ENDBRANCH  25  28
ENDBRANCH   4  24
TORSDOF 7
ENDMDL
MODEL 3
REMARK VINA RESULT:      -7.8      1.461      2.014
REMARK  Name = 
REMARK  9 active torsions:
REMARK  status: ('A' for Active; 'I' for Inactive)
REMARK    1  A    between atoms: C_1  and  O_2
REMARK    2  A    between atoms: O_2  and  C_3
REMARK    3  A    between atoms: C_7  and  C_8
REMARK    4  A    between atoms: C_11  and  N_12
REMARK    5  A    between atoms: C_13  and  C_15
REMARK    6  A    between atoms: C_19  and  C_20
REMARK    7  A    between atoms: C_29  and  O_30
REMARK    8  A    between atoms: C_31  and  O_32
REMARK    9  A    between atoms: O_32  and  C_33
REMARK                            x       y       z     vdW  Elec       q    Type
REMARK                         _______ _______ _______ _____ _____    ______ ____
ROOT
ATOM      1  C   UNL     1       0.684   9.477  20.587  0.00  0.00    +0.000 A 
ATOM      2  C   UNL     1       0.069  10.448  19.794  0.00  0.00    +0.000 A 
ATOM      3  C   UNL     1      -0.713  11.449  20.366  0.00  0.00    +0.000 A 
ATOM      4  C   UNL     1      -0.935  11.497  21.743  0.00  0.00    +0.000 A 
ATOM      5  C   UNL     1      -0.317  10.539  22.550  0.00  0.00    +0.000 A 
ATOM      6  C   UNL     1       0.473   9.528  21.974  0.00  0.00    +0.000 A 
ENDROOT
BRANCH   1  11
ATOM      7  C   UNL     1       2.738   3.820  20.355  0.00  0.00    +0.000 A 
ATOM      8  C   UNL     1       2.143   4.983  20.860  0.00  0.00    +0.000 A 
ATOM      9  C   UNL     1       2.185   6.160  20.132  0.00  0.00    +0.000 A 
ATOM     10  O   UNL     1       1.533   7.232  20.681  0.00  0.00    +0.000 OA
ATOM     11  C   UNL     1       1.495   8.413  19.963  0.00  0.00    +0.000 A 
ATOM     12  C   UNL     1       2.126   8.596  18.797  0.00  0.00    +0.000 A 
ATOM     13  C   UNL     1       2.866   7.480  18.197  0.00  0.00    +0.000 A 
ATOM     14  O   UNL     1       3.452   7.606  17.128  0.00  0.00    +0.000 OA
ATOM     15  C   UNL     1       2.852   6.202  18.915  0.00  0.00    +0.000 A 
ATOM     16  C   UNL     1       3.480   5.058  18.401  0.00  0.00    +0.000 A 
ATOM     17  C   UNL     1       3.437   3.847  19.122  0.00  0.00    +0.000 A 
BRANCH   7  19
ATOM     18  C   UNL     1       1.603   2.525  21.975  0.00  0.00    +0.000 C 
ATOM     19  O   UNL     1       2.688   2.633  21.053  0.00  0.00    +0.000 OA
ENDBRANCH   7  19
BRANCH  16  20
ATOM     20  O   UNL     1       4.123   5.126  17.189  0.00  0.00    +0.000 OA
ATOM     21  H   UNL     1       4.835   5.804  17.235  0.00  0.00    +0.000 HD
ENDBRANCH  16  20
BRANCH  17  22
ATOM     22  O   UNL     1       4.000   2.650  18.746  0.00  0.00    +0.000 OA
ATOM     23  C   UNL     1       3.251   1.769  17.917  0.00  0.00    +0.000 C 
ENDBRANCH  17  22
ENDBRANCH   1  11
BRANCH   4  24
ATOM     24  N   UNL     1      -1.762  12.481  22.335  0.00  0.00    +0.000 N 
ATOM     25  C   UNL     1      -1.281  13.662  22.883  0.00  0.00    +0.000 C 
ATOM     26  O   UNL     1      -0.114  14.045  22.861  0.00  0.00    +0.000 OA
ATOM     27  H   UNL     1      -2.761  12.379  22.206  0.00  0.00    +0.000 HD
BRANCH  25  28
ATOM     28  C   UNL     1      -2.260  14.581  23.512  0.00  0.00    +0.000 A 
ATOM     29  C   UNL     1      -1.771  15.450  24.501  0.00  0.00    +0.000 A 
ATOM     30  C   UNL     1      -2.641  16.238  25.248  0.00  0.00    +0.000 A 
ATOM     31  C   UNL     1      -4.013  16.162  25.009  0.00  0.00    +0.000 A 
ATOM     32  C   UNL     1      -4.505  15.305  24.012  0.00  0.00    +0.000 A 
ATOM     33  C   UNL     1      -3.629  14.514  23.259  0.00  0.00    +0.000 A 
BRANCH  32  34
ATOM     34  C   UNL     1      -5.913  15.222  23.797  0.00  0.00    +0.000 C 
ATOM     35  N   UNL     1      -7.052  15.163  23.638  0.00  0.00    +0.000 NA
ENDBRANCH  32  34
ENDBRANCH  25  28
ENDBRANCH   4  24
TORSDOF 7
ENDMDL
MODEL 4
REMARK VINA RESULT:      -7.7      1.164      1.595
REMARK  Name = 
REMARK  9 active torsions:
REMARK  status: ('A' for Active; 'I' for Inactive)
REMARK    1  A    between atoms: C_1  and  O_2
REMARK    2  A    between atoms: O_2  and  C_3
REMARK    3  A    between atoms: C_7  and  C_8
REMARK    4  A    between atoms: C_11  and  N_12
REMARK    5  A    between atoms: C_13  and  C_15
REMARK    6  A    between atoms: C_19  and  C_20
REMARK    7  A    between atoms: C_29  and  O_30
REMARK    8  A    between atoms: C_31  and  O_32
REMARK    9  A    between atoms: O_32  and  C_33
REMARK                            x       y       z     vdW  Elec       q    Type
REMARK                         _______ _______ _______ _____ _____    ______ ____
ROOT
ATOM      1  C   UNL     1       0.794   9.664  20.699  0.00  0.00    +0.000 A 
ATOM      2  C   UNL     1       0.276   9.474  21.981  0.00  0.00    +0.000 A 
ATOM      3  C   UNL     1      -0.406  10.497  22.637  0.00  0.00    +0.000 A 
ATOM      4  C   UNL     1      -0.566  11.752  22.049  0.00  0.00    +0.000 A 
ATOM      5  C   UNL     1      -0.062  11.953  20.762  0.00  0.00    +0.000 A 
ATOM      6  C   UNL     1       0.626  10.922  20.099  0.00  0.00    +0.000 A 
ENDROOT
BRANCH   1  11
ATOM      7  C   UNL     1       2.661   3.948  20.354  0.00  0.00    +0.000 A 
ATOM      8  C   UNL     1       2.136   5.130  20.892  0.00  0.00    +0.000 A 
ATOM      9  C   UNL     1       2.162   6.303  20.158  0.00  0.00    +0.000 A 
ATOM     10  O   UNL     1       1.581   7.395  20.745  0.00  0.00    +0.000 OA
ATOM     11  C   UNL     1       1.528   8.574  20.026  0.00  0.00    +0.000 A 
ATOM     12  C   UNL     1       2.082   8.735  18.817  0.00  0.00    +0.000 A 
ATOM     13  C   UNL     1       2.746   7.596  18.174  0.00  0.00    +0.000 A 
ATOM     14  O   UNL     1       3.261   7.702  17.067  0.00  0.00    +0.000 OA
ATOM     15  C   UNL     1       2.745   6.321  18.897  0.00  0.00    +0.000 A 
ATOM     16  C   UNL     1       3.302   5.158  18.347  0.00  0.00    +0.000 A 
ATOM     17  C   UNL     1       3.273   3.950  19.076  0.00  0.00    +0.000 A 
BRANCH   7  19
ATOM     18  C   UNL     1       1.430   2.555  21.815  0.00  0.00    +0.000 C 
ATOM     19  O   UNL     1       2.624   2.765  21.060  0.00  0.00    +0.000 OA
ENDBRANCH   7  19
BRANCH  16  20
ATOM     20  O   UNL     1       3.862   5.203  17.094  0.00  0.00    +0.000 OA
ATOM     21  H   UNL     1       3.516   5.986  16.609  0.00  0.00    +0.000 HD
ENDBRANCH  16  20
BRANCH  17  22
ATOM     22  O   UNL     1       3.774   2.736  18.668  0.00  0.00    +0.000 OA
ATOM     23  C   UNL     1       2.976   1.913  17.827  0.00  0.00    +0.000 C 
ENDBRANCH  17  22
ENDBRANCH   1  11
BRANCH   4  24
ATOM     24  N   UNL     1      -1.217  12.816  22.718  0.00  0.00    +0.000 N 
ATOM     25  C   UNL     1      -2.579  13.064  22.626  0.00  0.00    +0.000 C 
ATOM     26  O   UNL     1      -3.401  12.370  22.031  0.00  0.00    +0.000 OA
ATOM     27  H   UNL     1      -0.681  13.315  23.417  0.00  0.00    +0.000 HD
BRANCH  25  28
ATOM     28  C   UNL     1      -3.118  14.243  23.346  0.00  0.00    +0.000 A 
ATOM     29  C   UNL     1      -2.383  14.705  24.449  0.00  0.00    +0.000 A 
ATOM     30  C   UNL     1      -2.889  15.706  25.272  0.00  0.00    +0.000 A 
ATOM     31  C   UNL     1      -4.140  16.255  24.996  0.00  0.00    +0.000 A 
ATOM     32  C   UNL     1      -4.874  15.806  23.885  0.00  0.00    +0.000 A 
ATOM     33  C   UNL     1      -4.363  14.800  23.056  0.00  0.00    +0.000 A 
BRANCH  32  34
ATOM     34  C   UNL     1      -6.162  16.362  23.630  0.00  0.00    +0.000 C 
ATOM     35  N   UNL     1      -7.204  16.801  23.411  0.00  0.00    +0.000 NA
ENDBRANCH  32  34
ENDBRANCH  25  28
ENDBRANCH   4  24
TORSDOF 7
ENDMDL
MODEL 5
REMARK VINA RESULT:      -7.7      3.524     11.546
REMARK  Name = 
REMARK  9 active torsions:
REMARK  status: ('A' for Active; 'I' for Inactive)
REMARK    1  A    between atoms: C_1  and  O_2
REMARK    2  A    between atoms: O_2  and  C_3
REMARK    3  A    between atoms: C_7  and  C_8
REMARK    4  A    between atoms: C_11  and  N_12
REMARK    5  A    between atoms: C_13  and  C_15
REMARK    6  A    between atoms: C_19  and  C_20
REMARK    7  A    between atoms: C_29  and  O_30
REMARK    8  A    between atoms: C_31  and  O_32
REMARK    9  A    between atoms: O_32  and  C_33
REMARK                            x       y       z     vdW  Elec       q    Type
REMARK                         _______ _______ _______ _____ _____    ______ ____
ROOT
ATOM      1  C   UNL     1      -0.609  11.097  21.568  0.00  0.00    +0.000 A 
ATOM      2  C   UNL     1      -0.141  10.015  22.316  0.00  0.00    +0.000 A 
ATOM      3  C   UNL     1       0.670   9.041  21.736  0.00  0.00    +0.000 A 
ATOM      4  C   UNL     1       1.013   9.097  20.384  0.00  0.00    +0.000 A 
ATOM      5  C   UNL     1       0.560  10.180  19.627  0.00  0.00    +0.000 A 
ATOM      6  C   UNL     1      -0.258  11.163  20.211  0.00  0.00    +0.000 A 
ENDROOT
BRANCH   1  11
ATOM      7  C   UNL     1      -6.005  13.604  22.503  0.00  0.00    +0.000 A 
ATOM      8  C   UNL     1      -5.003  12.820  21.918  0.00  0.00    +0.000 A 
ATOM      9  C   UNL     1      -3.692  12.927  22.349  0.00  0.00    +0.000 A 
ATOM     10  O   UNL     1      -2.791  12.084  21.754  0.00  0.00    +0.000 OA
ATOM     11  C   UNL     1      -1.481  12.111  22.195  0.00  0.00    +0.000 A 
ATOM     12  C   UNL     1      -1.022  12.968  23.115  0.00  0.00    +0.000 A 
ATOM     13  C   UNL     1      -1.952  13.910  23.747  0.00  0.00    +0.000 A 
ATOM     14  O   UNL     1      -1.571  14.707  24.597  0.00  0.00    +0.000 OA
ATOM     15  C   UNL     1      -3.358  13.841  23.339  0.00  0.00    +0.000 A 
ATOM     16  C   UNL     1      -4.338  14.659  23.921  0.00  0.00    +0.000 A 
ATOM     17  C   UNL     1      -5.681  14.554  23.503  0.00  0.00    +0.000 A 
BRANCH   7  19
ATOM     18  C   UNL     1      -7.631  12.305  21.381  0.00  0.00    +0.000 C 
ATOM     19  O   UNL     1      -7.320  13.497  22.103  0.00  0.00    +0.000 OA
ENDBRANCH   7  19
BRANCH  16  20
ATOM     20  O   UNL     1      -3.981  15.547  24.906  0.00  0.00    +0.000 OA
ATOM     21  H   UNL     1      -3.176  16.039  24.626  0.00  0.00    +0.000 HD
ENDBRANCH  16  20
BRANCH  17  22
ATOM     22  O   UNL     1      -6.746  15.283  23.981  0.00  0.00    +0.000 OA
ATOM     23  C   UNL     1      -6.953  16.600  23.486  0.00  0.00    +0.000 C 
ENDBRANCH  17  22
ENDBRANCH   1  11
BRANCH   4  24
ATOM     24  N   UNL     1       1.798   8.094  19.768  0.00  0.00    +0.000 N 
ATOM     25  C   UNL     1       2.144   8.104  18.424  0.00  0.00    +0.000 C 
ATOM     26  O   UNL     1       1.892   8.999  17.621  0.00  0.00    +0.000 OA
ATOM     27  H   UNL     1       2.254   7.427  20.379  0.00  0.00    +0.000 HD
BRANCH  25  28
ATOM     28  C   UNL     1       2.934   6.963  17.904  0.00  0.00    +0.000 A 
ATOM     29  C   UNL     1       2.382   5.682  18.065  0.00  0.00    +0.000 A 
ATOM     30  C   UNL     1       3.118   4.545  17.744  0.00  0.00    +0.000 A 
ATOM     31  C   UNL     1       4.418   4.683  17.259  0.00  0.00    +0.000 A 
ATOM     32  C   UNL     1       4.969   5.963  17.084  0.00  0.00    +0.000 A 
ATOM     33  C   UNL     1       4.227   7.106  17.404  0.00  0.00    +0.000 A 
BRANCH  32  34
ATOM     34  C   UNL     1       6.308   6.085  16.608  0.00  0.00    +0.000 C 
ATOM     35  N   UNL     1       7.391   6.199  16.231  0.00  0.00    +0.000 NA
ENDBRANCH  32  34
ENDBRANCH  25  28
ENDBRANCH   4  24
TORSDOF 7
ENDMDL
MODEL 6
REMARK VINA RESULT:      -7.6      4.865     11.687
REMARK  Name = 
REMARK  9 active torsions:
REMARK  status: ('A' for Active; 'I' for Inactive)
REMARK    1  A    between atoms: C_1  and  O_2
REMARK    2  A    between atoms: O_2  and  C_3
REMARK    3  A    between atoms: C_7  and  C_8
REMARK    4  A    between atoms: C_11  and  N_12
REMARK    5  A    between atoms: C_13  and  C_15
REMARK    6  A    between atoms: C_19  and  C_20
REMARK    7  A    between atoms: C_29  and  O_30
REMARK    8  A    between atoms: C_31  and  O_32
REMARK    9  A    between atoms: O_32  and  C_33
REMARK                            x       y       z     vdW  Elec       q    Type
REMARK                         _______ _______ _______ _____ _____    ______ ____
ROOT
ATOM      1  C   UNL     1       1.242  10.392  19.259  0.00  0.00    +0.000 A 
ATOM      2  C   UNL     1       1.175   9.635  20.431  0.00  0.00    +0.000 A 
ATOM      3  C   UNL     1       1.535   8.290  20.435  0.00  0.00    +0.000 A 
ATOM      4  C   UNL     1       1.944   7.645  19.267  0.00  0.00    +0.000 A 
ATOM      5  C   UNL     1       2.027   8.393  18.089  0.00  0.00    +0.000 A 
ATOM      6  C   UNL     1       1.663   9.751  18.083  0.00  0.00    +0.000 A 
ENDROOT
BRANCH   1  11
ATOM      7  C   UNL     1       2.340  16.222  18.220  0.00  0.00    +0.000 A 
ATOM      8  C   UNL     1       2.571  14.854  18.409  0.00  0.00    +0.000 A 
ATOM      9  C   UNL     1       1.543  14.022  18.815  0.00  0.00    +0.000 A 
ATOM     10  O   UNL     1       1.850  12.692  18.924  0.00  0.00    +0.000 OA
ATOM     11  C   UNL     1       0.840  11.813  19.268  0.00  0.00    +0.000 A 
ATOM     12  C   UNL     1      -0.405  12.194  19.579  0.00  0.00    +0.000 A 
ATOM     13  C   UNL     1      -0.760  13.615  19.510  0.00  0.00    +0.000 A 
ATOM     14  O   UNL     1      -1.890  14.003  19.783  0.00  0.00    +0.000 OA
ATOM     15  C   UNL     1       0.285  14.548  19.076  0.00  0.00    +0.000 A 
ATOM     16  C   UNL     1       0.034  15.919  18.922  0.00  0.00    +0.000 A 
ATOM     17  C   UNL     1       1.067  16.780  18.496  0.00  0.00    +0.000 A 
BRANCH   7  19
ATOM     18  C   UNL     1       4.593  16.896  18.467  0.00  0.00    +0.000 C 
ATOM     19  O   UNL     1       3.345  17.064  17.794  0.00  0.00    +0.000 OA
ENDBRANCH   7  19
BRANCH  16  20
ATOM     20  O   UNL     1      -1.223  16.411  19.177  0.00  0.00    +0.000 OA
ATOM     21  H   UNL     1      -1.519  16.105  20.064  0.00  0.00    +0.000 HD
ENDBRANCH  16  20
BRANCH  17  22
ATOM     22  O   UNL     1       0.971  18.138  18.299  0.00  0.00    +0.000 OA
ATOM     23  C   UNL     1       0.409  18.617  17.083  0.00  0.00    +0.000 C 
ENDBRANCH  17  22
ENDBRANCH   1  11
BRANCH   4  24
ATOM     24  N   UNL     1       2.271   6.269  19.245  0.00  0.00    +0.000 N 
ATOM     25  C   UNL     1       3.390   5.754  18.605  0.00  0.00    +0.000 C 
ATOM     26  O   UNL     1       4.270   6.409  18.052  0.00  0.00    +0.000 OA
ATOM     27  H   UNL     1       1.744   5.662  19.859  0.00  0.00    +0.000 HD
BRANCH  25  28
ATOM     28  C   UNL     1       3.584   4.285  18.625  0.00  0.00    +0.000 A 
ATOM     29  C   UNL     1       2.874   3.537  17.671  0.00  0.00    +0.000 A 
ATOM     30  C   UNL     1       2.878   2.146  17.712  0.00  0.00    +0.000 A 
ATOM     31  C   UNL     1       3.594   1.490  18.712  0.00  0.00    +0.000 A 
ATOM     32  C   UNL     1       4.316   2.234  19.661  0.00  0.00    +0.000 A 
ATOM     33  C   UNL     1       4.314   3.633  19.617  0.00  0.00    +0.000 A 
BRANCH  32  34
ATOM     34  C   UNL     1       5.024   1.548  20.691  0.00  0.00    +0.000 C 
ATOM     35  N   UNL     1       5.592   0.979  21.516  0.00  0.00    +0.000 NA
ENDBRANCH  32  34
ENDBRANCH  25  28
ENDBRANCH   4  24
TORSDOF 7
ENDMDL
MODEL 7
REMARK VINA RESULT:      -7.6      3.555     11.763
REMARK  Name = 
REMARK  9 active torsions:
REMARK  status: ('A' for Active; 'I' for Inactive)
REMARK    1  A    between atoms: C_1  and  O_2
REMARK    2  A    between atoms: O_2  and  C_3
REMARK    3  A    between atoms: C_7  and  C_8
REMARK    4  A    between atoms: C_11  and  N_12
REMARK    5  A    between atoms: C_13  and  C_15
REMARK    6  A    between atoms: C_19  and  C_20
REMARK    7  A    between atoms: C_29  and  O_30
REMARK    8  A    between atoms: C_31  and  O_32
REMARK    9  A    between atoms: O_32  and  C_33
REMARK                            x       y       z     vdW  Elec       q    Type
REMARK                         _______ _______ _______ _____ _____    ______ ____
ROOT
ATOM      1  C   UNL     1       0.036  10.523  21.651  0.00  0.00    +0.000 A 
ATOM      2  C   UNL     1       0.506   9.405  22.343  0.00  0.00    +0.000 A 
ATOM      3  C   UNL     1       1.227   8.410  21.688  0.00  0.00    +0.000 A 
ATOM      4  C   UNL     1       1.477   8.479  20.317  0.00  0.00    +0.000 A 
ATOM      5  C   UNL     1       1.021   9.597  19.614  0.00  0.00    +0.000 A 
ATOM      6  C   UNL     1       0.293  10.603  20.273  0.00  0.00    +0.000 A 
ENDROOT
BRANCH   1  11
ATOM      7  C   UNL     1      -0.990  16.255  23.191  0.00  0.00    +0.000 A 
ATOM      8  C   UNL     1      -0.323  15.122  22.708  0.00  0.00    +0.000 A 
ATOM      9  C   UNL     1      -0.889  13.867  22.846  0.00  0.00    +0.000 A 
ATOM     10  O   UNL     1      -0.188  12.826  22.298  0.00  0.00    +0.000 OA
ATOM     11  C   UNL     1      -0.742  11.561  22.357  0.00  0.00    +0.000 A 
ATOM     12  C   UNL     1      -1.889  11.279  22.989  0.00  0.00    +0.000 A 
ATOM     13  C   UNL     1      -2.648  12.364  23.619  0.00  0.00    +0.000 A 
ATOM     14  O   UNL     1      -3.704  12.147  24.203  0.00  0.00    +0.000 OA
ATOM     15  C   UNL     1      -2.105  13.720  23.500  0.00  0.00    +0.000 A 
ATOM     16  C   UNL     1      -2.781  14.835  24.018  0.00  0.00    +0.000 A 
ATOM     17  C   UNL     1      -2.225  16.124  23.875  0.00  0.00    +0.000 A 
BRANCH   7  19
ATOM     18  C   UNL     1       0.753  17.742  23.771  0.00  0.00    +0.000 C 
ATOM     19  O   UNL     1      -0.455  17.516  23.044  0.00  0.00    +0.000 OA
ENDBRANCH   7  19
BRANCH  16  20
ATOM     20  O   UNL     1      -3.987  14.662  24.651  0.00  0.00    +0.000 OA
ATOM     21  H   UNL     1      -3.908  13.938  25.313  0.00  0.00    +0.000 HD
ENDBRANCH  16  20
BRANCH  17  22
ATOM     22  O   UNL     1      -2.769  17.304  24.326  0.00  0.00    +0.000 OA
ATOM     23  C   UNL     1      -2.531  17.700  25.671  0.00  0.00    +0.000 C 
ENDBRANCH  17  22
ENDBRANCH   1  11
BRANCH   4  24
ATOM     24  N   UNL     1       2.169   7.456  19.627  0.00  0.00    +0.000 N 
ATOM     25  C   UNL     1       2.602   7.569  18.314  0.00  0.00    +0.000 C 
ATOM     26  O   UNL     1       2.518   8.573  17.610  0.00  0.00    +0.000 OA
ATOM     27  H   UNL     1       2.496   6.672  20.178  0.00  0.00    +0.000 HD
BRANCH  25  28
ATOM     28  C   UNL     1       3.276   6.399  17.703  0.00  0.00    +0.000 A 
ATOM     29  C   UNL     1       2.701   5.139  17.940  0.00  0.00    +0.000 A 
ATOM     30  C   UNL     1       3.347   3.975  17.535  0.00  0.00    +0.000 A 
ATOM     31  C   UNL     1       4.578   4.063  16.887  0.00  0.00    +0.000 A 
ATOM     32  C   UNL     1       5.151   5.322  16.636  0.00  0.00    +0.000 A 
ATOM     33  C   UNL     1       4.499   6.492  17.042  0.00  0.00    +0.000 A 
BRANCH  32  34
ATOM     34  C   UNL     1       6.422   5.392  15.993  0.00  0.00    +0.000 C 
ATOM     35  N   UNL     1       7.456   5.446  15.488  0.00  0.00    +0.000 NA
ENDBRANCH  32  34
ENDBRANCH  25  28
ENDBRANCH   4  24
TORSDOF 7
ENDMDL
MODEL 8
REMARK VINA RESULT:      -7.6      3.516     11.777
REMARK  Name = 
REMARK  9 active torsions:
REMARK  status: ('A' for Active; 'I' for Inactive)
REMARK    1  A    between atoms: C_1  and  O_2
REMARK    2  A    between atoms: O_2  and  C_3
REMARK    3  A    between atoms: C_7  and  C_8
REMARK    4  A    between atoms: C_11  and  N_12
REMARK    5  A    between atoms: C_13  and  C_15
REMARK    6  A    between atoms: C_19  and  C_20
REMARK    7  A    between atoms: C_29  and  O_30
REMARK    8  A    between atoms: C_31  and  O_32
REMARK    9  A    between atoms: O_32  and  C_33
REMARK                            x       y       z     vdW  Elec       q    Type
REMARK                         _______ _______ _______ _____ _____    ______ ____
ROOT
ATOM      1  C   UNL     1      -0.336  10.703  21.932  0.00  0.00    +0.000 A 
ATOM      2  C   UNL     1      -0.284  10.707  20.537  0.00  0.00    +0.000 A 
ATOM      3  C   UNL     1       0.408   9.716  19.844  0.00  0.00    +0.000 A 
ATOM      4  C   UNL     1       1.098   8.708  20.518  0.00  0.00    +0.000 A 
ATOM      5  C   UNL     1       1.046   8.685  21.914  0.00  0.00    +0.000 A 
ATOM      6  C   UNL     1       0.347   9.684  22.615  0.00  0.00    +0.000 A 
ENDROOT
BRANCH   1  11
ATOM      7  C   UNL     1      -0.990  16.437  23.654  0.00  0.00    +0.000 A 
ATOM      8  C   UNL     1      -0.392  15.276  23.150  0.00  0.00    +0.000 A 
ATOM      9  C   UNL     1      -1.054  14.062  23.222  0.00  0.00    +0.000 A 
ATOM     10  O   UNL     1      -0.412  12.991  22.659  0.00  0.00    +0.000 OA
ATOM     11  C   UNL     1      -1.060  11.770  22.652  0.00  0.00    +0.000 A 
ATOM     12  C   UNL     1      -2.246  11.553  23.234  0.00  0.00    +0.000 A 
ATOM     13  C   UNL     1      -2.945  12.669  23.880  0.00  0.00    +0.000 A 
ATOM     14  O   UNL     1      -4.034  12.511  24.420  0.00  0.00    +0.000 OA
ATOM     15  C   UNL     1      -2.299  13.984  23.830  0.00  0.00    +0.000 A 
ATOM     16  C   UNL     1      -2.909  15.128  24.367  0.00  0.00    +0.000 A 
ATOM     17  C   UNL     1      -2.255  16.375  24.291  0.00  0.00    +0.000 A 
BRANCH   7  19
ATOM     18  C   UNL     1      -0.293  18.212  22.257  0.00  0.00    +0.000 C 
ATOM     19  O   UNL     1      -0.358  17.659  23.572  0.00  0.00    +0.000 OA
ENDBRANCH   7  19
BRANCH  16  20
ATOM     20  O   UNL     1      -4.147  15.023  24.953  0.00  0.00    +0.000 OA
ATOM     21  H   UNL     1      -4.575  14.186  24.664  0.00  0.00    +0.000 HD
ENDBRANCH  16  20
BRANCH  17  22
ATOM     22  O   UNL     1      -2.726  17.576  24.768  0.00  0.00    +0.000 OA
ATOM     23  C   UNL     1      -3.695  18.284  24.006  0.00  0.00    +0.000 C 
ENDBRANCH  17  22
ENDBRANCH   1  11
BRANCH   4  24
ATOM     24  N   UNL     1       1.842   7.720  19.832  0.00  0.00    +0.000 N 
ATOM     25  C   UNL     1       2.356   7.893  18.554  0.00  0.00    +0.000 C 
ATOM     26  O   UNL     1       2.305   8.925  17.890  0.00  0.00    +0.000 OA
ATOM     27  H   UNL     1       2.142   6.915  20.368  0.00  0.00    +0.000 HD
BRANCH  25  28
ATOM     28  C   UNL     1       3.078   6.754  17.938  0.00  0.00    +0.000 A 
ATOM     29  C   UNL     1       2.488   5.486  18.061  0.00  0.00    +0.000 A 
ATOM     30  C   UNL     1       3.166   4.343  17.648  0.00  0.00    +0.000 A 
ATOM     31  C   UNL     1       4.446   4.462  17.106  0.00  0.00    +0.000 A 
ATOM     32  C   UNL     1       5.035   5.730  16.969  0.00  0.00    +0.000 A 
ATOM     33  C   UNL     1       4.351   6.879  17.383  0.00  0.00    +0.000 A 
BRANCH  32  34
ATOM     34  C   UNL     1       6.353   5.831  16.435  0.00  0.00    +0.000 C 
ATOM     35  N   UNL     1       7.412   5.924  15.993  0.00  0.00    +0.000 NA
ENDBRANCH  32  34
ENDBRANCH  25  28
ENDBRANCH   4  24
TORSDOF 7
ENDMDL
MODEL 9
REMARK VINA RESULT:      -7.5      4.227     11.765
REMARK  Name = 
REMARK  9 active torsions:
REMARK  status: ('A' for Active; 'I' for Inactive)
REMARK    1  A    between atoms: C_1  and  O_2
REMARK    2  A    between atoms: O_2  and  C_3
REMARK    3  A    between atoms: C_7  and  C_8
REMARK    4  A    between atoms: C_11  and  N_12
REMARK    5  A    between atoms: C_13  and  C_15
REMARK    6  A    between atoms: C_19  and  C_20
REMARK    7  A    between atoms: C_29  and  O_30
REMARK    8  A    between atoms: C_31  and  O_32
REMARK    9  A    between atoms: O_32  and  C_33
REMARK                            x       y       z     vdW  Elec       q    Type
REMARK                         _______ _______ _______ _____ _____    ______ ____
ROOT
ATOM      1  C   UNL     1       0.336   9.963  19.552  0.00  0.00    +0.000 A 
ATOM      2  C   UNL     1       0.742  10.101  18.223  0.00  0.00    +0.000 A 
ATOM      3  C   UNL     1       1.739   9.286  17.691  0.00  0.00    +0.000 A 
ATOM      4  C   UNL     1       2.385   8.328  18.474  0.00  0.00    +0.000 A 
ATOM      5  C   UNL     1       1.981   8.171  19.802  0.00  0.00    +0.000 A 
ATOM      6  C   UNL     1       0.976   8.994  20.340  0.00  0.00    +0.000 A 
ENDROOT
BRANCH   1  11
ATOM      7  C   UNL     1      -5.058  12.625  19.258  0.00  0.00    +0.000 A 
ATOM      8  C   UNL     1      -3.908  11.936  18.853  0.00  0.00    +0.000 A 
ATOM      9  C   UNL     1      -2.837  11.797  19.719  0.00  0.00    +0.000 A 
ATOM     10  O   UNL     1      -1.777  11.065  19.253  0.00  0.00    +0.000 OA
ATOM     11  C   UNL     1      -0.710  10.847  20.104  0.00  0.00    +0.000 A 
ATOM     12  C   UNL     1      -0.614  11.376  21.330  0.00  0.00    +0.000 A 
ATOM     13  C   UNL     1      -1.715  12.197  21.847  0.00  0.00    +0.000 A 
ATOM     14  O   UNL     1      -1.667  12.694  22.966  0.00  0.00    +0.000 OA
ATOM     15  C   UNL     1      -2.884  12.375  20.981  0.00  0.00    +0.000 A 
ATOM     16  C   UNL     1      -4.013  13.093  21.400  0.00  0.00    +0.000 A 
ATOM     17  C   UNL     1      -5.119  13.234  20.536  0.00  0.00    +0.000 A 
BRANCH   7  19
ATOM     18  C   UNL     1      -6.806  11.530  18.102  0.00  0.00    +0.000 C 
ATOM     19  O   UNL     1      -6.145  12.755  18.420  0.00  0.00    +0.000 OA
ENDBRANCH   7  19
BRANCH  16  20
ATOM     20  O   UNL     1      -4.035  13.645  22.658  0.00  0.00    +0.000 OA
ATOM     21  H   UNL     1      -3.113  13.776  22.973  0.00  0.00    +0.000 HD
ENDBRANCH  16  20
BRANCH  17  22
ATOM     22  O   UNL     1      -6.289  13.904  20.807  0.00  0.00    +0.000 OA
ATOM     23  C   UNL     1      -6.314  15.320  20.681  0.00  0.00    +0.000 C 
ENDBRANCH  17  22
ENDBRANCH   1  11
BRANCH   4  24
ATOM     24  N   UNL     1       3.429   7.522  17.962  0.00  0.00    +0.000 N 
ATOM     25  C   UNL     1       3.446   6.137  18.049  0.00  0.00    +0.000 C 
ATOM     26  O   UNL     1       2.546   5.431  18.499  0.00  0.00    +0.000 OA
ATOM     27  H   UNL     1       4.112   7.977  17.369  0.00  0.00    +0.000 HD
BRANCH  25  28
ATOM     28  C   UNL     1       4.628   5.423  17.509  0.00  0.00    +0.000 A 
ATOM     29  C   UNL     1       5.752   5.331  18.345  0.00  0.00    +0.000 A 
ATOM     30  C   UNL     1       6.952   4.813  17.869  0.00  0.00    +0.000 A 
ATOM     31  C   UNL     1       7.037   4.383  16.545  0.00  0.00    +0.000 A 
ATOM     32  C   UNL     1       5.911   4.462  15.708  0.00  0.00    +0.000 A 
ATOM     33  C   UNL     1       4.703   4.980  16.190  0.00  0.00    +0.000 A 
BRANCH  32  34
ATOM     34  C   UNL     1       6.022   4.039  14.351  0.00  0.00    +0.000 C 
ATOM     35  N   UNL     1       6.100   3.708  13.250  0.00  0.00    +0.000 NA
ENDBRANCH  32  34
ENDBRANCH  25  28
ENDBRANCH   4  24
TORSDOF 7
ENDMDL
