MODEL 1
REMARK VINA RESULT:      -7.3      0.000      0.000
REMARK  Name = 
REMARK  11 active torsions:
REMARK  status: ('A' for Active; 'I' for Inactive)
REMARK    1  A    between atoms: C_1  and  C_2
REMARK    2  A    between atoms: C_7  and  C_8
REMARK    3  A    between atoms: C_8  and  C_9
REMARK    4  A    between atoms: C_8  and  S_17
REMARK    5  A    between atoms: C_13  and  C_14
REMARK    6  A    between atoms: C_15  and  C_16
REMARK    7  A    between atoms: S_17  and  C_19
REMARK    8  A    between atoms: C_19  and  C_20
REMARK    9  A    between atoms: C_20  and  N_21
REMARK   10  A    between atoms: C_25  and  C_26
REMARK   11  A    between atoms: C_26  and  O_28
REMARK                            x       y       z     vdW  Elec       q    Type
REMARK                         _______ _______ _______ _____ _____    ______ ____
ROOT
ATOM      1  C   UNL     1       3.707   5.870  17.851  0.00  0.00    +0.000 C 
ENDROOT
BRANCH   1   2
ATOM      2  C   UNL     1       2.786   5.040  18.809  0.00  0.00    +0.000 A 
ATOM      3  C   UNL     1       2.510   5.520  20.115  0.00  0.00    +0.000 A 
ATOM      4  C   UNL     1       1.667   4.872  20.994  0.00  0.00    +0.000 A 
ATOM      5  C   UNL     1       1.042   3.705  20.622  0.00  0.00    +0.000 A 
ATOM      6  C   UNL     1       1.281   3.144  19.364  0.00  0.00    +0.000 A 
ATOM      7  C   UNL     1       0.573   1.845  19.047  0.00  0.00    +0.000 C 
ATOM      8  C   UNL     1       2.163   3.789  18.443  0.00  0.00    +0.000 A 
ATOM      9  C   UNL     1       2.403   3.080  17.117  0.00  0.00    +0.000 C 
ENDBRANCH   1   2
BRANCH   1  16
ATOM     10  C   UNL     1       5.208   4.802  15.387  0.00  0.00    +0.000 C 
ATOM     11  C   UNL     1       5.888   4.956  16.724  0.00  0.00    +0.000 A 
ATOM     12  C   UNL     1       7.238   4.562  16.817  0.00  0.00    +0.000 A 
ATOM     13  C   UNL     1       7.952   4.712  18.001  0.00  0.00    +0.000 A 
ATOM     14  C   UNL     1       7.349   5.292  19.098  0.00  0.00    +0.000 A 
ATOM     15  C   UNL     1       6.018   5.696  19.030  0.00  0.00    +0.000 A 
ATOM     16  C   UNL     1       5.224   5.500  17.868  0.00  0.00    +0.000 A 
ENDBRANCH   1  16
BRANCH   1  17
ATOM     17  S   UNL     1       3.500   7.724  17.972  0.00  0.00    +0.000 S 
ATOM     18  O   UNL     1       3.714   8.063  16.305  0.00  0.00    +0.000 OA
BRANCH  17  19
ATOM     19  C   UNL     1       1.685   7.825  17.845  0.00  0.00    +0.000 C 
BRANCH  19  20
ATOM     20  C   UNL     1       1.202   9.269  17.735  0.00  0.00    +0.000 C 
BRANCH  20  21
ATOM     21  N   UNL     1       1.417  10.020  18.996  0.00  0.00    +0.000 NA
ATOM     22  C   UNL     1       1.031  11.452  18.879  0.00  0.00    +0.000 C 
ATOM     23  C   UNL     1       1.284  12.195  20.192  0.00  0.00    +0.000 C 
ATOM     24  C   UNL     1       0.485  11.547  21.315  0.00  0.00    +0.000 C 
ATOM     25  C   UNL     1       0.874  10.067  21.422  0.00  0.00    +0.000 C 
ATOM     26  C   UNL     1       0.637   9.367  20.072  0.00  0.00    +0.000 C 
BRANCH  25  27
ATOM     27  C   UNL     1       0.081   9.391  22.514  0.00  0.00    +0.000 C 
ATOM     28  O   UNL     1       0.156   9.791  23.666  0.00  0.00    +0.000 OA
BRANCH  27  29
ATOM     29  O   UNL     1      -0.723   8.341  22.234  0.00  0.00    +0.000 OA
ATOM     30  H   UNL     1      -1.518   8.157  22.751  0.00  0.00    +0.000 HD
ENDBRANCH  27  29
ENDBRANCH  25  27
ENDBRANCH  20  21
ENDBRANCH  19  20
ENDBRANCH  17  19
ENDBRANCH   1  17
TORSDOF 8
ENDMDL
MODEL 2
REMARK VINA RESULT:      -7.2      3.263      7.926
REMARK  Name = 
REMARK  11 active torsions:
REMARK  status: ('A' for Active; 'I' for Inactive)
REMARK    1  A    between atoms: C_1  and  C_2
REMARK    2  A    between atoms: C_7  and  C_8
REMARK    3  A    between atoms: C_8  and  C_9
REMARK    4  A    between atoms: C_8  and  S_17
REMARK    5  A    between atoms: C_13  and  C_14
REMARK    6  A    between atoms: C_15  and  C_16
REMARK    7  A    between atoms: S_17  and  C_19
REMARK    8  A    between atoms: C_19  and  C_20
REMARK    9  A    between atoms: C_20  and  N_21
REMARK   10  A    between atoms: C_25  and  C_26
REMARK   11  A    between atoms: C_26  and  O_28
REMARK                            x       y       z     vdW  Elec       q    Type
REMARK                         _______ _______ _______ _____ _____    ______ ____
ROOT
ATOM      1  C   UNL     1       3.453   5.526  18.618  0.00  0.00    +0.000 C 
ENDROOT
BRANCH   1   2
ATOM      2  C   UNL     1       2.820   6.960  18.640  0.00  0.00    +0.000 A 
ATOM      3  C   UNL     1       3.017   7.837  17.543  0.00  0.00    +0.000 A 
ATOM      4  C   UNL     1       2.448   9.091  17.468  0.00  0.00    +0.000 A 
ATOM      5  C   UNL     1       1.641   9.547  18.484  0.00  0.00    +0.000 A 
ATOM      6  C   UNL     1       1.417   8.761  19.618  0.00  0.00    +0.000 A 
ATOM      7  C   UNL     1       0.538   9.350  20.699  0.00  0.00    +0.000 C 
ATOM      8  C   UNL     1       2.009   7.464  19.725  0.00  0.00    +0.000 A 
ATOM      9  C   UNL     1       1.752   6.701  21.016  0.00  0.00    +0.000 C 
ENDBRANCH   1   2
BRANCH   1  16
ATOM     10  C   UNL     1       1.081   3.974  17.423  0.00  0.00    +0.000 C 
ATOM     11  C   UNL     1       1.543   3.749  18.841  0.00  0.00    +0.000 A 
ATOM     12  C   UNL     1       0.825   2.818  19.620  0.00  0.00    +0.000 A 
ATOM     13  C   UNL     1       1.210   2.519  20.922  0.00  0.00    +0.000 A 
ATOM     14  C   UNL     1       2.336   3.109  21.457  0.00  0.00    +0.000 A 
ATOM     15  C   UNL     1       3.067   4.027  20.707  0.00  0.00    +0.000 A 
ATOM     16  C   UNL     1       2.675   4.421  19.399  0.00  0.00    +0.000 A 
ENDBRANCH   1  16
BRANCH   1  17
ATOM     17  S   UNL     1       5.269   5.462  19.059  0.00  0.00    +0.000 S 
ATOM     18  O   UNL     1       5.411   3.754  19.094  0.00  0.00    +0.000 OA
BRANCH  17  19
ATOM     19  C   UNL     1       5.981   5.570  17.384  0.00  0.00    +0.000 C 
BRANCH  19  20
ATOM     20  C   UNL     1       5.208   4.719  16.381  0.00  0.00    +0.000 C 
BRANCH  20  21
ATOM     21  N   UNL     1       5.690   4.926  14.994  0.00  0.00    +0.000 NA
ATOM     22  C   UNL     1       7.172   5.023  14.913  0.00  0.00    +0.000 C 
ATOM     23  C   UNL     1       7.627   5.253  13.470  0.00  0.00    +0.000 C 
ATOM     24  C   UNL     1       7.148   4.107  12.588  0.00  0.00    +0.000 C 
ATOM     25  C   UNL     1       5.620   4.001  12.687  0.00  0.00    +0.000 C 
ATOM     26  C   UNL     1       5.205   3.805  14.155  0.00  0.00    +0.000 C 
BRANCH  25  27
ATOM     27  C   UNL     1       5.116   2.858  11.839  0.00  0.00    +0.000 C 
ATOM     28  O   UNL     1       4.051   2.956  11.246  0.00  0.00    +0.000 OA
BRANCH  27  29
ATOM     29  O   UNL     1       5.831   1.718  11.722  0.00  0.00    +0.000 OA
ATOM     30  H   UNL     1       5.436   0.850  11.882  0.00  0.00    +0.000 HD
ENDBRANCH  27  29
ENDBRANCH  25  27
ENDBRANCH  20  21
ENDBRANCH  19  20
ENDBRANCH  17  19
ENDBRANCH   1  17
TORSDOF 8
ENDMDL
MODEL 3
REMARK VINA RESULT:      -7.1      3.367      7.993
REMARK  Name = 
REMARK  11 active torsions:
REMARK  status: ('A' for Active; 'I' for Inactive)
REMARK    1  A    between atoms: C_1  and  C_2
REMARK    2  A    between atoms: C_7  and  C_8
REMARK    3  A    between atoms: C_8  and  C_9
REMARK    4  A    between atoms: C_8  and  S_17
REMARK    5  A    between atoms: C_13  and  C_14
REMARK    6  A    between atoms: C_15  and  C_16
REMARK    7  A    between atoms: S_17  and  C_19
REMARK    8  A    between atoms: C_19  and  C_20
REMARK    9  A    between atoms: C_20  and  N_21
REMARK   10  A    between atoms: C_25  and  C_26
REMARK   11  A    between atoms: C_26  and  O_28
REMARK                            x       y       z     vdW  Elec       q    Type
REMARK                         _______ _______ _______ _____ _____    ______ ____
ROOT
ATOM      1  C   UNL     1       3.623   6.487  18.472  0.00  0.00    +0.000 C 
ENDROOT
BRANCH   1   2
ATOM      2  C   UNL     1       3.003   5.050  18.390  0.00  0.00    +0.000 A 
ATOM      3  C   UNL     1       1.686   4.875  17.894  0.00  0.00    +0.000 A 
ATOM      4  C   UNL     1       1.095   3.638  17.742  0.00  0.00    +0.000 A 
ATOM      5  C   UNL     1       1.785   2.496  18.074  0.00  0.00    +0.000 A 
ATOM      6  C   UNL     1       3.077   2.576  18.601  0.00  0.00    +0.000 A 
ATOM      7  C   UNL     1       3.753   1.273  18.963  0.00  0.00    +0.000 C 
ATOM      8  C   UNL     1       3.704   3.848  18.781  0.00  0.00    +0.000 A 
ATOM      9  C   UNL     1       5.091   3.842  19.407  0.00  0.00    +0.000 C 
ENDBRANCH   1   2
BRANCH   1  16
ATOM     10  C   UNL     1       2.025   6.824  21.079  0.00  0.00    +0.000 C 
ATOM     11  C   UNL     1       1.845   7.761  19.912  0.00  0.00    +0.000 A 
ATOM     12  C   UNL     1       0.888   8.789  20.044  0.00  0.00    +0.000 A 
ATOM     13  C   UNL     1       0.691   9.724  19.033  0.00  0.00    +0.000 A 
ATOM     14  C   UNL     1       1.467   9.676  17.893  0.00  0.00    +0.000 A 
ATOM     15  C   UNL     1       2.424   8.676  17.741  0.00  0.00    +0.000 A 
ATOM     16  C   UNL     1       2.615   7.655  18.712  0.00  0.00    +0.000 A 
ENDBRANCH   1  16
BRANCH   1  17
ATOM     17  S   UNL     1       4.785   6.923  17.074  0.00  0.00    +0.000 S 
ATOM     18  O   UNL     1       6.246   6.675  17.937  0.00  0.00    +0.000 OA
BRANCH  17  19
ATOM     19  C   UNL     1       4.890   5.294  16.262  0.00  0.00    +0.000 C 
BRANCH  19  20
ATOM     20  C   UNL     1       6.304   4.992  15.775  0.00  0.00    +0.000 C 
BRANCH  20  21
ATOM     21  N   UNL     1       6.407   5.063  14.297  0.00  0.00    +0.000 NA
ATOM     22  C   UNL     1       7.811   5.217  13.829  0.00  0.00    +0.000 C 
ATOM     23  C   UNL     1       7.872   5.304  12.303  0.00  0.00    +0.000 C 
ATOM     24  C   UNL     1       7.272   4.046  11.689  0.00  0.00    +0.000 C 
ATOM     25  C   UNL     1       5.829   3.883  12.186  0.00  0.00    +0.000 C 
ATOM     26  C   UNL     1       5.810   3.835  13.724  0.00  0.00    +0.000 C 
BRANCH  25  27
ATOM     27  C   UNL     1       5.213   2.630  11.612  0.00  0.00    +0.000 C 
ATOM     28  O   UNL     1       4.079   2.657  11.154  0.00  0.00    +0.000 OA
BRANCH  27  29
ATOM     29  O   UNL     1       5.902   1.469  11.592  0.00  0.00    +0.000 OA
ATOM     30  H   UNL     1       5.467   0.622  11.422  0.00  0.00    +0.000 HD
ENDBRANCH  27  29
ENDBRANCH  25  27
ENDBRANCH  20  21
ENDBRANCH  19  20
ENDBRANCH  17  19
ENDBRANCH   1  17
TORSDOF 8
ENDMDL
MODEL 4
REMARK VINA RESULT:      -7.0      3.083      7.848
REMARK  Name = 
REMARK  11 active torsions:
REMARK  status: ('A' for Active; 'I' for Inactive)
REMARK    1  A    between atoms: C_1  and  C_2
REMARK    2  A    between atoms: C_7  and  C_8
REMARK    3  A    between atoms: C_8  and  C_9
REMARK    4  A    between atoms: C_8  and  S_17
REMARK    5  A    between atoms: C_13  and  C_14
REMARK    6  A    between atoms: C_15  and  C_16
REMARK    7  A    between atoms: S_17  and  C_19
REMARK    8  A    between atoms: C_19  and  C_20
REMARK    9  A    between atoms: C_20  and  N_21
REMARK   10  A    between atoms: C_25  and  C_26
REMARK   11  A    between atoms: C_26  and  O_28
REMARK                            x       y       z     vdW  Elec       q    Type
REMARK                         _______ _______ _______ _____ _____    ______ ____
ROOT
ATOM      1  C   UNL     1       2.788   6.034  19.049  0.00  0.00    +0.000 C 
ENDROOT
BRANCH   1   2
ATOM      2  C   UNL     1       2.128   7.335  19.624  0.00  0.00    +0.000 A 
ATOM      3  C   UNL     1       1.678   7.364  20.969  0.00  0.00    +0.000 A 
ATOM      4  C   UNL     1       1.137   8.487  21.559  0.00  0.00    +0.000 A 
ATOM      5  C   UNL     1       1.015   9.655  20.843  0.00  0.00    +0.000 A 
ATOM      6  C   UNL     1       1.405   9.708  19.502  0.00  0.00    +0.000 A 
ATOM      7  C   UNL     1       1.212  11.024  18.783  0.00  0.00    +0.000 C 
ATOM      8  C   UNL     1       1.954   8.552  18.865  0.00  0.00    +0.000 A 
ATOM      9  C   UNL     1       2.302   8.687  17.390  0.00  0.00    +0.000 C 
ENDBRANCH   1   2
BRANCH   1  16
ATOM     10  C   UNL     1       1.651   3.651  17.471  0.00  0.00    +0.000 C 
ATOM     11  C   UNL     1       1.782   3.618  18.973  0.00  0.00    +0.000 A 
ATOM     12  C   UNL     1       1.333   2.460  19.640  0.00  0.00    +0.000 A 
ATOM     13  C   UNL     1       1.457   2.329  21.019  0.00  0.00    +0.000 A 
ATOM     14  C   UNL     1       2.065   3.328  21.751  0.00  0.00    +0.000 A 
ATOM     15  C   UNL     1       2.523   4.478  21.115  0.00  0.00    +0.000 A 
ATOM     16  C   UNL     1       2.356   4.693  19.721  0.00  0.00    +0.000 A 
ENDBRANCH   1  16
BRANCH   1  17
ATOM     17  S   UNL     1       4.649   6.101  18.893  0.00  0.00    +0.000 S 
ATOM     18  O   UNL     1       4.912   4.407  18.853  0.00  0.00    +0.000 OA
BRANCH  17  19
ATOM     19  C   UNL     1       4.787   6.250  17.082  0.00  0.00    +0.000 C 
BRANCH  19  20
ATOM     20  C   UNL     1       5.048   4.901  16.418  0.00  0.00    +0.000 C 
BRANCH  20  21
ATOM     21  N   UNL     1       5.622   5.055  15.059  0.00  0.00    +0.000 NA
ATOM     22  C   UNL     1       7.109   5.004  15.058  0.00  0.00    +0.000 C 
ATOM     23  C   UNL     1       7.661   5.184  13.643  0.00  0.00    +0.000 C 
ATOM     24  C   UNL     1       7.119   4.090  12.734  0.00  0.00    +0.000 C 
ATOM     25  C   UNL     1       5.584   4.136  12.750  0.00  0.00    +0.000 C 
ATOM     26  C   UNL     1       5.074   3.986  14.193  0.00  0.00    +0.000 C 
BRANCH  25  27
ATOM     27  C   UNL     1       5.016   3.046  11.873  0.00  0.00    +0.000 C 
ATOM     28  O   UNL     1       5.636   2.005  11.707  0.00  0.00    +0.000 OA
BRANCH  27  29
ATOM     29  O   UNL     1       3.820   3.203  11.265  0.00  0.00    +0.000 OA
ATOM     30  H   UNL     1       3.547   4.051  10.890  0.00  0.00    +0.000 HD
ENDBRANCH  27  29
ENDBRANCH  25  27
ENDBRANCH  20  21
ENDBRANCH  19  20
ENDBRANCH  17  19
ENDBRANCH   1  17
TORSDOF 8
ENDMDL
MODEL 5
REMARK VINA RESULT:      -7.0      2.005      2.290
REMARK  Name = 
REMARK  11 active torsions:
REMARK  status: ('A' for Active; 'I' for Inactive)
REMARK    1  A    between atoms: C_1  and  C_2
REMARK    2  A    between atoms: C_7  and  C_8
REMARK    3  A    between atoms: C_8  and  C_9
REMARK    4  A    between atoms: C_8  and  S_17
REMARK    5  A    between atoms: C_13  and  C_14
REMARK    6  A    between atoms: C_15  and  C_16
REMARK    7  A    between atoms: S_17  and  C_19
REMARK    8  A    between atoms: C_19  and  C_20
REMARK    9  A    between atoms: C_20  and  N_21
REMARK   10  A    between atoms: C_25  and  C_26
REMARK   11  A    between atoms: C_26  and  O_28
REMARK                            x       y       z     vdW  Elec       q    Type
REMARK                         _______ _______ _______ _____ _____    ______ ____
ROOT
ATOM      1  C   UNL     1       3.755   5.882  17.841  0.00  0.00    +0.000 C 
ENDROOT
BRANCH   1   2
ATOM      2  C   UNL     1       2.834   5.056  18.804  0.00  0.00    +0.000 A 
ATOM      3  C   UNL     1       2.602   5.516  20.126  0.00  0.00    +0.000 A 
ATOM      4  C   UNL     1       1.763   4.873  21.011  0.00  0.00    +0.000 A 
ATOM      5  C   UNL     1       1.098   3.731  20.631  0.00  0.00    +0.000 A 
ATOM      6  C   UNL     1       1.293   3.190  19.357  0.00  0.00    +0.000 A 
ATOM      7  C   UNL     1       0.543   1.917  19.030  0.00  0.00    +0.000 C 
ATOM      8  C   UNL     1       2.170   3.830  18.427  0.00  0.00    +0.000 A 
ATOM      9  C   UNL     1       2.359   3.143  17.083  0.00  0.00    +0.000 C 
ENDBRANCH   1   2
BRANCH   1  16
ATOM     10  C   UNL     1       5.155   4.825  15.314  0.00  0.00    +0.000 C 
ATOM     11  C   UNL     1       5.875   4.929  16.635  0.00  0.00    +0.000 A 
ATOM     12  C   UNL     1       7.215   4.492  16.682  0.00  0.00    +0.000 A 
ATOM     13  C   UNL     1       7.965   4.595  17.848  0.00  0.00    +0.000 A 
ATOM     14  C   UNL     1       7.410   5.167  18.973  0.00  0.00    +0.000 A 
ATOM     15  C   UNL     1       6.091   5.613  18.951  0.00  0.00    +0.000 A 
ATOM     16  C   UNL     1       5.260   5.467  17.808  0.00  0.00    +0.000 A 
ENDBRANCH   1  16
BRANCH   1  17
ATOM     17  S   UNL     1       3.608   7.738  18.011  0.00  0.00    +0.000 S 
ATOM     18  O   UNL     1       3.829   8.114  16.353  0.00  0.00    +0.000 OA
BRANCH  17  19
ATOM     19  C   UNL     1       1.796   7.901  17.893  0.00  0.00    +0.000 C 
BRANCH  19  20
ATOM     20  C   UNL     1       1.365   9.356  17.743  0.00  0.00    +0.000 C 
BRANCH  20  21
ATOM     21  N   UNL     1       0.346   9.738  18.751  0.00  0.00    +0.000 NA
ATOM     22  C   UNL     1       0.915  10.553  19.858  0.00  0.00    +0.000 C 
ATOM     23  C   UNL     1      -0.163  10.910  20.884  0.00  0.00    +0.000 C 
ATOM     24  C   UNL     1      -1.282  11.690  20.207  0.00  0.00    +0.000 C 
ATOM     25  C   UNL     1      -1.856  10.852  19.056  0.00  0.00    +0.000 C 
ATOM     26  C   UNL     1      -0.734  10.487  18.068  0.00  0.00    +0.000 C 
BRANCH  25  27
ATOM     27  C   UNL     1      -2.955  11.609  18.351  0.00  0.00    +0.000 C 
ATOM     28  O   UNL     1      -3.937  11.987  18.972  0.00  0.00    +0.000 OA
BRANCH  27  29
ATOM     29  O   UNL     1      -2.868  11.880  17.030  0.00  0.00    +0.000 OA
ATOM     30  H   UNL     1      -2.642  11.197  16.384  0.00  0.00    +0.000 HD
ENDBRANCH  27  29
ENDBRANCH  25  27
ENDBRANCH  20  21
ENDBRANCH  19  20
ENDBRANCH  17  19
ENDBRANCH   1  17
TORSDOF 8
ENDMDL
MODEL 6
REMARK VINA RESULT:      -6.9      2.899      7.772
REMARK  Name = 
REMARK  11 active torsions:
REMARK  status: ('A' for Active; 'I' for Inactive)
REMARK    1  A    between atoms: C_1  and  C_2
REMARK    2  A    between atoms: C_7  and  C_8
REMARK    3  A    between atoms: C_8  and  C_9
REMARK    4  A    between atoms: C_8  and  S_17
REMARK    5  A    between atoms: C_13  and  C_14
REMARK    6  A    between atoms: C_15  and  C_16
REMARK    7  A    between atoms: S_17  and  C_19
REMARK    8  A    between atoms: C_19  and  C_20
REMARK    9  A    between atoms: C_20  and  N_21
REMARK   10  A    between atoms: C_25  and  C_26
REMARK   11  A    between atoms: C_26  and  O_28
REMARK                            x       y       z     vdW  Elec       q    Type
REMARK                         _______ _______ _______ _____ _____    ______ ____
ROOT
ATOM      1  C   UNL     1       2.624   6.335  19.236  0.00  0.00    +0.000 C 
ENDROOT
BRANCH   1   2
ATOM      2  C   UNL     1       1.874   7.593  19.796  0.00  0.00    +0.000 A 
ATOM      3  C   UNL     1       1.418   7.605  21.139  0.00  0.00    +0.000 A 
ATOM      4  C   UNL     1       0.799   8.694  21.716  0.00  0.00    +0.000 A 
ATOM      5  C   UNL     1       0.601   9.844  20.988  0.00  0.00    +0.000 A 
ATOM      6  C   UNL     1       0.991   9.909  19.647  0.00  0.00    +0.000 A 
ATOM      7  C   UNL     1       0.712  11.202  18.914  0.00  0.00    +0.000 C 
ATOM      8  C   UNL     1       1.620   8.787  19.024  0.00  0.00    +0.000 A 
ATOM      9  C   UNL     1       1.965   8.931  17.548  0.00  0.00    +0.000 C 
ENDBRANCH   1   2
BRANCH   1  16
ATOM     10  C   UNL     1       1.346   4.173  17.460  0.00  0.00    +0.000 C 
ATOM     11  C   UNL     1       1.507   3.985  18.947  0.00  0.00    +0.000 A 
ATOM     12  C   UNL     1       1.019   2.786  19.508  0.00  0.00    +0.000 A 
ATOM     13  C   UNL     1       1.168   2.512  20.863  0.00  0.00    +0.000 A 
ATOM     14  C   UNL     1       1.836   3.406  21.675  0.00  0.00    +0.000 A 
ATOM     15  C   UNL     1       2.333   4.593  21.144  0.00  0.00    +0.000 A 
ATOM     16  C   UNL     1       2.146   4.953  19.783  0.00  0.00    +0.000 A 
ENDBRANCH   1  16
BRANCH   1  17
ATOM     17  S   UNL     1       4.490   6.438  19.304  0.00  0.00    +0.000 S 
ATOM     18  O   UNL     1       4.788   4.750  19.293  0.00  0.00    +0.000 OA
BRANCH  17  19
ATOM     19  C   UNL     1       4.839   6.596  17.521  0.00  0.00    +0.000 C 
BRANCH  19  20
ATOM     20  C   UNL     1       6.301   6.299  17.200  0.00  0.00    +0.000 C 
BRANCH  20  21
ATOM     21  N   UNL     1       6.441   5.165  16.255  0.00  0.00    +0.000 NA
ATOM     22  C   UNL     1       5.158   4.444  16.035  0.00  0.00    +0.000 C 
ATOM     23  C   UNL     1       5.347   3.273  15.070  0.00  0.00    +0.000 C 
ATOM     24  C   UNL     1       5.874   3.783  13.735  0.00  0.00    +0.000 C 
ATOM     25  C   UNL     1       7.190   4.539  13.968  0.00  0.00    +0.000 C 
ATOM     26  C   UNL     1       6.961   5.685  14.970  0.00  0.00    +0.000 C 
BRANCH  25  27
ATOM     27  C   UNL     1       7.726   5.077  12.664  0.00  0.00    +0.000 C 
ATOM     28  O   UNL     1       7.467   4.509  11.612  0.00  0.00    +0.000 OA
BRANCH  27  29
ATOM     29  O   UNL     1       8.492   6.189  12.639  0.00  0.00    +0.000 OA
ATOM     30  H   UNL     1       8.834   6.554  11.812  0.00  0.00    +0.000 HD
ENDBRANCH  27  29
ENDBRANCH  25  27
ENDBRANCH  20  21
ENDBRANCH  19  20
ENDBRANCH  17  19
ENDBRANCH   1  17
TORSDOF 8
ENDMDL
MODEL 7
REMARK VINA RESULT:      -6.9      0.732      1.500
REMARK  Name = 
REMARK  11 active torsions:
REMARK  status: ('A' for Active; 'I' for Inactive)
REMARK    1  A    between atoms: C_1  and  C_2
REMARK    2  A    between atoms: C_7  and  C_8
REMARK    3  A    between atoms: C_8  and  C_9
REMARK    4  A    between atoms: C_8  and  S_17
REMARK    5  A    between atoms: C_13  and  C_14
REMARK    6  A    between atoms: C_15  and  C_16
REMARK    7  A    between atoms: S_17  and  C_19
REMARK    8  A    between atoms: C_19  and  C_20
REMARK    9  A    between atoms: C_20  and  N_21
REMARK   10  A    between atoms: C_25  and  C_26
REMARK   11  A    between atoms: C_26  and  O_28
REMARK                            x       y       z     vdW  Elec       q    Type
REMARK                         _______ _______ _______ _____ _____    ______ ____
ROOT
ATOM      1  C   UNL     1       3.468   5.832  17.651  0.00  0.00    +0.000 C 
ENDROOT
BRANCH   1   2
ATOM      2  C   UNL     1       2.797   4.948  18.758  0.00  0.00    +0.000 A 
ATOM      3  C   UNL     1       2.719   5.424  20.092  0.00  0.00    +0.000 A 
ATOM      4  C   UNL     1       2.097   4.727  21.106  0.00  0.00    +0.000 A 
ATOM      5  C   UNL     1       1.508   3.511  20.850  0.00  0.00    +0.000 A 
ATOM      6  C   UNL     1       1.563   2.952  19.571  0.00  0.00    +0.000 A 
ATOM      7  C   UNL     1       0.912   1.600  19.383  0.00  0.00    +0.000 C 
ATOM      8  C   UNL     1       2.216   3.649  18.507  0.00  0.00    +0.000 A 
ATOM      9  C   UNL     1       2.272   2.942  17.161  0.00  0.00    +0.000 C 
ENDBRANCH   1   2
BRANCH   1  16
ATOM     10  C   UNL     1       5.976   5.301  19.352  0.00  0.00    +0.000 C 
ATOM     11  C   UNL     1       5.973   5.098  17.858  0.00  0.00    +0.000 A 
ATOM     12  C   UNL     1       7.178   4.682  17.255  0.00  0.00    +0.000 A 
ATOM     13  C   UNL     1       7.251   4.427  15.890  0.00  0.00    +0.000 A 
ATOM     14  C   UNL     1       6.120   4.544  15.109  0.00  0.00    +0.000 A 
ATOM     15  C   UNL     1       4.916   4.947  15.681  0.00  0.00    +0.000 A 
ATOM     16  C   UNL     1       4.805   5.287  17.056  0.00  0.00    +0.000 A 
ENDBRANCH   1  16
BRANCH   1  17
ATOM     17  S   UNL     1       3.656   7.639  18.094  0.00  0.00    +0.000 S 
ATOM     18  O   UNL     1       3.564   8.252  16.496  0.00  0.00    +0.000 OA
BRANCH  17  19
ATOM     19  C   UNL     1       1.911   8.039  18.437  0.00  0.00    +0.000 C 
BRANCH  19  20
ATOM     20  C   UNL     1       1.539   9.432  17.938  0.00  0.00    +0.000 C 
BRANCH  20  21
ATOM     21  N   UNL     1       1.065  10.306  19.039  0.00  0.00    +0.000 NA
ATOM     22  C   UNL     1      -0.140  11.094  18.665  0.00  0.00    +0.000 C 
ATOM     23  C   UNL     1      -0.585  11.993  19.819  0.00  0.00    +0.000 C 
ATOM     24  C   UNL     1      -0.899  11.145  21.045  0.00  0.00    +0.000 C 
ATOM     25  C   UNL     1       0.342  10.321  21.418  0.00  0.00    +0.000 C 
ATOM     26  C   UNL     1       0.775   9.459  20.220  0.00  0.00    +0.000 C 
BRANCH  25  27
ATOM     27  C   UNL     1       0.054   9.451  22.618  0.00  0.00    +0.000 C 
ATOM     28  O   UNL     1       0.635   9.651  23.675  0.00  0.00    +0.000 OA
BRANCH  27  29
ATOM     29  O   UNL     1      -0.845   8.447  22.542  0.00  0.00    +0.000 OA
ATOM     30  H   UNL     1      -0.826   7.698  23.154  0.00  0.00    +0.000 HD
ENDBRANCH  27  29
ENDBRANCH  25  27
ENDBRANCH  20  21
ENDBRANCH  19  20
ENDBRANCH  17  19
ENDBRANCH   1  17
TORSDOF 8
ENDMDL
MODEL 8
REMARK VINA RESULT:      -6.9      2.189      3.182
REMARK  Name = 
REMARK  11 active torsions:
REMARK  status: ('A' for Active; 'I' for Inactive)
REMARK    1  A    between atoms: C_1  and  C_2
REMARK    2  A    between atoms: C_7  and  C_8
REMARK    3  A    between atoms: C_8  and  C_9
REMARK    4  A    between atoms: C_8  and  S_17
REMARK    5  A    between atoms: C_13  and  C_14
REMARK    6  A    between atoms: C_15  and  C_16
REMARK    7  A    between atoms: S_17  and  C_19
REMARK    8  A    between atoms: C_19  and  C_20
REMARK    9  A    between atoms: C_20  and  N_21
REMARK   10  A    between atoms: C_25  and  C_26
REMARK   11  A    between atoms: C_26  and  O_28
REMARK                            x       y       z     vdW  Elec       q    Type
REMARK                         _______ _______ _______ _____ _____    ______ ____
ROOT
ATOM      1  C   UNL     1       3.391   5.389  17.494  0.00  0.00    +0.000 C 
ENDROOT
BRANCH   1   2
ATOM      2  C   UNL     1       2.708   4.180  18.223  0.00  0.00    +0.000 A 
ATOM      3  C   UNL     1       2.477   2.970  17.520  0.00  0.00    +0.000 A 
ATOM      4  C   UNL     1       1.930   1.849  18.108  0.00  0.00    +0.000 A 
ATOM      5  C   UNL     1       1.583   1.864  19.439  0.00  0.00    +0.000 A 
ATOM      6  C   UNL     1       1.747   3.025  20.200  0.00  0.00    +0.000 A 
ATOM      7  C   UNL     1       1.316   2.962  21.648  0.00  0.00    +0.000 C 
ATOM      8  C   UNL     1       2.298   4.204  19.608  0.00  0.00    +0.000 A 
ATOM      9  C   UNL     1       2.392   5.434  20.499  0.00  0.00    +0.000 C 
ENDBRANCH   1   2
BRANCH   1  16
ATOM     10  C   UNL     1       5.884   4.833  19.210  0.00  0.00    +0.000 C 
ATOM     11  C   UNL     1       5.957   4.909  17.706  0.00  0.00    +0.000 A 
ATOM     12  C   UNL     1       7.223   4.746  17.107  0.00  0.00    +0.000 A 
ATOM     13  C   UNL     1       7.372   4.757  15.724  0.00  0.00    +0.000 A 
ATOM     14  C   UNL     1       6.263   4.891  14.915  0.00  0.00    +0.000 A 
ATOM     15  C   UNL     1       5.001   5.046  15.481  0.00  0.00    +0.000 A 
ATOM     16  C   UNL     1       4.803   5.113  16.887  0.00  0.00    +0.000 A 
ENDBRANCH   1  16
BRANCH   1  17
ATOM     17  S   UNL     1       3.416   6.983  18.470  0.00  0.00    +0.000 S 
ATOM     18  O   UNL     1       4.499   7.832  17.448  0.00  0.00    +0.000 OA
BRANCH  17  19
ATOM     19  C   UNL     1       1.957   7.796  17.741  0.00  0.00    +0.000 C 
BRANCH  19  20
ATOM     20  C   UNL     1       1.890   9.277  18.105  0.00  0.00    +0.000 C 
BRANCH  20  21
ATOM     21  N   UNL     1       0.638   9.612  18.827  0.00  0.00    +0.000 NA
ATOM     22  C   UNL     1       0.878  10.473  20.016  0.00  0.00    +0.000 C 
ATOM     23  C   UNL     1      -0.433  10.781  20.741  0.00  0.00    +0.000 C 
ATOM     24  C   UNL     1      -1.395  11.486  19.794  0.00  0.00    +0.000 C 
ATOM     25  C   UNL     1      -1.627  10.601  18.561  0.00  0.00    +0.000 C 
ATOM     26  C   UNL     1      -0.282  10.288  17.883  0.00  0.00    +0.000 C 
BRANCH  25  27
ATOM     27  C   UNL     1      -2.560  11.285  17.591  0.00  0.00    +0.000 C 
ATOM     28  O   UNL     1      -3.726  11.488  17.900  0.00  0.00    +0.000 OA
BRANCH  27  29
ATOM     29  O   UNL     1      -2.123  11.681  16.376  0.00  0.00    +0.000 OA
ATOM     30  H   UNL     1      -1.970  12.613  16.169  0.00  0.00    +0.000 HD
ENDBRANCH  27  29
ENDBRANCH  25  27
ENDBRANCH  20  21
ENDBRANCH  19  20
ENDBRANCH  17  19
ENDBRANCH   1  17
TORSDOF 8
ENDMDL
MODEL 9
REMARK VINA RESULT:      -6.9      1.461      1.887
REMARK  Name = 
REMARK  11 active torsions:
REMARK  status: ('A' for Active; 'I' for Inactive)
REMARK    1  A    between atoms: C_1  and  C_2
REMARK    2  A    between atoms: C_7  and  C_8
REMARK    3  A    between atoms: C_8  and  C_9
REMARK    4  A    between atoms: C_8  and  S_17
REMARK    5  A    between atoms: C_13  and  C_14
REMARK    6  A    between atoms: C_15  and  C_16
REMARK    7  A    between atoms: S_17  and  C_19
REMARK    8  A    between atoms: C_19  and  C_20
REMARK    9  A    between atoms: C_20  and  N_21
REMARK   10  A    between atoms: C_25  and  C_26
REMARK   11  A    between atoms: C_26  and  O_28
REMARK                            x       y       z     vdW  Elec       q    Type
REMARK                         _______ _______ _______ _____ _____    ______ ____
ROOT
ATOM      1  C   UNL     1       3.787   5.910  17.749  0.00  0.00    +0.000 C 
ENDROOT
BRANCH   1   2
ATOM      2  C   UNL     1       2.835   5.133  18.724  0.00  0.00    +0.000 A 
ATOM      3  C   UNL     1       2.553   5.664  20.008  0.00  0.00    +0.000 A 
ATOM      4  C   UNL     1       1.686   5.066  20.898  0.00  0.00    +0.000 A 
ATOM      5  C   UNL     1       1.041   3.900  20.558  0.00  0.00    +0.000 A 
ATOM      6  C   UNL     1       1.284   3.289  19.325  0.00  0.00    +0.000 A 
ATOM      7  C   UNL     1       0.553   1.996  19.043  0.00  0.00    +0.000 C 
ATOM      8  C   UNL     1       2.191   3.883  18.392  0.00  0.00    +0.000 A 
ATOM      9  C   UNL     1       2.432   3.123  17.096  0.00  0.00    +0.000 C 
ENDBRANCH   1   2
BRANCH   1  16
ATOM     10  C   UNL     1       5.254   4.780  15.292  0.00  0.00    +0.000 C 
ATOM     11  C   UNL     1       5.934   4.912  16.631  0.00  0.00    +0.000 A 
ATOM     12  C   UNL     1       7.268   4.467  16.730  0.00  0.00    +0.000 A 
ATOM     13  C   UNL     1       7.984   4.593  17.916  0.00  0.00    +0.000 A 
ATOM     14  C   UNL     1       7.399   5.197  19.009  0.00  0.00    +0.000 A 
ATOM     15  C   UNL     1       6.085   5.652  18.936  0.00  0.00    +0.000 A 
ATOM     16  C   UNL     1       5.288   5.483  17.772  0.00  0.00    +0.000 A 
ENDBRANCH   1  16
BRANCH   1  17
ATOM     17  S   UNL     1       3.650   7.772  17.836  0.00  0.00    +0.000 S 
ATOM     18  O   UNL     1       3.769   8.065  16.151  0.00  0.00    +0.000 OA
BRANCH  17  19
ATOM     19  C   UNL     1       1.835   7.935  17.821  0.00  0.00    +0.000 C 
BRANCH  19  20
ATOM     20  C   UNL     1       1.392   9.383  18.005  0.00  0.00    +0.000 C 
BRANCH  20  21
ATOM     21  N   UNL     1       0.472   9.537  19.158  0.00  0.00    +0.000 NA
ATOM     22  C   UNL     1       1.046   9.004  20.422  0.00  0.00    +0.000 C 
ATOM     23  C   UNL     1       0.061   9.166  21.581  0.00  0.00    +0.000 C 
ATOM     24  C   UNL     1      -0.282  10.638  21.766  0.00  0.00    +0.000 C 
ATOM     25  C   UNL     1      -0.860  11.188  20.455  0.00  0.00    +0.000 C 
ATOM     26  C   UNL     1       0.147  10.974  19.311  0.00  0.00    +0.000 C 
BRANCH  25  27
ATOM     27  C   UNL     1      -1.190  12.654  20.600  0.00  0.00    +0.000 C 
ATOM     28  O   UNL     1      -0.910  13.439  19.705  0.00  0.00    +0.000 OA
BRANCH  27  29
ATOM     29  O   UNL     1      -1.799  13.117  21.713  0.00  0.00    +0.000 OA
ATOM     30  H   UNL     1      -2.571  13.699  21.667  0.00  0.00    +0.000 HD
ENDBRANCH  27  29
ENDBRANCH  25  27
ENDBRANCH  20  21
ENDBRANCH  19  20
ENDBRANCH  17  19
ENDBRANCH   1  17
TORSDOF 8
ENDMDL
