MODEL 1
REMARK VINA RESULT:      -9.1      0.000      0.000
REMARK  Name = 
REMARK  6 active torsions:
REMARK  status: ('A' for Active; 'I' for Inactive)
REMARK    1  A    between atoms: C_2  and  C_15
REMARK    2  A    between atoms: N_3  and  C_4
REMARK    3  A    between atoms: C_4  and  C_5
REMARK    4  A    between atoms: C_5  and  C_6
REMARK    5  A    between atoms: C_15  and  C_17
REMARK    6  A    between atoms: C_23  and  N_24
REMARK                            x       y       z     vdW  Elec       q    Type
REMARK                         _______ _______ _______ _____ _____    ______ ____
ROOT
ATOM      1  O   UNL     1       6.942   7.841  16.985  0.00  0.00    +0.000 OA
ATOM      2  C   UNL     1       7.619   7.477  17.938  0.00  0.00    +0.000 C 
ATOM      3  N   UNL     1       8.470   8.290  18.662  0.00  0.00    +0.000 N 
ATOM      4  H   UNL     1       9.149   7.829  19.265  0.00  0.00    +0.000 HD
ENDROOT
BRANCH   2   5
ATOM      5  C   UNL     1       7.549   6.027  18.435  0.00  0.00    +0.000 C 
ATOM      6  O   UNL     1       8.266   5.726  19.388  0.00  0.00    +0.000 OA
BRANCH   5   7
ATOM      7  C   UNL     1       6.612   5.092  17.816  0.00  0.00    +0.000 A 
ATOM      8  C   UNL     1       6.842   4.376  16.653  0.00  0.00    +0.000 A 
ATOM      9  N   UNL     1       5.751   3.595  16.395  0.00  0.00    +0.000 N 
ATOM     10  C   UNL     1       4.788   3.795  17.356  0.00  0.00    +0.000 A 
ATOM     11  C   UNL     1       3.522   3.210  17.484  0.00  0.00    +0.000 A 
ATOM     12  C   UNL     1       2.732   3.602  18.567  0.00  0.00    +0.000 A 
ATOM     13  C   UNL     1       3.203   4.552  19.481  0.00  0.00    +0.000 A 
ATOM     14  C   UNL     1       4.479   5.128  19.343  0.00  0.00    +0.000 A 
ATOM     15  C   UNL     1       5.292   4.738  18.256  0.00  0.00    +0.000 A 
ATOM     16  H   UNL     1       5.661   2.960  15.613  0.00  0.00    +0.000 HD
BRANCH  13  17
ATOM     17  N   UNL     1       2.349   4.956  20.606  0.00  0.00    +0.000 N 
ATOM     18  O   UNL     1       2.210   4.153  21.540  0.00  0.00    +0.000 OA
ATOM     19  O   UNL     1       1.811   6.068  20.556  0.00  0.00    +0.000 OA
ENDBRANCH  13  17
ENDBRANCH   5   7
ENDBRANCH   2   5
BRANCH   3  20
ATOM     20  C   UNL     1       8.718   9.650  18.225  0.00  0.00    +0.000 C 
BRANCH  20  21
ATOM     21  C   UNL     1       9.510  10.480  19.236  0.00  0.00    +0.000 C 
BRANCH  21  22
ATOM     22  C   UNL     1      10.415  11.488  18.596  0.00  0.00    +0.000 A 
ATOM     23  C   UNL     1      11.711  11.275  18.165  0.00  0.00    +0.000 A 
ATOM     24  N   UNL     1      12.193  12.452  17.652  0.00  0.00    +0.000 N 
ATOM     25  C   UNL     1      11.233  13.432  17.729  0.00  0.00    +0.000 A 
ATOM     26  C   UNL     1      11.281  14.773  17.330  0.00  0.00    +0.000 A 
ATOM     27  C   UNL     1      10.138  15.550  17.538  0.00  0.00    +0.000 A 
ATOM     28  C   UNL     1       8.996  15.006  18.119  0.00  0.00    +0.000 A 
ATOM     29  C   UNL     1       8.965  13.663  18.510  0.00  0.00    +0.000 A 
ATOM     30  C   UNL     1      10.104  12.858  18.315  0.00  0.00    +0.000 A 
ATOM     31  H   UNL     1      13.119  12.586  17.272  0.00  0.00    +0.000 HD
ENDBRANCH  21  22
ENDBRANCH  20  21
ENDBRANCH   3  20
TORSDOF 6
ENDMDL
MODEL 2
REMARK VINA RESULT:      -9.0      1.024      1.217
REMARK  Name = 
REMARK  6 active torsions:
REMARK  status: ('A' for Active; 'I' for Inactive)
REMARK    1  A    between atoms: C_2  and  C_15
REMARK    2  A    between atoms: N_3  and  C_4
REMARK    3  A    between atoms: C_4  and  C_5
REMARK    4  A    between atoms: C_5  and  C_6
REMARK    5  A    between atoms: C_15  and  C_17
REMARK    6  A    between atoms: C_23  and  N_24
REMARK                            x       y       z     vdW  Elec       q    Type
REMARK                         _______ _______ _______ _____ _____    ______ ____
ROOT
ATOM      1  O   UNL     1       6.946   7.760  17.020  0.00  0.00    +0.000 OA
ATOM      2  C   UNL     1       7.614   7.361  17.964  0.00  0.00    +0.000 C 
ATOM      3  N   UNL     1       8.484   8.140  18.704  0.00  0.00    +0.000 N 
ATOM      4  H   UNL     1       9.152   7.651  19.297  0.00  0.00    +0.000 HD
ENDROOT
BRANCH   2   5
ATOM      5  C   UNL     1       7.512   5.904  18.432  0.00  0.00    +0.000 C 
ATOM      6  O   UNL     1       8.226   5.566  19.375  0.00  0.00    +0.000 OA
BRANCH   5   7
ATOM      7  C   UNL     1       6.548   5.005  17.800  0.00  0.00    +0.000 A 
ATOM      8  C   UNL     1       6.752   4.313  16.617  0.00  0.00    +0.000 A 
ATOM      9  N   UNL     1       5.641   3.563  16.351  0.00  0.00    +0.000 N 
ATOM     10  C   UNL     1       4.691   3.760  17.326  0.00  0.00    +0.000 A 
ATOM     11  C   UNL     1       3.414   3.200  17.453  0.00  0.00    +0.000 A 
ATOM     12  C   UNL     1       2.644   3.583  18.553  0.00  0.00    +0.000 A 
ATOM     13  C   UNL     1       3.144   4.499  19.485  0.00  0.00    +0.000 A 
ATOM     14  C   UNL     1       4.431   5.050  19.348  0.00  0.00    +0.000 A 
ATOM     15  C   UNL     1       5.224   4.670  18.244  0.00  0.00    +0.000 A 
ATOM     16  H   UNL     1       5.530   2.949  15.555  0.00  0.00    +0.000 HD
BRANCH  13  17
ATOM     17  N   UNL     1       2.309   4.894  20.627  0.00  0.00    +0.000 N 
ATOM     18  O   UNL     1       1.771   6.011  20.587  0.00  0.00    +0.000 OA
ATOM     19  O   UNL     1       2.195   4.098  21.565  0.00  0.00    +0.000 OA
ENDBRANCH  13  17
ENDBRANCH   5   7
ENDBRANCH   2   5
BRANCH   3  20
ATOM     20  C   UNL     1       8.763   9.502  18.295  0.00  0.00    +0.000 C 
BRANCH  20  21
ATOM     21  C   UNL     1       9.382  10.357  19.401  0.00  0.00    +0.000 C 
BRANCH  21  22
ATOM     22  C   UNL     1      10.389  11.344  18.894  0.00  0.00    +0.000 A 
ATOM     23  C   UNL     1      11.224  11.184  17.805  0.00  0.00    +0.000 A 
ATOM     24  N   UNL     1      12.000  12.308  17.688  0.00  0.00    +0.000 N 
ATOM     25  C   UNL     1      11.682  13.210  18.675  0.00  0.00    +0.000 A 
ATOM     26  C   UNL     1      12.211  14.479  18.940  0.00  0.00    +0.000 A 
ATOM     27  C   UNL     1      11.690  15.180  20.031  0.00  0.00    +0.000 A 
ATOM     28  C   UNL     1      10.681  14.634  20.820  0.00  0.00    +0.000 A 
ATOM     29  C   UNL     1      10.163  13.365  20.539  0.00  0.00    +0.000 A 
ATOM     30  C   UNL     1      10.673  12.635  19.448  0.00  0.00    +0.000 A 
ATOM     31  H   UNL     1      12.706  12.458  16.981  0.00  0.00    +0.000 HD
ENDBRANCH  21  22
ENDBRANCH  20  21
ENDBRANCH   3  20
TORSDOF 6
ENDMDL
MODEL 3
REMARK VINA RESULT:      -9.0      1.926      2.475
REMARK  Name = 
REMARK  6 active torsions:
REMARK  status: ('A' for Active; 'I' for Inactive)
REMARK    1  A    between atoms: C_2  and  C_15
REMARK    2  A    between atoms: N_3  and  C_4
REMARK    3  A    between atoms: C_4  and  C_5
REMARK    4  A    between atoms: C_5  and  C_6
REMARK    5  A    between atoms: C_15  and  C_17
REMARK    6  A    between atoms: C_23  and  N_24
REMARK                            x       y       z     vdW  Elec       q    Type
REMARK                         _______ _______ _______ _____ _____    ______ ____
ROOT
ATOM      1  O   UNL     1       7.898   6.172  18.708  0.00  0.00    +0.000 OA
ATOM      2  C   UNL     1       7.626   6.695  17.636  0.00  0.00    +0.000 C 
ATOM      3  N   UNL     1       7.835   8.026  17.328  0.00  0.00    +0.000 N 
ATOM      4  H   UNL     1       7.355   8.392  16.508  0.00  0.00    +0.000 HD
ENDROOT
BRANCH   2   5
ATOM      5  C   UNL     1       7.024   5.866  16.494  0.00  0.00    +0.000 C 
ATOM      6  O   UNL     1       7.603   5.903  15.409  0.00  0.00    +0.000 OA
BRANCH   5   7
ATOM      7  C   UNL     1       5.850   5.032  16.744  0.00  0.00    +0.000 A 
ATOM      8  C   UNL     1       5.767   3.670  16.506  0.00  0.00    +0.000 A 
ATOM      9  N   UNL     1       4.525   3.235  16.878  0.00  0.00    +0.000 N 
ATOM     10  C   UNL     1       3.773   4.290  17.339  0.00  0.00    +0.000 A 
ATOM     11  C   UNL     1       2.457   4.303  17.818  0.00  0.00    +0.000 A 
ATOM     12  C   UNL     1       1.926   5.529  18.224  0.00  0.00    +0.000 A 
ATOM     13  C   UNL     1       2.695   6.696  18.145  0.00  0.00    +0.000 A 
ATOM     14  C   UNL     1       4.018   6.667  17.667  0.00  0.00    +0.000 A 
ATOM     15  C   UNL     1       4.570   5.434  17.257  0.00  0.00    +0.000 A 
ATOM     16  H   UNL     1       4.204   2.278  16.824  0.00  0.00    +0.000 HD
BRANCH  13  17
ATOM     17  N   UNL     1       2.110   7.975  18.568  0.00  0.00    +0.000 N 
ATOM     18  O   UNL     1       1.910   8.833  17.695  0.00  0.00    +0.000 OA
ATOM     19  O   UNL     1       1.855   8.128  19.768  0.00  0.00    +0.000 OA
ENDBRANCH  13  17
ENDBRANCH   5   7
ENDBRANCH   2   5
BRANCH   3  20
ATOM     20  C   UNL     1       8.287   8.945  18.354  0.00  0.00    +0.000 C 
BRANCH  20  21
ATOM     21  C   UNL     1       8.807  10.272  17.800  0.00  0.00    +0.000 C 
BRANCH  21  22
ATOM     22  C   UNL     1       9.636  11.040  18.784  0.00  0.00    +0.000 A 
ATOM     23  C   UNL     1       9.727  10.810  20.143  0.00  0.00    +0.000 A 
ATOM     24  N   UNL     1      10.577  11.741  20.682  0.00  0.00    +0.000 N 
ATOM     25  C   UNL     1      11.055  12.573  19.699  0.00  0.00    +0.000 A 
ATOM     26  C   UNL     1      11.940  13.654  19.786  0.00  0.00    +0.000 A 
ATOM     27  C   UNL     1      12.249  14.332  18.603  0.00  0.00    +0.000 A 
ATOM     28  C   UNL     1      11.698  13.941  17.386  0.00  0.00    +0.000 A 
ATOM     29  C   UNL     1      10.817  12.857  17.317  0.00  0.00    +0.000 A 
ATOM     30  C   UNL     1      10.485  12.158  18.495  0.00  0.00    +0.000 A 
ATOM     31  H   UNL     1      10.820  11.810  21.660  0.00  0.00    +0.000 HD
ENDBRANCH  21  22
ENDBRANCH  20  21
ENDBRANCH   3  20
TORSDOF 6
ENDMDL
MODEL 4
REMARK VINA RESULT:      -8.7      1.946      2.591
REMARK  Name = 
REMARK  6 active torsions:
REMARK  status: ('A' for Active; 'I' for Inactive)
REMARK    1  A    between atoms: C_2  and  C_15
REMARK    2  A    between atoms: N_3  and  C_4
REMARK    3  A    between atoms: C_4  and  C_5
REMARK    4  A    between atoms: C_5  and  C_6
REMARK    5  A    between atoms: C_15  and  C_17
REMARK    6  A    between atoms: C_23  and  N_24
REMARK                            x       y       z     vdW  Elec       q    Type
REMARK                         _______ _______ _______ _____ _____    ______ ____
ROOT
ATOM      1  O   UNL     1       7.641   5.807  18.218  0.00  0.00    +0.000 OA
ATOM      2  C   UNL     1       7.031   6.562  17.473  0.00  0.00    +0.000 C 
ATOM      3  N   UNL     1       7.313   7.903  17.298  0.00  0.00    +0.000 N 
ATOM      4  H   UNL     1       6.600   8.471  16.846  0.00  0.00    +0.000 HD
ENDROOT
BRANCH   2   5
ATOM      5  C   UNL     1       5.868   6.042  16.618  0.00  0.00    +0.000 C 
ATOM      6  O   UNL     1       5.846   6.378  15.435  0.00  0.00    +0.000 OA
BRANCH   5   7
ATOM      7  C   UNL     1       4.883   5.137  17.208  0.00  0.00    +0.000 A 
ATOM      8  C   UNL     1       4.809   3.772  16.981  0.00  0.00    +0.000 A 
ATOM      9  N   UNL     1       3.776   3.261  17.715  0.00  0.00    +0.000 N 
ATOM     10  C   UNL     1       3.147   4.266  18.412  0.00  0.00    +0.000 A 
ATOM     11  C   UNL     1       2.051   4.197  19.281  0.00  0.00    +0.000 A 
ATOM     12  C   UNL     1       1.604   5.387  19.858  0.00  0.00    +0.000 A 
ATOM     13  C   UNL     1       2.239   6.599  19.565  0.00  0.00    +0.000 A 
ATOM     14  C   UNL     1       3.343   6.654  18.694  0.00  0.00    +0.000 A 
ATOM     15  C   UNL     1       3.810   5.458  18.106  0.00  0.00    +0.000 A 
ATOM     16  H   UNL     1       3.511   2.285  17.746  0.00  0.00    +0.000 HD
BRANCH  13  17
ATOM     17  N   UNL     1       1.743   7.839  20.176  0.00  0.00    +0.000 N 
ATOM     18  O   UNL     1       1.512   7.827  21.395  0.00  0.00    +0.000 OA
ATOM     19  O   UNL     1       1.578   8.822  19.445  0.00  0.00    +0.000 OA
ENDBRANCH  13  17
ENDBRANCH   5   7
ENDBRANCH   2   5
BRANCH   3  20
ATOM     20  C   UNL     1       8.310   8.547  18.131  0.00  0.00    +0.000 C 
BRANCH  20  21
ATOM     21  C   UNL     1       8.523  10.024  17.796  0.00  0.00    +0.000 C 
BRANCH  21  22
ATOM     22  C   UNL     1       9.359  10.747  18.809  0.00  0.00    +0.000 A 
ATOM     23  C   UNL     1       9.322  10.577  20.180  0.00  0.00    +0.000 A 
ATOM     24  N   UNL     1      10.230  11.435  20.745  0.00  0.00    +0.000 N 
ATOM     25  C   UNL     1      10.870  12.159  19.768  0.00  0.00    +0.000 A 
ATOM     26  C   UNL     1      11.863  13.140  19.879  0.00  0.00    +0.000 A 
ATOM     27  C   UNL     1      12.333  13.719  18.697  0.00  0.00    +0.000 A 
ATOM     28  C   UNL     1      11.833  13.329  17.458  0.00  0.00    +0.000 A 
ATOM     29  C   UNL     1      10.842  12.346  17.366  0.00  0.00    +0.000 A 
ATOM     30  C   UNL     1      10.347  11.749  18.542  0.00  0.00    +0.000 A 
ATOM     31  H   UNL     1      10.407  11.527  21.735  0.00  0.00    +0.000 HD
ENDBRANCH  21  22
ENDBRANCH  20  21
ENDBRANCH   3  20
TORSDOF 6
ENDMDL
MODEL 5
REMARK VINA RESULT:      -8.7      5.437      8.615
REMARK  Name = 
REMARK  6 active torsions:
REMARK  status: ('A' for Active; 'I' for Inactive)
REMARK    1  A    between atoms: C_2  and  C_15
REMARK    2  A    between atoms: N_3  and  C_4
REMARK    3  A    between atoms: C_4  and  C_5
REMARK    4  A    between atoms: C_5  and  C_6
REMARK    5  A    between atoms: C_15  and  C_17
REMARK    6  A    between atoms: C_23  and  N_24
REMARK                            x       y       z     vdW  Elec       q    Type
REMARK                         _______ _______ _______ _____ _____    ______ ____
ROOT
ATOM      1  O   UNL     1       1.379   7.464  21.003  0.00  0.00    +0.000 OA
ATOM      2  C   UNL     1       1.892   6.935  20.026  0.00  0.00    +0.000 C 
ATOM      3  N   UNL     1       2.305   7.602  18.889  0.00  0.00    +0.000 N 
ATOM      4  H   UNL     1       2.489   7.037  18.062  0.00  0.00    +0.000 HD
ENDROOT
BRANCH   2   5
ATOM      5  C   UNL     1       2.147   5.422  20.003  0.00  0.00    +0.000 C 
ATOM      6  O   UNL     1       1.744   4.770  20.965  0.00  0.00    +0.000 OA
BRANCH   5   7
ATOM      7  C   UNL     1       2.788   4.813  18.839  0.00  0.00    +0.000 A 
ATOM      8  C   UNL     1       2.144   4.069  17.864  0.00  0.00    +0.000 A 
ATOM      9  N   UNL     1       3.062   3.682  16.929  0.00  0.00    +0.000 N 
ATOM     10  C   UNL     1       4.312   4.138  17.276  0.00  0.00    +0.000 A 
ATOM     11  C   UNL     1       5.536   3.976  16.614  0.00  0.00    +0.000 A 
ATOM     12  C   UNL     1       6.669   4.545  17.196  0.00  0.00    +0.000 A 
ATOM     13  C   UNL     1       6.571   5.247  18.403  0.00  0.00    +0.000 A 
ATOM     14  C   UNL     1       5.334   5.407  19.055  0.00  0.00    +0.000 A 
ATOM     15  C   UNL     1       4.177   4.841  18.476  0.00  0.00    +0.000 A 
ATOM     16  H   UNL     1       2.856   3.140  16.100  0.00  0.00    +0.000 HD
BRANCH  13  17
ATOM     17  N   UNL     1       7.780   5.828  19.001  0.00  0.00    +0.000 N 
ATOM     18  O   UNL     1       8.378   5.157  19.857  0.00  0.00    +0.000 OA
ATOM     19  O   UNL     1       8.132   6.951  18.625  0.00  0.00    +0.000 OA
ENDBRANCH  13  17
ENDBRANCH   5   7
ENDBRANCH   2   5
BRANCH   3  20
ATOM     20  C   UNL     1       2.015   9.014  18.732  0.00  0.00    +0.000 C 
BRANCH  20  21
ATOM     21  C   UNL     1       0.859   9.297  17.772  0.00  0.00    +0.000 C 
BRANCH  21  22
ATOM     22  C   UNL     1      -0.221  10.141  18.378  0.00  0.00    +0.000 A 
ATOM     23  C   UNL     1      -0.159  10.821  19.579  0.00  0.00    +0.000 A 
ATOM     24  N   UNL     1      -1.357  11.458  19.776  0.00  0.00    +0.000 N 
ATOM     25  C   UNL     1      -2.202  11.218  18.719  0.00  0.00    +0.000 A 
ATOM     26  C   UNL     1      -3.511  11.662  18.493  0.00  0.00    +0.000 A 
ATOM     27  C   UNL     1      -4.137  11.249  17.314  0.00  0.00    +0.000 A 
ATOM     28  C   UNL     1      -3.480  10.430  16.400  0.00  0.00    +0.000 A 
ATOM     29  C   UNL     1      -2.172   9.998  16.641  0.00  0.00    +0.000 A 
ATOM     30  C   UNL     1      -1.518  10.396  17.824  0.00  0.00    +0.000 A 
ATOM     31  H   UNL     1      -1.591  12.024  20.579  0.00  0.00    +0.000 HD
ENDBRANCH  21  22
ENDBRANCH  20  21
ENDBRANCH   3  20
TORSDOF 6
ENDMDL
MODEL 6
REMARK VINA RESULT:      -8.6      2.225      3.196
REMARK  Name = 
REMARK  6 active torsions:
REMARK  status: ('A' for Active; 'I' for Inactive)
REMARK    1  A    between atoms: C_2  and  C_15
REMARK    2  A    between atoms: N_3  and  C_4
REMARK    3  A    between atoms: C_4  and  C_5
REMARK    4  A    between atoms: C_5  and  C_6
REMARK    5  A    between atoms: C_15  and  C_17
REMARK    6  A    between atoms: C_23  and  N_24
REMARK                            x       y       z     vdW  Elec       q    Type
REMARK                         _______ _______ _______ _____ _____    ______ ____
ROOT
ATOM      1  O   UNL     1       7.493   6.149  16.580  0.00  0.00    +0.000 OA
ATOM      2  C   UNL     1       6.702   7.059  16.791  0.00  0.00    +0.000 C 
ATOM      3  N   UNL     1       7.031   8.285  17.336  0.00  0.00    +0.000 N 
ATOM      4  H   UNL     1       6.265   8.859  17.681  0.00  0.00    +0.000 HD
ENDROOT
BRANCH   2   5
ATOM      5  C   UNL     1       5.221   6.904  16.424  0.00  0.00    +0.000 C 
ATOM      6  O   UNL     1       4.949   6.771  15.232  0.00  0.00    +0.000 OA
BRANCH   5   7
ATOM      7  C   UNL     1       4.213   6.860  17.482  0.00  0.00    +0.000 A 
ATOM      8  C   UNL     1       3.409   7.919  17.870  0.00  0.00    +0.000 A 
ATOM      9  N   UNL     1       2.580   7.496  18.871  0.00  0.00    +0.000 N 
ATOM     10  C   UNL     1       2.833   6.178  19.171  0.00  0.00    +0.000 A 
ATOM     11  C   UNL     1       2.227   5.348  20.122  0.00  0.00    +0.000 A 
ATOM     12  C   UNL     1       2.686   4.033  20.223  0.00  0.00    +0.000 A 
ATOM     13  C   UNL     1       3.721   3.578  19.398  0.00  0.00    +0.000 A 
ATOM     14  C   UNL     1       4.318   4.421  18.443  0.00  0.00    +0.000 A 
ATOM     15  C   UNL     1       3.861   5.752  18.325  0.00  0.00    +0.000 A 
ATOM     16  H   UNL     1       1.880   8.067  19.327  0.00  0.00    +0.000 HD
BRANCH  13  17
ATOM     17  N   UNL     1       4.193   2.193  19.531  0.00  0.00    +0.000 N 
ATOM     18  O   UNL     1       3.757   1.356  18.726  0.00  0.00    +0.000 OA
ATOM     19  O   UNL     1       4.992   1.938  20.440  0.00  0.00    +0.000 OA
ENDBRANCH  13  17
ENDBRANCH   5   7
ENDBRANCH   2   5
BRANCH   3  20
ATOM     20  C   UNL     1       8.373   8.519  17.835  0.00  0.00    +0.000 C 
BRANCH  20  21
ATOM     21  C   UNL     1       8.445   9.613  18.901  0.00  0.00    +0.000 C 
BRANCH  21  22
ATOM     22  C   UNL     1       8.866  10.944  18.356  0.00  0.00    +0.000 A 
ATOM     23  C   UNL     1       8.131  11.761  17.519  0.00  0.00    +0.000 A 
ATOM     24  N   UNL     1       8.878  12.877  17.242  0.00  0.00    +0.000 N 
ATOM     25  C   UNL     1      10.088  12.812  17.891  0.00  0.00    +0.000 A 
ATOM     26  C   UNL     1      11.155  13.719  17.900  0.00  0.00    +0.000 A 
ATOM     27  C   UNL     1      12.279  13.383  18.659  0.00  0.00    +0.000 A 
ATOM     28  C   UNL     1      12.331  12.193  19.380  0.00  0.00    +0.000 A 
ATOM     29  C   UNL     1      11.255  11.300  19.361  0.00  0.00    +0.000 A 
ATOM     30  C   UNL     1      10.110  11.611  18.601  0.00  0.00    +0.000 A 
ATOM     31  H   UNL     1       8.588  13.640  16.647  0.00  0.00    +0.000 HD
ENDBRANCH  21  22
ENDBRANCH  20  21
ENDBRANCH   3  20
TORSDOF 6
ENDMDL
MODEL 7
REMARK VINA RESULT:      -8.4      5.674      8.342
REMARK  Name = 
REMARK  6 active torsions:
REMARK  status: ('A' for Active; 'I' for Inactive)
REMARK    1  A    between atoms: C_2  and  C_15
REMARK    2  A    between atoms: N_3  and  C_4
REMARK    3  A    between atoms: C_4  and  C_5
REMARK    4  A    between atoms: C_5  and  C_6
REMARK    5  A    between atoms: C_15  and  C_17
REMARK    6  A    between atoms: C_23  and  N_24
REMARK                            x       y       z     vdW  Elec       q    Type
REMARK                         _______ _______ _______ _____ _____    ______ ____
ROOT
ATOM      1  O   UNL     1       2.277   4.908  17.422  0.00  0.00    +0.000 OA
ATOM      2  C   UNL     1       3.423   5.333  17.491  0.00  0.00    +0.000 C 
ATOM      3  N   UNL     1       3.769   6.630  17.818  0.00  0.00    +0.000 N 
ATOM      4  H   UNL     1       4.722   6.921  17.609  0.00  0.00    +0.000 HD
ENDROOT
BRANCH   2   5
ATOM      5  C   UNL     1       4.616   4.404  17.230  0.00  0.00    +0.000 C 
ATOM      6  O   UNL     1       4.570   3.279  17.725  0.00  0.00    +0.000 OA
BRANCH   5   7
ATOM      7  C   UNL     1       5.711   4.854  16.373  0.00  0.00    +0.000 A 
ATOM      8  C   UNL     1       6.724   5.720  16.752  0.00  0.00    +0.000 A 
ATOM      9  N   UNL     1       7.572   5.893  15.694  0.00  0.00    +0.000 N 
ATOM     10  C   UNL     1       7.130   5.171  14.610  0.00  0.00    +0.000 A 
ATOM     11  C   UNL     1       7.685   5.057  13.329  0.00  0.00    +0.000 A 
ATOM     12  C   UNL     1       7.020   4.251  12.403  0.00  0.00    +0.000 A 
ATOM     13  C   UNL     1       5.837   3.590  12.758  0.00  0.00    +0.000 A 
ATOM     14  C   UNL     1       5.293   3.710  14.050  0.00  0.00    +0.000 A 
ATOM     15  C   UNL     1       5.957   4.517  14.999  0.00  0.00    +0.000 A 
ATOM     16  H   UNL     1       8.405   6.466  15.704  0.00  0.00    +0.000 HD
BRANCH  13  17
ATOM     17  N   UNL     1       5.151   2.757  11.762  0.00  0.00    +0.000 N 
ATOM     18  O   UNL     1       4.057   3.157  11.333  0.00  0.00    +0.000 OA
ATOM     19  O   UNL     1       5.694   1.704  11.412  0.00  0.00    +0.000 OA
ENDBRANCH  13  17
ENDBRANCH   5   7
ENDBRANCH   2   5
BRANCH   3  20
ATOM     20  C   UNL     1       2.738   7.638  17.972  0.00  0.00    +0.000 C 
BRANCH  20  21
ATOM     21  C   UNL     1       2.252   7.798  19.413  0.00  0.00    +0.000 C 
BRANCH  21  22
ATOM     22  C   UNL     1       1.326   8.961  19.601  0.00  0.00    +0.000 A 
ATOM     23  C   UNL     1       0.910   9.848  18.626  0.00  0.00    +0.000 A 
ATOM     24  N   UNL     1       0.082  10.771  19.210  0.00  0.00    +0.000 N 
ATOM     25  C   UNL     1      -0.062  10.501  20.550  0.00  0.00    +0.000 A 
ATOM     26  C   UNL     1      -0.806  11.170  21.529  0.00  0.00    +0.000 A 
ATOM     27  C   UNL     1      -0.760  10.665  22.831  0.00  0.00    +0.000 A 
ATOM     28  C   UNL     1      -0.005   9.536  23.138  0.00  0.00    +0.000 A 
ATOM     29  C   UNL     1       0.731   8.879  22.146  0.00  0.00    +0.000 A 
ATOM     30  C   UNL     1       0.706   9.369  20.826  0.00  0.00    +0.000 A 
ATOM     31  H   UNL     1      -0.362  11.542  18.731  0.00  0.00    +0.000 HD
ENDBRANCH  21  22
ENDBRANCH  20  21
ENDBRANCH   3  20
TORSDOF 6
ENDMDL
MODEL 8
REMARK VINA RESULT:      -8.4      2.142      2.639
REMARK  Name = 
REMARK  6 active torsions:
REMARK  status: ('A' for Active; 'I' for Inactive)
REMARK    1  A    between atoms: C_2  and  C_15
REMARK    2  A    between atoms: N_3  and  C_4
REMARK    3  A    between atoms: C_4  and  C_5
REMARK    4  A    between atoms: C_5  and  C_6
REMARK    5  A    between atoms: C_15  and  C_17
REMARK    6  A    between atoms: C_23  and  N_24
REMARK                            x       y       z     vdW  Elec       q    Type
REMARK                         _______ _______ _______ _____ _____    ______ ____
ROOT
ATOM      1  O   UNL     1       8.084   6.654  18.835  0.00  0.00    +0.000 OA
ATOM      2  C   UNL     1       7.688   7.086  17.760  0.00  0.00    +0.000 C 
ATOM      3  N   UNL     1       7.726   8.413  17.378  0.00  0.00    +0.000 N 
ATOM      4  H   UNL     1       7.157   8.680  16.576  0.00  0.00    +0.000 HD
ENDROOT
BRANCH   2   5
ATOM      5  C   UNL     1       7.117   6.135  16.700  0.00  0.00    +0.000 C 
ATOM      6  O   UNL     1       7.723   6.056  15.633  0.00  0.00    +0.000 OA
BRANCH   5   7
ATOM      7  C   UNL     1       5.937   5.329  17.009  0.00  0.00    +0.000 A 
ATOM      8  C   UNL     1       5.869   3.947  16.945  0.00  0.00    +0.000 A 
ATOM      9  N   UNL     1       4.616   3.552  17.321  0.00  0.00    +0.000 N 
ATOM     10  C   UNL     1       3.842   4.650  17.614  0.00  0.00    +0.000 A 
ATOM     11  C   UNL     1       2.508   4.711  18.036  0.00  0.00    +0.000 A 
ATOM     12  C   UNL     1       1.956   5.974  18.261  0.00  0.00    +0.000 A 
ATOM     13  C   UNL     1       2.722   7.129  18.063  0.00  0.00    +0.000 A 
ATOM     14  C   UNL     1       4.063   7.052  17.644  0.00  0.00    +0.000 A 
ATOM     15  C   UNL     1       4.637   5.782  17.417  0.00  0.00    +0.000 A 
ATOM     16  H   UNL     1       4.302   2.592  17.377  0.00  0.00    +0.000 HD
BRANCH  13  17
ATOM     17  N   UNL     1       2.115   8.446  18.296  0.00  0.00    +0.000 N 
ATOM     18  O   UNL     1       1.568   8.642  19.392  0.00  0.00    +0.000 OA
ATOM     19  O   UNL     1       2.177   9.282  17.388  0.00  0.00    +0.000 OA
ENDBRANCH  13  17
ENDBRANCH   5   7
ENDBRANCH   2   5
BRANCH   3  20
ATOM     20  C   UNL     1       8.132   9.430  18.329  0.00  0.00    +0.000 C 
BRANCH  20  21
ATOM     21  C   UNL     1       9.293  10.295  17.838  0.00  0.00    +0.000 C 
BRANCH  21  22
ATOM     22  C   UNL     1       9.002  11.764  17.893  0.00  0.00    +0.000 A 
ATOM     23  C   UNL     1       7.942  12.417  17.294  0.00  0.00    +0.000 A 
ATOM     24  N   UNL     1       8.046  13.755  17.574  0.00  0.00    +0.000 N 
ATOM     25  C   UNL     1       9.151  13.992  18.356  0.00  0.00    +0.000 A 
ATOM     26  C   UNL     1       9.644  15.194  18.878  0.00  0.00    +0.000 A 
ATOM     27  C   UNL     1      10.809  15.133  19.647  0.00  0.00    +0.000 A 
ATOM     28  C   UNL     1      11.450  13.920  19.886  0.00  0.00    +0.000 A 
ATOM     29  C   UNL     1      10.942  12.729  19.358  0.00  0.00    +0.000 A 
ATOM     30  C   UNL     1       9.772  12.762  18.575  0.00  0.00    +0.000 A 
ATOM     31  H   UNL     1       7.407  14.469  17.254  0.00  0.00    +0.000 HD
ENDBRANCH  21  22
ENDBRANCH  20  21
ENDBRANCH   3  20
TORSDOF 6
ENDMDL
MODEL 9
REMARK VINA RESULT:      -8.4      1.870      2.320
REMARK  Name = 
REMARK  6 active torsions:
REMARK  status: ('A' for Active; 'I' for Inactive)
REMARK    1  A    between atoms: C_2  and  C_15
REMARK    2  A    between atoms: N_3  and  C_4
REMARK    3  A    between atoms: C_4  and  C_5
REMARK    4  A    between atoms: C_5  and  C_6
REMARK    5  A    between atoms: C_15  and  C_17
REMARK    6  A    between atoms: C_23  and  N_24
REMARK                            x       y       z     vdW  Elec       q    Type
REMARK                         _______ _______ _______ _____ _____    ______ ____
ROOT
ATOM      1  O   UNL     1       8.135   6.463  19.367  0.00  0.00    +0.000 OA
ATOM      2  C   UNL     1       7.690   6.327  18.236  0.00  0.00    +0.000 C 
ATOM      3  N   UNL     1       7.373   7.364  17.379  0.00  0.00    +0.000 N 
ATOM      4  H   UNL     1       6.794   7.137  16.572  0.00  0.00    +0.000 HD
ENDROOT
BRANCH   2   5
ATOM      5  C   UNL     1       7.464   4.927  17.649  0.00  0.00    +0.000 C 
ATOM      6  O   UNL     1       8.399   4.131  17.721  0.00  0.00    +0.000 OA
BRANCH   5   7
ATOM      7  C   UNL     1       6.158   4.576  17.095  0.00  0.00    +0.000 A 
ATOM      8  C   UNL     1       5.791   4.695  15.765  0.00  0.00    +0.000 A 
ATOM      9  N   UNL     1       4.506   4.254  15.623  0.00  0.00    +0.000 N 
ATOM     10  C   UNL     1       4.002   3.862  16.841  0.00  0.00    +0.000 A 
ATOM     11  C   UNL     1       2.738   3.349  17.159  0.00  0.00    +0.000 A 
ATOM     12  C   UNL     1       2.485   3.033  18.495  0.00  0.00    +0.000 A 
ATOM     13  C   UNL     1       3.468   3.231  19.471  0.00  0.00    +0.000 A 
ATOM     14  C   UNL     1       4.736   3.742  19.136  0.00  0.00    +0.000 A 
ATOM     15  C   UNL     1       5.010   4.062  17.788  0.00  0.00    +0.000 A 
ATOM     16  H   UNL     1       3.996   4.218  14.750  0.00  0.00    +0.000 HD
BRANCH  13  17
ATOM     17  N   UNL     1       3.172   2.901  20.871  0.00  0.00    +0.000 N 
ATOM     18  O   UNL     1       3.937   2.114  21.451  0.00  0.00    +0.000 OA
ATOM     19  O   UNL     1       2.177   3.417  21.392  0.00  0.00    +0.000 OA
ENDBRANCH  13  17
ENDBRANCH   5   7
ENDBRANCH   2   5
BRANCH   3  20
ATOM     20  C   UNL     1       7.428   8.734  17.849  0.00  0.00    +0.000 C 
BRANCH  20  21
ATOM     21  C   UNL     1       8.743   9.440  17.520  0.00  0.00    +0.000 C 
BRANCH  21  22
ATOM     22  C   UNL     1       9.297  10.228  18.669  0.00  0.00    +0.000 A 
ATOM     23  C   UNL     1       8.941  10.105  19.999  0.00  0.00    +0.000 A 
ATOM     24  N   UNL     1       9.667  11.015  20.724  0.00  0.00    +0.000 N 
ATOM     25  C   UNL     1      10.501  11.727  19.895  0.00  0.00    +0.000 A 
ATOM     26  C   UNL     1      11.413  12.746  20.194  0.00  0.00    +0.000 A 
ATOM     27  C   UNL     1      12.133  13.299  19.132  0.00  0.00    +0.000 A 
ATOM     28  C   UNL     1      11.950  12.848  17.827  0.00  0.00    +0.000 A 
ATOM     29  C   UNL     1      11.036  11.827  17.547  0.00  0.00    +0.000 A 
ATOM     30  C   UNL     1      10.293  11.255  18.598  0.00  0.00    +0.000 A 
ATOM     31  H   UNL     1       9.603  11.148  21.723  0.00  0.00    +0.000 HD
ENDBRANCH  21  22
ENDBRANCH  20  21
ENDBRANCH   3  20
TORSDOF 6
ENDMDL
