MODEL 1
REMARK VINA RESULT:      -8.6      0.000      0.000
REMARK  Name = 
REMARK  7 active torsions:
REMARK  status: ('A' for Active; 'I' for Inactive)
REMARK    1  A    between atoms: C_1  and  C_2
REMARK    2  A    between atoms: C_4  and  C_5
REMARK    3  A    between atoms: C_6  and  C_7
REMARK    4  A    between atoms: C_10  and  C_11
REMARK    5  A    between atoms: C_11  and  C_12
REMARK    6  A    between atoms: C_14  and  C_15
REMARK    7  A    between atoms: C_30  and  C_31
REMARK                            x       y       z     vdW  Elec       q    Type
REMARK                         _______ _______ _______ _____ _____    ______ ____
ROOT
ATOM      1  C   UNL     1       0.250  10.835  20.328  0.00  0.00    +0.000 A 
ATOM      2  N   UNL     1      -1.032  10.760  20.028  0.00  0.00    +0.000 NA
ATOM      3  C   UNL     1      -1.472  11.971  19.515  0.00  0.00    +0.000 A 
ATOM      4  C   UNL     1      -0.507  12.956  19.447  0.00  0.00    +0.000 A 
ATOM      5  S   UNL     1       0.982  12.367  20.054  0.00  0.00    +0.000 S 
ENDROOT
BRANCH   3   6
ATOM      6  C   UNL     1      -2.833  12.074  19.065  0.00  0.00    +0.000 A 
ATOM      7  C   UNL     1      -3.801  12.551  19.873  0.00  0.00    +0.000 A 
ATOM      8  C   UNL     1      -5.185  12.644  19.439  0.00  0.00    +0.000 A 
ATOM      9  C   UNL     1      -6.213  13.061  20.286  0.00  0.00    +0.000 A 
ATOM     10  C   UNL     1      -7.526  13.138  19.808  0.00  0.00    +0.000 A 
ATOM     11  C   UNL     1      -7.813  12.807  18.481  0.00  0.00    +0.000 A 
ATOM     12  C   UNL     1      -6.792  12.387  17.634  0.00  0.00    +0.000 A 
ATOM     13  C   UNL     1      -5.494  12.305  18.130  0.00  0.00    +0.000 A 
ATOM     14  O   UNL     1      -4.500  11.841  17.257  0.00  0.00    +0.000 OA
ATOM     15  C   UNL     1      -3.187  11.645  17.674  0.00  0.00    +0.000 A 
ATOM     16  O   UNL     1      -2.372  11.150  16.901  0.00  0.00    +0.000 OA
ENDBRANCH   3   6
BRANCH   1  17
ATOM     17  C   UNL     1       1.065   9.689  20.839  0.00  0.00    +0.000 C 
BRANCH  17  21
ATOM     18  C   UNL     1       2.323   7.072  18.612  0.00  0.00    +0.000 A 
ATOM     19  C   UNL     1       2.397   8.007  17.595  0.00  0.00    +0.000 A 
ATOM     20  S   UNL     1       1.871   9.542  18.156  0.00  0.00    +0.000 S 
ATOM     21  C   UNL     1       1.583   8.858  19.705  0.00  0.00    +0.000 A 
ATOM     22  N   UNL     1       1.855   7.581  19.811  0.00  0.00    +0.000 NA
BRANCH  18  28
ATOM     23  C   UNL     1       3.691   1.461  18.049  0.00  0.00    +0.000 C 
ATOM     24  C   UNL     1       3.314   2.909  18.206  0.00  0.00    +0.000 A 
ATOM     25  C   UNL     1       4.279   3.897  17.964  0.00  0.00    +0.000 A 
ATOM     26  C   UNL     1       3.986   5.266  18.094  0.00  0.00    +0.000 A 
ATOM     27  C   UNL     1       5.084   6.258  17.806  0.00  0.00    +0.000 C 
ATOM     28  C   UNL     1       2.689   5.660  18.481  0.00  0.00    +0.000 A 
ATOM     29  C   UNL     1       1.721   4.663  18.716  0.00  0.00    +0.000 A 
ATOM     30  C   UNL     1       2.018   3.296  18.582  0.00  0.00    +0.000 A 
ATOM     31  C   UNL     1       0.937   2.278  18.826  0.00  0.00    +0.000 C 
ENDBRANCH  18  28
ENDBRANCH  17  21
ENDBRANCH   1  17
TORSDOF 4
ENDMDL
MODEL 2
REMARK VINA RESULT:      -8.5      4.273     10.922
REMARK  Name = 
REMARK  7 active torsions:
REMARK  status: ('A' for Active; 'I' for Inactive)
REMARK    1  A    between atoms: C_1  and  C_2
REMARK    2  A    between atoms: C_4  and  C_5
REMARK    3  A    between atoms: C_6  and  C_7
REMARK    4  A    between atoms: C_10  and  C_11
REMARK    5  A    between atoms: C_11  and  C_12
REMARK    6  A    between atoms: C_14  and  C_15
REMARK    7  A    between atoms: C_30  and  C_31
REMARK                            x       y       z     vdW  Elec       q    Type
REMARK                         _______ _______ _______ _____ _____    ______ ____
ROOT
ATOM      1  C   UNL     1       3.256   5.285  19.516  0.00  0.00    +0.000 A 
ATOM      2  N   UNL     1       3.986   5.626  18.472  0.00  0.00    +0.000 NA
ATOM      3  C   UNL     1       4.618   4.508  17.948  0.00  0.00    +0.000 A 
ATOM      4  C   UNL     1       4.362   3.330  18.620  0.00  0.00    +0.000 A 
ATOM      5  S   UNL     1       3.323   3.621  19.950  0.00  0.00    +0.000 S 
ENDROOT
BRANCH   3   6
ATOM      6  C   UNL     1       5.414   4.660  16.761  0.00  0.00    +0.000 A 
ATOM      7  C   UNL     1       5.070   4.053  15.607  0.00  0.00    +0.000 A 
ATOM      8  C   UNL     1       5.874   4.182  14.404  0.00  0.00    +0.000 A 
ATOM      9  C   UNL     1       5.576   3.499  13.223  0.00  0.00    +0.000 A 
ATOM     10  C   UNL     1       6.385   3.670  12.093  0.00  0.00    +0.000 A 
ATOM     11  C   UNL     1       7.486   4.530  12.138  0.00  0.00    +0.000 A 
ATOM     12  C   UNL     1       7.788   5.209  13.314  0.00  0.00    +0.000 A 
ATOM     13  C   UNL     1       6.981   5.018  14.432  0.00  0.00    +0.000 A 
ATOM     14  O   UNL     1       7.341   5.690  15.609  0.00  0.00    +0.000 OA
ATOM     15  C   UNL     1       6.649   5.506  16.802  0.00  0.00    +0.000 A 
ATOM     16  O   UNL     1       7.057   6.043  17.828  0.00  0.00    +0.000 OA
ENDBRANCH   3   6
BRANCH   1  17
ATOM     17  C   UNL     1       2.385   6.230  20.281  0.00  0.00    +0.000 C 
BRANCH  17  21
ATOM     18  C   UNL     1       1.367   9.506  19.006  0.00  0.00    +0.000 A 
ATOM     19  C   UNL     1       2.006   9.213  17.815  0.00  0.00    +0.000 A 
ATOM     20  S   UNL     1       2.719   7.653  17.887  0.00  0.00    +0.000 S 
ATOM     21  C   UNL     1       2.131   7.477  19.491  0.00  0.00    +0.000 A 
ATOM     22  N   UNL     1       1.451   8.497  19.951  0.00  0.00    +0.000 NA
BRANCH  18  28
ATOM     23  C   UNL     1      -1.360  14.502  20.130  0.00  0.00    +0.000 C 
ATOM     24  C   UNL     1      -0.636  13.212  19.857  0.00  0.00    +0.000 A 
ATOM     25  C   UNL     1      -1.233  12.255  19.024  0.00  0.00    +0.000 A 
ATOM     26  C   UNL     1      -0.605  11.032  18.733  0.00  0.00    +0.000 A 
ATOM     27  C   UNL     1      -1.319  10.067  17.821  0.00  0.00    +0.000 C 
ATOM     28  C   UNL     1       0.658  10.755  19.292  0.00  0.00    +0.000 A 
ATOM     29  C   UNL     1       1.257  11.723  20.123  0.00  0.00    +0.000 A 
ATOM     30  C   UNL     1       0.627  12.945  20.410  0.00  0.00    +0.000 A 
ATOM     31  C   UNL     1       1.325  13.949  21.287  0.00  0.00    +0.000 C 
ENDBRANCH  18  28
ENDBRANCH  17  21
ENDBRANCH   1  17
TORSDOF 4
ENDMDL
MODEL 3
REMARK VINA RESULT:      -8.4      2.944     10.483
REMARK  Name = 
REMARK  7 active torsions:
REMARK  status: ('A' for Active; 'I' for Inactive)
REMARK    1  A    between atoms: C_1  and  C_2
REMARK    2  A    between atoms: C_4  and  C_5
REMARK    3  A    between atoms: C_6  and  C_7
REMARK    4  A    between atoms: C_10  and  C_11
REMARK    5  A    between atoms: C_11  and  C_12
REMARK    6  A    between atoms: C_14  and  C_15
REMARK    7  A    between atoms: C_30  and  C_31
REMARK                            x       y       z     vdW  Elec       q    Type
REMARK                         _______ _______ _______ _____ _____    ______ ____
ROOT
ATOM      1  C   UNL     1       0.235  10.000  18.810  0.00  0.00    +0.000 A 
ATOM      2  N   UNL     1       1.014   9.120  18.211  0.00  0.00    +0.000 NA
ATOM      3  C   UNL     1       1.708   8.379  19.157  0.00  0.00    +0.000 A 
ATOM      4  C   UNL     1       1.448   8.724  20.468  0.00  0.00    +0.000 A 
ATOM      5  S   UNL     1       0.326  10.015  20.528  0.00  0.00    +0.000 S 
ENDROOT
BRANCH   3   6
ATOM      6  C   UNL     1       2.567   7.318  18.705  0.00  0.00    +0.000 A 
ATOM      7  C   UNL     1       3.391   7.488  17.653  0.00  0.00    +0.000 A 
ATOM      8  C   UNL     1       4.251   6.420  17.173  0.00  0.00    +0.000 A 
ATOM      9  C   UNL     1       5.054   6.552  16.038  0.00  0.00    +0.000 A 
ATOM     10  C   UNL     1       5.868   5.489  15.629  0.00  0.00    +0.000 A 
ATOM     11  C   UNL     1       5.888   4.296  16.357  0.00  0.00    +0.000 A 
ATOM     12  C   UNL     1       5.087   4.159  17.487  0.00  0.00    +0.000 A 
ATOM     13  C   UNL     1       4.274   5.222  17.872  0.00  0.00    +0.000 A 
ATOM     14  O   UNL     1       3.453   5.030  18.992  0.00  0.00    +0.000 OA
ATOM     15  C   UNL     1       2.546   5.998  19.413  0.00  0.00    +0.000 A 
ATOM     16  O   UNL     1       1.783   5.750  20.342  0.00  0.00    +0.000 OA
ENDBRANCH   3   6
BRANCH   1  17
ATOM     17  C   UNL     1      -0.706  10.917  18.095  0.00  0.00    +0.000 C 
BRANCH  17  21
ATOM     18  C   UNL     1      -2.565  12.936  20.515  0.00  0.00    +0.000 A 
ATOM     19  C   UNL     1      -1.655  13.959  20.323  0.00  0.00    +0.000 A 
ATOM     20  S   UNL     1      -0.460  13.491  19.182  0.00  0.00    +0.000 S 
ATOM     21  C   UNL     1      -1.235  11.966  19.024  0.00  0.00    +0.000 A 
ATOM     22  N   UNL     1      -2.306  11.805  19.760  0.00  0.00    +0.000 NA
BRANCH  18  28
ATOM     23  C   UNL     1      -7.160  13.120  24.053  0.00  0.00    +0.000 C 
ATOM     24  C   UNL     1      -5.983  13.084  23.117  0.00  0.00    +0.000 A 
ATOM     25  C   UNL     1      -4.723  12.723  23.617  0.00  0.00    +0.000 A 
ATOM     26  C   UNL     1      -3.586  12.672  22.791  0.00  0.00    +0.000 A 
ATOM     27  C   UNL     1      -2.275  12.266  23.414  0.00  0.00    +0.000 C 
ATOM     28  C   UNL     1      -3.712  12.993  21.425  0.00  0.00    +0.000 A 
ATOM     29  C   UNL     1      -4.981  13.348  20.926  0.00  0.00    +0.000 A 
ATOM     30  C   UNL     1      -6.115  13.396  21.755  0.00  0.00    +0.000 A 
ATOM     31  C   UNL     1      -7.449  13.761  21.161  0.00  0.00    +0.000 C 
ENDBRANCH  18  28
ENDBRANCH  17  21
ENDBRANCH   1  17
TORSDOF 4
ENDMDL
MODEL 4
REMARK VINA RESULT:      -8.3      2.732     10.511
REMARK  Name = 
REMARK  7 active torsions:
REMARK  status: ('A' for Active; 'I' for Inactive)
REMARK    1  A    between atoms: C_1  and  C_2
REMARK    2  A    between atoms: C_4  and  C_5
REMARK    3  A    between atoms: C_6  and  C_7
REMARK    4  A    between atoms: C_10  and  C_11
REMARK    5  A    between atoms: C_11  and  C_12
REMARK    6  A    between atoms: C_14  and  C_15
REMARK    7  A    between atoms: C_30  and  C_31
REMARK                            x       y       z     vdW  Elec       q    Type
REMARK                         _______ _______ _______ _____ _____    ______ ____
ROOT
ATOM      1  C   UNL     1       0.837  10.162  19.189  0.00  0.00    +0.000 A 
ATOM      2  N   UNL     1       1.567   9.305  18.501  0.00  0.00    +0.000 NA
ATOM      3  C   UNL     1       1.911   8.225  19.301  0.00  0.00    +0.000 A 
ATOM      4  C   UNL     1       1.442   8.290  20.597  0.00  0.00    +0.000 A 
ATOM      5  S   UNL     1       0.564   9.741  20.835  0.00  0.00    +0.000 S 
ENDROOT
BRANCH   3   6
ATOM      6  C   UNL     1       2.656   7.144  18.714  0.00  0.00    +0.000 A 
ATOM      7  C   UNL     1       3.507   7.358  17.690  0.00  0.00    +0.000 A 
ATOM      8  C   UNL     1       4.252   6.273  17.074  0.00  0.00    +0.000 A 
ATOM      9  C   UNL     1       5.078   6.462  15.964  0.00  0.00    +0.000 A 
ATOM     10  C   UNL     1       5.777   5.379  15.420  0.00  0.00    +0.000 A 
ATOM     11  C   UNL     1       5.661   4.108  15.988  0.00  0.00    +0.000 A 
ATOM     12  C   UNL     1       4.837   3.914  17.092  0.00  0.00    +0.000 A 
ATOM     13  C   UNL     1       4.139   5.000  17.613  0.00  0.00    +0.000 A 
ATOM     14  O   UNL     1       3.289   4.757  18.702  0.00  0.00    +0.000 OA
ATOM     15  C   UNL     1       2.487   5.754  19.246  0.00  0.00    +0.000 A 
ATOM     16  O   UNL     1       1.691   5.473  20.138  0.00  0.00    +0.000 OA
ENDBRANCH   3   6
BRANCH   1  17
ATOM     17  C   UNL     1       0.235  11.406  18.618  0.00  0.00    +0.000 C 
BRANCH  17  21
ATOM     18  C   UNL     1      -3.414  11.618  18.800  0.00  0.00    +0.000 A 
ATOM     19  C   UNL     1      -3.494  10.613  17.852  0.00  0.00    +0.000 A 
ATOM     20  S   UNL     1      -1.923  10.109  17.380  0.00  0.00    +0.000 S 
ATOM     21  C   UNL     1      -1.247  11.257  18.465  0.00  0.00    +0.000 A 
ATOM     22  N   UNL     1      -2.118  11.970  19.136  0.00  0.00    +0.000 NA
BRANCH  18  28
ATOM     23  C   UNL     1      -7.909  14.306  21.296  0.00  0.00    +0.000 C 
ATOM     24  C   UNL     1      -6.734  13.603  20.672  0.00  0.00    +0.000 A 
ATOM     25  C   UNL     1      -6.743  13.348  19.293  0.00  0.00    +0.000 A 
ATOM     26  C   UNL     1      -5.675  12.695  18.654  0.00  0.00    +0.000 A 
ATOM     27  C   UNL     1      -5.767  12.472  17.166  0.00  0.00    +0.000 C 
ATOM     28  C   UNL     1      -4.563  12.283  19.417  0.00  0.00    +0.000 A 
ATOM     29  C   UNL     1      -4.557  12.548  20.801  0.00  0.00    +0.000 A 
ATOM     30  C   UNL     1      -5.626  13.202  21.435  0.00  0.00    +0.000 A 
ATOM     31  C   UNL     1      -5.553  13.477  22.913  0.00  0.00    +0.000 C 
ENDBRANCH  18  28
ENDBRANCH  17  21
ENDBRANCH   1  17
TORSDOF 4
ENDMDL
MODEL 5
REMARK VINA RESULT:      -8.2      1.336      1.763
REMARK  Name = 
REMARK  7 active torsions:
REMARK  status: ('A' for Active; 'I' for Inactive)
REMARK    1  A    between atoms: C_1  and  C_2
REMARK    2  A    between atoms: C_4  and  C_5
REMARK    3  A    between atoms: C_6  and  C_7
REMARK    4  A    between atoms: C_10  and  C_11
REMARK    5  A    between atoms: C_11  and  C_12
REMARK    6  A    between atoms: C_14  and  C_15
REMARK    7  A    between atoms: C_30  and  C_31
REMARK                            x       y       z     vdW  Elec       q    Type
REMARK                         _______ _______ _______ _____ _____    ______ ____
ROOT
ATOM      1  C   UNL     1       0.440  10.937  20.793  0.00  0.00    +0.000 A 
ATOM      2  N   UNL     1      -0.878  10.949  20.761  0.00  0.00    +0.000 NA
ATOM      3  C   UNL     1      -1.331  12.184  20.321  0.00  0.00    +0.000 A 
ATOM      4  C   UNL     1      -0.337  13.098  20.036  0.00  0.00    +0.000 A 
ATOM      5  S   UNL     1       1.202  12.411  20.340  0.00  0.00    +0.000 S 
ENDROOT
BRANCH   3   6
ATOM      6  C   UNL     1      -2.746  12.379  20.154  0.00  0.00    +0.000 A 
ATOM      7  C   UNL     1      -3.363  12.066  18.997  0.00  0.00    +0.000 A 
ATOM      8  C   UNL     1      -4.788  12.275  18.807  0.00  0.00    +0.000 A 
ATOM      9  C   UNL     1      -5.429  12.031  17.591  0.00  0.00    +0.000 A 
ATOM     10  C   UNL     1      -6.808  12.243  17.472  0.00  0.00    +0.000 A 
ATOM     11  C   UNL     1      -7.549  12.691  18.569  0.00  0.00    +0.000 A 
ATOM     12  C   UNL     1      -6.913  12.940  19.782  0.00  0.00    +0.000 A 
ATOM     13  C   UNL     1      -5.539  12.735  19.879  0.00  0.00    +0.000 A 
ATOM     14  O   UNL     1      -4.930  13.033  21.105  0.00  0.00    +0.000 OA
ATOM     15  C   UNL     1      -3.553  12.940  21.285  0.00  0.00    +0.000 A 
ATOM     16  O   UNL     1      -3.054  13.300  22.347  0.00  0.00    +0.000 OA
ENDBRANCH   3   6
BRANCH   1  17
ATOM     17  C   UNL     1       1.263   9.741  21.153  0.00  0.00    +0.000 C 
BRANCH  17  21
ATOM     18  C   UNL     1       2.167   7.173  18.708  0.00  0.00    +0.000 A 
ATOM     19  C   UNL     1       2.011   8.110  17.703  0.00  0.00    +0.000 A 
ATOM     20  S   UNL     1       1.547   9.625  18.365  0.00  0.00    +0.000 S 
ATOM     21  C   UNL     1       1.585   8.930  19.935  0.00  0.00    +0.000 A 
ATOM     22  N   UNL     1       1.918   7.664  19.977  0.00  0.00    +0.000 NA
BRANCH  18  28
ATOM     23  C   UNL     1       3.608   1.620  17.840  0.00  0.00    +0.000 C 
ATOM     24  C   UNL     1       3.213   3.052  18.077  0.00  0.00    +0.000 A 
ATOM     25  C   UNL     1       4.139   4.070  17.810  0.00  0.00    +0.000 A 
ATOM     26  C   UNL     1       3.828   5.426  18.012  0.00  0.00    +0.000 A 
ATOM     27  C   UNL     1       4.884   6.452  17.689  0.00  0.00    +0.000 C 
ATOM     28  C   UNL     1       2.552   5.775  18.498  0.00  0.00    +0.000 A 
ATOM     29  C   UNL     1       1.623   4.748  18.759  0.00  0.00    +0.000 A 
ATOM     30  C   UNL     1       1.938   3.395  18.554  0.00  0.00    +0.000 A 
ATOM     31  C   UNL     1       0.897   2.344  18.830  0.00  0.00    +0.000 C 
ENDBRANCH  18  28
ENDBRANCH  17  21
ENDBRANCH   1  17
TORSDOF 4
ENDMDL
MODEL 6
REMARK VINA RESULT:      -8.1      2.487     10.023
REMARK  Name = 
REMARK  7 active torsions:
REMARK  status: ('A' for Active; 'I' for Inactive)
REMARK    1  A    between atoms: C_1  and  C_2
REMARK    2  A    between atoms: C_4  and  C_5
REMARK    3  A    between atoms: C_6  and  C_7
REMARK    4  A    between atoms: C_10  and  C_11
REMARK    5  A    between atoms: C_11  and  C_12
REMARK    6  A    between atoms: C_14  and  C_15
REMARK    7  A    between atoms: C_30  and  C_31
REMARK                            x       y       z     vdW  Elec       q    Type
REMARK                         _______ _______ _______ _____ _____    ______ ____
ROOT
ATOM      1  C   UNL     1       1.322   9.585  20.072  0.00  0.00    +0.000 A 
ATOM      2  N   UNL     1       1.711   8.326  20.024  0.00  0.00    +0.000 NA
ATOM      3  C   UNL     1       2.004   7.969  18.716  0.00  0.00    +0.000 A 
ATOM      4  C   UNL     1       1.819   8.972  17.786  0.00  0.00    +0.000 A 
ATOM      5  S   UNL     1       1.247  10.392  18.554  0.00  0.00    +0.000 S 
ENDROOT
BRANCH   3   6
ATOM      6  C   UNL     1       2.510   6.647  18.460  0.00  0.00    +0.000 A 
ATOM      7  C   UNL     1       1.832   5.552  18.857  0.00  0.00    +0.000 A 
ATOM      8  C   UNL     1       2.338   4.211  18.622  0.00  0.00    +0.000 A 
ATOM      9  C   UNL     1       1.690   3.068  19.094  0.00  0.00    +0.000 A 
ATOM     10  C   UNL     1       2.223   1.801  18.829  0.00  0.00    +0.000 A 
ATOM     11  C   UNL     1       3.398   1.673  18.085  0.00  0.00    +0.000 A 
ATOM     12  C   UNL     1       4.050   2.809  17.616  0.00  0.00    +0.000 A 
ATOM     13  C   UNL     1       3.513   4.062  17.899  0.00  0.00    +0.000 A 
ATOM     14  O   UNL     1       4.219   5.184  17.442  0.00  0.00    +0.000 OA
ATOM     15  C   UNL     1       3.812   6.481  17.740  0.00  0.00    +0.000 A 
ATOM     16  O   UNL     1       4.512   7.429  17.397  0.00  0.00    +0.000 OA
ENDBRANCH   3   6
BRANCH   1  17
ATOM     17  C   UNL     1       0.996  10.319  21.334  0.00  0.00    +0.000 C 
BRANCH  17  21
ATOM     18  C   UNL     1      -1.908  12.435  20.638  0.00  0.00    +0.000 A 
ATOM     19  C   UNL     1      -1.079  13.542  20.678  0.00  0.00    +0.000 A 
ATOM     20  S   UNL     1       0.538  13.066  21.003  0.00  0.00    +0.000 S 
ATOM     21  C   UNL     1       0.025  11.428  21.069  0.00  0.00    +0.000 A 
ATOM     22  N   UNL     1      -1.254  11.236  20.864  0.00  0.00    +0.000 NA
BRANCH  18  28
ATOM     23  C   UNL     1      -7.615  12.521  19.598  0.00  0.00    +0.000 C 
ATOM     24  C   UNL     1      -6.131  12.499  19.842  0.00  0.00    +0.000 A 
ATOM     25  C   UNL     1      -5.648  12.726  21.139  0.00  0.00    +0.000 A 
ATOM     26  C   UNL     1      -4.272  12.718  21.428  0.00  0.00    +0.000 A 
ATOM     27  C   UNL     1      -3.845  12.964  22.853  0.00  0.00    +0.000 C 
ATOM     28  C   UNL     1      -3.351  12.476  20.390  0.00  0.00    +0.000 A 
ATOM     29  C   UNL     1      -3.842  12.241  19.090  0.00  0.00    +0.000 A 
ATOM     30  C   UNL     1      -5.218  12.248  18.806  0.00  0.00    +0.000 A 
ATOM     31  C   UNL     1      -5.684  11.969  17.403  0.00  0.00    +0.000 C 
ENDBRANCH  18  28
ENDBRANCH  17  21
ENDBRANCH   1  17
TORSDOF 4
ENDMDL
MODEL 7
REMARK VINA RESULT:      -8.0      3.836     10.739
REMARK  Name = 
REMARK  7 active torsions:
REMARK  status: ('A' for Active; 'I' for Inactive)
REMARK    1  A    between atoms: C_1  and  C_2
REMARK    2  A    between atoms: C_4  and  C_5
REMARK    3  A    between atoms: C_6  and  C_7
REMARK    4  A    between atoms: C_10  and  C_11
REMARK    5  A    between atoms: C_11  and  C_12
REMARK    6  A    between atoms: C_14  and  C_15
REMARK    7  A    between atoms: C_30  and  C_31
REMARK                            x       y       z     vdW  Elec       q    Type
REMARK                         _______ _______ _______ _____ _____    ______ ____
ROOT
ATOM      1  C   UNL     1       2.825   6.064  19.286  0.00  0.00    +0.000 A 
ATOM      2  N   UNL     1       3.793   6.227  18.405  0.00  0.00    +0.000 NA
ATOM      3  C   UNL     1       3.946   5.075  17.648  0.00  0.00    +0.000 A 
ATOM      4  C   UNL     1       3.091   4.044  17.983  0.00  0.00    +0.000 A 
ATOM      5  S   UNL     1       2.081   4.512  19.284  0.00  0.00    +0.000 S 
ENDROOT
BRANCH   3   6
ATOM      6  C   UNL     1       4.913   5.073  16.584  0.00  0.00    +0.000 A 
ATOM      7  C   UNL     1       4.687   4.402  15.437  0.00  0.00    +0.000 A 
ATOM      8  C   UNL     1       5.662   4.375  14.360  0.00  0.00    +0.000 A 
ATOM      9  C   UNL     1       5.480   3.623  13.198  0.00  0.00    +0.000 A 
ATOM     10  C   UNL     1       6.453   3.644  12.192  0.00  0.00    +0.000 A 
ATOM     11  C   UNL     1       7.603   4.423  12.339  0.00  0.00    +0.000 A 
ATOM     12  C   UNL     1       7.790   5.172  13.497  0.00  0.00    +0.000 A 
ATOM     13  C   UNL     1       6.819   5.129  14.494  0.00  0.00    +0.000 A 
ATOM     14  O   UNL     1       7.062   5.866  15.661  0.00  0.00    +0.000 OA
ATOM     15  C   UNL     1       6.195   5.829  16.749  0.00  0.00    +0.000 A 
ATOM     16  O   UNL     1       6.495   6.417  17.784  0.00  0.00    +0.000 OA
ENDBRANCH   3   6
BRANCH   1  17
ATOM     17  C   UNL     1       2.345   7.131  20.218  0.00  0.00    +0.000 C 
BRANCH  17  21
ATOM     18  C   UNL     1       0.266   9.869  18.964  0.00  0.00    +0.000 A 
ATOM     19  C   UNL     1       1.098   9.964  17.863  0.00  0.00    +0.000 A 
ATOM     20  S   UNL     1       2.356   8.800  17.963  0.00  0.00    +0.000 S 
ATOM     21  C   UNL     1       1.709   8.254  19.458  0.00  0.00    +0.000 A 
ATOM     22  N   UNL     1       0.634   8.884  19.863  0.00  0.00    +0.000 NA
BRANCH  18  28
ATOM     23  C   UNL     1      -4.432  13.143  19.900  0.00  0.00    +0.000 C 
ATOM     24  C   UNL     1      -3.224  12.287  19.635  0.00  0.00    +0.000 A 
ATOM     25  C   UNL     1      -2.105  12.403  20.473  0.00  0.00    +0.000 A 
ATOM     26  C   UNL     1      -0.948  11.631  20.275  0.00  0.00    +0.000 A 
ATOM     27  C   UNL     1       0.203  11.818  21.231  0.00  0.00    +0.000 C 
ATOM     28  C   UNL     1      -0.906  10.714  19.205  0.00  0.00    +0.000 A 
ATOM     29  C   UNL     1      -2.035  10.596  18.370  0.00  0.00    +0.000 A 
ATOM     30  C   UNL     1      -3.190  11.369  18.573  0.00  0.00    +0.000 A 
ATOM     31  C   UNL     1      -4.373  11.184  17.661  0.00  0.00    +0.000 C 
ENDBRANCH  18  28
ENDBRANCH  17  21
ENDBRANCH   1  17
TORSDOF 4
ENDMDL
MODEL 8
REMARK VINA RESULT:      -8.0      3.210      5.318
REMARK  Name = 
REMARK  7 active torsions:
REMARK  status: ('A' for Active; 'I' for Inactive)
REMARK    1  A    between atoms: C_1  and  C_2
REMARK    2  A    between atoms: C_4  and  C_5
REMARK    3  A    between atoms: C_6  and  C_7
REMARK    4  A    between atoms: C_10  and  C_11
REMARK    5  A    between atoms: C_11  and  C_12
REMARK    6  A    between atoms: C_14  and  C_15
REMARK    7  A    between atoms: C_30  and  C_31
REMARK                            x       y       z     vdW  Elec       q    Type
REMARK                         _______ _______ _______ _____ _____    ______ ____
ROOT
ATOM      1  C   UNL     1       2.067   6.445  20.187  0.00  0.00    +0.000 A 
ATOM      2  N   UNL     1       1.402   7.337  20.895  0.00  0.00    +0.000 NA
ATOM      3  C   UNL     1       1.285   8.520  20.180  0.00  0.00    +0.000 A 
ATOM      4  C   UNL     1       1.882   8.507  18.936  0.00  0.00    +0.000 A 
ATOM      5  S   UNL     1       2.623   6.989  18.653  0.00  0.00    +0.000 S 
ENDROOT
BRANCH   3   6
ATOM      6  C   UNL     1       0.533   9.602  20.757  0.00  0.00    +0.000 A 
ATOM      7  C   UNL     1      -0.384  10.276  20.035  0.00  0.00    +0.000 A 
ATOM      8  C   UNL     1      -1.138  11.383  20.598  0.00  0.00    +0.000 A 
ATOM      9  C   UNL     1      -2.035  12.143  19.845  0.00  0.00    +0.000 A 
ATOM     10  C   UNL     1      -2.739  13.194  20.445  0.00  0.00    +0.000 A 
ATOM     11  C   UNL     1      -2.555  13.481  21.800  0.00  0.00    +0.000 A 
ATOM     12  C   UNL     1      -1.659  12.729  22.554  0.00  0.00    +0.000 A 
ATOM     13  C   UNL     1      -0.958  11.696  21.938  0.00  0.00    +0.000 A 
ATOM     14  O   UNL     1      -0.037  10.986  22.721  0.00  0.00    +0.000 OA
ATOM     15  C   UNL     1       0.772   9.990  22.184  0.00  0.00    +0.000 A 
ATOM     16  O   UNL     1       1.628   9.460  22.886  0.00  0.00    +0.000 OA
ENDBRANCH   3   6
BRANCH   1  17
ATOM     17  C   UNL     1       2.315   5.037  20.625  0.00  0.00    +0.000 C 
BRANCH  17  21
ATOM     18  C   UNL     1       4.247   3.821  17.764  0.00  0.00    +0.000 A 
ATOM     19  C   UNL     1       3.748   2.552  17.998  0.00  0.00    +0.000 A 
ATOM     20  S   UNL     1       2.695   2.565  19.354  0.00  0.00    +0.000 S 
ATOM     21  C   UNL     1       2.976   4.250  19.535  0.00  0.00    +0.000 A 
ATOM     22  N   UNL     1       3.792   4.777  18.656  0.00  0.00    +0.000 NA
BRANCH  18  28
ATOM     23  C   UNL     1       7.864   5.233  13.453  0.00  0.00    +0.000 C 
ATOM     24  C   UNL     1       6.913   4.852  14.554  0.00  0.00    +0.000 A 
ATOM     25  C   UNL     1       7.231   5.185  15.879  0.00  0.00    +0.000 A 
ATOM     26  C   UNL     1       6.383   4.856  16.950  0.00  0.00    +0.000 A 
ATOM     27  C   UNL     1       6.803   5.261  18.339  0.00  0.00    +0.000 C 
ATOM     28  C   UNL     1       5.179   4.170  16.690  0.00  0.00    +0.000 A 
ATOM     29  C   UNL     1       4.860   3.844  15.356  0.00  0.00    +0.000 A 
ATOM     30  C   UNL     1       5.711   4.178  14.289  0.00  0.00    +0.000 A 
ATOM     31  C   UNL     1       5.307   3.822  12.884  0.00  0.00    +0.000 C 
ENDBRANCH  18  28
ENDBRANCH  17  21
ENDBRANCH   1  17
TORSDOF 4
ENDMDL
MODEL 9
REMARK VINA RESULT:      -8.0      4.677     10.835
REMARK  Name = 
REMARK  7 active torsions:
REMARK  status: ('A' for Active; 'I' for Inactive)
REMARK    1  A    between atoms: C_1  and  C_2
REMARK    2  A    between atoms: C_4  and  C_5
REMARK    3  A    between atoms: C_6  and  C_7
REMARK    4  A    between atoms: C_10  and  C_11
REMARK    5  A    between atoms: C_11  and  C_12
REMARK    6  A    between atoms: C_14  and  C_15
REMARK    7  A    between atoms: C_30  and  C_31
REMARK                            x       y       z     vdW  Elec       q    Type
REMARK                         _______ _______ _______ _____ _____    ______ ____
ROOT
ATOM      1  C   UNL     1       3.292   4.879  19.609  0.00  0.00    +0.000 A 
ATOM      2  N   UNL     1       4.076   5.303  18.637  0.00  0.00    +0.000 NA
ATOM      3  C   UNL     1       4.567   4.223  17.917  0.00  0.00    +0.000 A 
ATOM      4  C   UNL     1       4.152   2.988  18.371  0.00  0.00    +0.000 A 
ATOM      5  S   UNL     1       3.138   3.170  19.739  0.00  0.00    +0.000 S 
ENDROOT
BRANCH   3   6
ATOM      6  C   UNL     1       5.394   4.480  16.770  0.00  0.00    +0.000 A 
ATOM      7  C   UNL     1       5.103   3.947  15.567  0.00  0.00    +0.000 A 
ATOM      8  C   UNL     1       5.939   4.181  14.402  0.00  0.00    +0.000 A 
ATOM      9  C   UNL     1       5.698   3.576  13.167  0.00  0.00    +0.000 A 
ATOM     10  C   UNL     1       6.535   3.847  12.079  0.00  0.00    +0.000 A 
ATOM     11  C   UNL     1       7.608   4.730  12.219  0.00  0.00    +0.000 A 
ATOM     12  C   UNL     1       7.856   5.333  13.448  0.00  0.00    +0.000 A 
ATOM     13  C   UNL     1       7.020   5.042  14.524  0.00  0.00    +0.000 A 
ATOM     14  O   UNL     1       7.325   5.639  15.755  0.00  0.00    +0.000 OA
ATOM     15  C   UNL     1       6.603   5.354  16.910  0.00  0.00    +0.000 A 
ATOM     16  O   UNL     1       6.963   5.828  17.983  0.00  0.00    +0.000 OA
ENDBRANCH   3   6
BRANCH   1  17
ATOM     17  C   UNL     1       2.538   5.778  20.536  0.00  0.00    +0.000 C 
BRANCH  17  21
ATOM     18  C   UNL     1       1.406   9.130  19.599  0.00  0.00    +0.000 A 
ATOM     19  C   UNL     1       1.749   8.852  18.288  0.00  0.00    +0.000 A 
ATOM     20  S   UNL     1       2.391   7.264  18.162  0.00  0.00    +0.000 S 
ATOM     21  C   UNL     1       2.168   7.059  19.853  0.00  0.00    +0.000 A 
ATOM     22  N   UNL     1       1.654   8.089  20.477  0.00  0.00    +0.000 NA
BRANCH  18  28
ATOM     23  C   UNL     1      -0.842  14.114  21.539  0.00  0.00    +0.000 C 
ATOM     24  C   UNL     1      -0.276  12.809  21.051  0.00  0.00    +0.000 A 
ATOM     25  C   UNL     1       0.601  12.810  19.957  0.00  0.00    +0.000 A 
ATOM     26  C   UNL     1       1.162  11.622  19.456  0.00  0.00    +0.000 A 
ATOM     27  C   UNL     1       2.100  11.721  18.281  0.00  0.00    +0.000 C 
ATOM     28  C   UNL     1       0.835  10.395  20.066  0.00  0.00    +0.000 A 
ATOM     29  C   UNL     1      -0.041  10.400  21.170  0.00  0.00    +0.000 A 
ATOM     30  C   UNL     1      -0.598  11.590  21.669  0.00  0.00    +0.000 A 
ATOM     31  C   UNL     1      -1.510  11.535  22.864  0.00  0.00    +0.000 C 
ENDBRANCH  18  28
ENDBRANCH  17  21
ENDBRANCH   1  17
TORSDOF 4
ENDMDL
