MODEL 1
REMARK VINA RESULT:      -7.7      0.000      0.000
REMARK  Name = 
REMARK  10 active torsions:
REMARK  status: ('A' for Active; 'I' for Inactive)
REMARK    1  A    between atoms: C_1  and  O_2
REMARK    2  A    between atoms: O_2  and  C_3
REMARK    3  A    between atoms: C_3  and  C_5
REMARK    4  A    between atoms: C_5  and  C_6
REMARK    5  A    between atoms: C_5  and  N_13
REMARK    6  A    between atoms: C_6  and  C_7
REMARK    7  A    between atoms: C_7  and  C_8
REMARK    8  A    between atoms: C_8  and  N_9
REMARK    9  A    between atoms: N_13  and  S_14
REMARK   10  A    between atoms: S_14  and  C_17
REMARK                            x       y       z     vdW  Elec       q    Type
REMARK                         _______ _______ _______ _____ _____    ______ ____
ROOT
ATOM      1  C   UNL     1       6.485   6.314  17.805  0.00  0.00    +0.000 C 
ENDROOT
BRANCH   1   2
ATOM      2  C   UNL     1       7.344   5.146  17.286  0.00  0.00    +0.000 C 
ATOM      3  O   UNL     1       7.781   4.233  17.978  0.00  0.00    +0.000 OA
BRANCH   2   5
ATOM      4  C   UNL     1       6.764   4.251  15.190  0.00  0.00    +0.000 C 
ATOM      5  O   UNL     1       7.518   5.224  15.923  0.00  0.00    +0.000 OA
ENDBRANCH   2   5
ENDBRANCH   1   2
BRANCH   1   6
ATOM      6  N   UNL     1       5.083   6.190  17.324  0.00  0.00    +0.000 NA
ATOM      7  H   UNL     1       5.027   5.878  16.350  0.00  0.00    +0.000 HD
BRANCH   6   8
ATOM      8  S   UNL     1       3.856   5.534  18.267  0.00  0.00    +0.000 S 
ATOM      9  O   UNL     1       3.079   4.585  17.509  0.00  0.00    +0.000 OA
ATOM     10  O   UNL     1       4.471   5.167  19.525  0.00  0.00    +0.000 OA
BRANCH   8  11
ATOM     11  C   UNL     1       2.805   6.925  18.608  0.00  0.00    +0.000 A 
ATOM     12  C   UNL     1       2.695   7.950  17.666  0.00  0.00    +0.000 A 
ATOM     13  C   UNL     1       1.972   9.102  17.979  0.00  0.00    +0.000 A 
ATOM     14  C   UNL     1       1.363   9.244  19.237  0.00  0.00    +0.000 A 
ATOM     15  C   UNL     1       0.639  10.398  19.571  0.00  0.00    +0.000 A 
ATOM     16  C   UNL     1       0.052  10.533  20.831  0.00  0.00    +0.000 A 
ATOM     17  C   UNL     1       0.191   9.520  21.775  0.00  0.00    +0.000 A 
ATOM     18  C   UNL     1       0.910   8.366  21.461  0.00  0.00    +0.000 A 
ATOM     19  C   UNL     1       1.494   8.210  20.196  0.00  0.00    +0.000 A 
ATOM     20  C   UNL     1       2.222   7.056  19.870  0.00  0.00    +0.000 A 
ENDBRANCH   8  11
ENDBRANCH   6   8
ENDBRANCH   1   6
BRANCH   1  21
ATOM     21  C   UNL     1       7.143   7.636  17.380  0.00  0.00    +0.000 C 
BRANCH  21  22
ATOM     22  C   UNL     1       8.295   8.095  18.283  0.00  0.00    +0.000 C 
BRANCH  22  23
ATOM     23  C   UNL     1       8.492   9.604  18.161  0.00  0.00    +0.000 C 
BRANCH  23  24
ATOM     24  N   UNL     1       9.212  10.083  19.337  0.00  0.00    +0.000 NA
ATOM     25  C   UNL     1       9.855  11.187  19.231  0.00  0.00    +0.000 C 
ATOM     26  N   UNL     1       9.956  12.013  18.167  0.00  0.00    +0.000 N 
ATOM     27  N   UNL     1      10.587  11.623  20.276  0.00  0.00    +0.000 N 
ATOM     28  H   UNL     1       9.295  11.862  17.417  0.00  0.00    +0.000 HD
ATOM     29  H   UNL     1      10.142  12.987  18.350  0.00  0.00    +0.000 HD
ATOM     30  H   UNL     1      10.388  11.081  21.109  0.00  0.00    +0.000 HD
ATOM     31  H   UNL     1      10.602  12.616  20.446  0.00  0.00    +0.000 HD
ENDBRANCH  23  24
ENDBRANCH  22  23
ENDBRANCH  21  22
ENDBRANCH   1  21
TORSDOF 9
ENDMDL
MODEL 2
REMARK VINA RESULT:      -7.7      3.114      4.078
REMARK  Name = 
REMARK  10 active torsions:
REMARK  status: ('A' for Active; 'I' for Inactive)
REMARK    1  A    between atoms: C_1  and  O_2
REMARK    2  A    between atoms: O_2  and  C_3
REMARK    3  A    between atoms: C_3  and  C_5
REMARK    4  A    between atoms: C_5  and  C_6
REMARK    5  A    between atoms: C_5  and  N_13
REMARK    6  A    between atoms: C_6  and  C_7
REMARK    7  A    between atoms: C_7  and  C_8
REMARK    8  A    between atoms: C_8  and  N_9
REMARK    9  A    between atoms: N_13  and  S_14
REMARK   10  A    between atoms: S_14  and  C_17
REMARK                            x       y       z     vdW  Elec       q    Type
REMARK                         _______ _______ _______ _____ _____    ______ ____
ROOT
ATOM      1  C   UNL     1       3.883   3.751  17.809  0.00  0.00    +0.000 C 
ENDROOT
BRANCH   1   2
ATOM      2  C   UNL     1       3.124   2.412  17.776  0.00  0.00    +0.000 C 
ATOM      3  O   UNL     1       3.639   1.309  17.925  0.00  0.00    +0.000 OA
BRANCH   2   5
ATOM      4  C   UNL     1       0.991   2.232  18.749  0.00  0.00    +0.000 C 
ATOM      5  O   UNL     1       1.773   2.610  17.610  0.00  0.00    +0.000 OA
ENDBRANCH   2   5
ENDBRANCH   1   2
BRANCH   1   6
ATOM      6  N   UNL     1       2.970   4.864  18.185  0.00  0.00    +0.000 NA
ATOM      7  H   UNL     1       2.004   4.697  17.890  0.00  0.00    +0.000 HD
BRANCH   6   8
ATOM      8  S   UNL     1       3.049   5.638  19.674  0.00  0.00    +0.000 S 
ATOM      9  O   UNL     1       2.274   4.929  20.662  0.00  0.00    +0.000 OA
ATOM     10  O   UNL     1       4.448   5.942  19.894  0.00  0.00    +0.000 OA
BRANCH   8  11
ATOM     11  C   UNL     1       2.237   7.190  19.381  0.00  0.00    +0.000 A 
ATOM     12  C   UNL     1       2.365   7.808  18.135  0.00  0.00    +0.000 A 
ATOM     13  C   UNL     1       1.836   9.084  17.938  0.00  0.00    +0.000 A 
ATOM     14  C   UNL     1       1.186   9.757  18.985  0.00  0.00    +0.000 A 
ATOM     15  C   UNL     1       0.655  11.044  18.806  0.00  0.00    +0.000 A 
ATOM     16  C   UNL     1       0.025  11.708  19.860  0.00  0.00    +0.000 A 
ATOM     17  C   UNL     1      -0.073  11.099  21.108  0.00  0.00    +0.000 A 
ATOM     18  C   UNL     1       0.452   9.821  21.304  0.00  0.00    +0.000 A 
ATOM     19  C   UNL     1       1.076   9.135  20.252  0.00  0.00    +0.000 A 
ATOM     20  C   UNL     1       1.610   7.852  20.439  0.00  0.00    +0.000 A 
ENDBRANCH   8  11
ENDBRANCH   6   8
ENDBRANCH   1   6
BRANCH   1  21
ATOM     21  C   UNL     1       4.555   3.971  16.445  0.00  0.00    +0.000 C 
BRANCH  21  22
ATOM     22  C   UNL     1       4.940   5.427  16.151  0.00  0.00    +0.000 C 
BRANCH  22  23
ATOM     23  C   UNL     1       6.455   5.600  16.240  0.00  0.00    +0.000 C 
BRANCH  23  24
ATOM     24  N   UNL     1       6.801   6.042  17.587  0.00  0.00    +0.000 NA
ATOM     25  C   UNL     1       7.616   5.316  18.259  0.00  0.00    +0.000 C 
ATOM     26  N   UNL     1       8.239   4.176  17.893  0.00  0.00    +0.000 N 
ATOM     27  N   UNL     1       7.903   5.657  19.532  0.00  0.00    +0.000 N 
ATOM     28  H   UNL     1       8.230   3.956  16.906  0.00  0.00    +0.000 HD
ATOM     29  H   UNL     1       9.113   3.957  18.346  0.00  0.00    +0.000 HD
ATOM     30  H   UNL     1       7.552   6.584  19.747  0.00  0.00    +0.000 HD
ATOM     31  H   UNL     1       8.849   5.513  19.846  0.00  0.00    +0.000 HD
ENDBRANCH  23  24
ENDBRANCH  22  23
ENDBRANCH  21  22
ENDBRANCH   1  21
TORSDOF 9
ENDMDL
MODEL 3
REMARK VINA RESULT:      -7.6      3.642      5.738
REMARK  Name = 
REMARK  10 active torsions:
REMARK  status: ('A' for Active; 'I' for Inactive)
REMARK    1  A    between atoms: C_1  and  O_2
REMARK    2  A    between atoms: O_2  and  C_3
REMARK    3  A    between atoms: C_3  and  C_5
REMARK    4  A    between atoms: C_5  and  C_6
REMARK    5  A    between atoms: C_5  and  N_13
REMARK    6  A    between atoms: C_6  and  C_7
REMARK    7  A    between atoms: C_7  and  C_8
REMARK    8  A    between atoms: C_8  and  N_9
REMARK    9  A    between atoms: N_13  and  S_14
REMARK   10  A    between atoms: S_14  and  C_17
REMARK                            x       y       z     vdW  Elec       q    Type
REMARK                         _______ _______ _______ _____ _____    ______ ____
ROOT
ATOM      1  C   UNL     1       5.480   4.995  16.928  0.00  0.00    +0.000 C 
ENDROOT
BRANCH   1   2
ATOM      2  C   UNL     1       6.939   5.439  17.144  0.00  0.00    +0.000 C 
ATOM      3  O   UNL     1       7.509   6.315  16.503  0.00  0.00    +0.000 OA
BRANCH   2   5
ATOM      4  C   UNL     1       7.883   5.606  19.291  0.00  0.00    +0.000 C 
ATOM      5  O   UNL     1       7.514   4.762  18.194  0.00  0.00    +0.000 OA
ENDBRANCH   2   5
ENDBRANCH   1   2
BRANCH   1   6
ATOM      6  N   UNL     1       5.149   3.836  17.800  0.00  0.00    +0.000 NA
ATOM      7  H   UNL     1       5.827   3.705  18.556  0.00  0.00    +0.000 HD
BRANCH   6   8
ATOM      8  S   UNL     1       3.580   3.493  18.294  0.00  0.00    +0.000 S 
ATOM      9  O   UNL     1       2.747   3.164  17.165  0.00  0.00    +0.000 OA
ATOM     10  O   UNL     1       3.703   2.596  19.424  0.00  0.00    +0.000 OA
BRANCH   8  11
ATOM     11  C   UNL     1       3.001   5.042  18.943  0.00  0.00    +0.000 A 
ATOM     12  C   UNL     1       2.517   5.101  20.252  0.00  0.00    +0.000 A 
ATOM     13  C   UNL     1       1.945   6.283  20.725  0.00  0.00    +0.000 A 
ATOM     14  C   UNL     1       1.843   7.410  19.893  0.00  0.00    +0.000 A 
ATOM     15  C   UNL     1       1.264   8.604  20.351  0.00  0.00    +0.000 A 
ATOM     16  C   UNL     1       1.153   9.712  19.509  0.00  0.00    +0.000 A 
ATOM     17  C   UNL     1       1.611   9.637  18.197  0.00  0.00    +0.000 A 
ATOM     18  C   UNL     1       2.187   8.456  17.724  0.00  0.00    +0.000 A 
ATOM     19  C   UNL     1       2.316   7.339  18.561  0.00  0.00    +0.000 A 
ATOM     20  C   UNL     1       2.890   6.147  18.096  0.00  0.00    +0.000 A 
ENDBRANCH   8  11
ENDBRANCH   6   8
ENDBRANCH   1   6
BRANCH   1  21
ATOM     21  C   UNL     1       5.274   4.692  15.436  0.00  0.00    +0.000 C 
BRANCH  21  22
ATOM     22  C   UNL     1       6.456   3.984  14.759  0.00  0.00    +0.000 C 
BRANCH  22  23
ATOM     23  C   UNL     1       6.452   4.268  13.259  0.00  0.00    +0.000 C 
BRANCH  23  24
ATOM     24  N   UNL     1       6.650   3.013  12.541  0.00  0.00    +0.000 NA
ATOM     25  C   UNL     1       5.687   2.591  11.807  0.00  0.00    +0.000 C 
ATOM     26  N   UNL     1       4.485   3.159  11.573  0.00  0.00    +0.000 N 
ATOM     27  N   UNL     1       5.809   1.401  11.184  0.00  0.00    +0.000 N 
ATOM     28  H   UNL     1       4.386   4.129  11.842  0.00  0.00    +0.000 HD
ATOM     29  H   UNL     1       4.025   2.933  10.705  0.00  0.00    +0.000 HD
ATOM     30  H   UNL     1       6.761   1.056  11.244  0.00  0.00    +0.000 HD
ATOM     31  H   UNL     1       5.420   1.323  10.259  0.00  0.00    +0.000 HD
ENDBRANCH  23  24
ENDBRANCH  22  23
ENDBRANCH  21  22
ENDBRANCH   1  21
TORSDOF 9
ENDMDL
MODEL 4
REMARK VINA RESULT:      -7.6      4.010      8.200
REMARK  Name = 
REMARK  10 active torsions:
REMARK  status: ('A' for Active; 'I' for Inactive)
REMARK    1  A    between atoms: C_1  and  O_2
REMARK    2  A    between atoms: O_2  and  C_3
REMARK    3  A    between atoms: C_3  and  C_5
REMARK    4  A    between atoms: C_5  and  C_6
REMARK    5  A    between atoms: C_5  and  N_13
REMARK    6  A    between atoms: C_6  and  C_7
REMARK    7  A    between atoms: C_7  and  C_8
REMARK    8  A    between atoms: C_8  and  N_9
REMARK    9  A    between atoms: N_13  and  S_14
REMARK   10  A    between atoms: S_14  and  C_17
REMARK                            x       y       z     vdW  Elec       q    Type
REMARK                         _______ _______ _______ _____ _____    ______ ____
ROOT
ATOM      1  C   UNL     1       3.228   6.271  19.233  0.00  0.00    +0.000 C 
ENDROOT
BRANCH   1   2
ATOM      2  C   UNL     1       2.998   7.336  18.144  0.00  0.00    +0.000 C 
ATOM      3  O   UNL     1       3.722   7.511  17.169  0.00  0.00    +0.000 OA
BRANCH   2   5
ATOM      4  C   UNL     1       1.916   9.417  17.986  0.00  0.00    +0.000 C 
ATOM      5  O   UNL     1       1.839   8.040  18.373  0.00  0.00    +0.000 OA
ENDBRANCH   2   5
ENDBRANCH   1   2
BRANCH   1   6
ATOM      6  N   UNL     1       3.779   5.023  18.641  0.00  0.00    +0.000 NA
ATOM      7  H   UNL     1       3.478   4.880  17.672  0.00  0.00    +0.000 HD
BRANCH   6   8
ATOM      8  S   UNL     1       5.366   4.528  18.886  0.00  0.00    +0.000 S 
ATOM      9  O   UNL     1       6.086   5.491  19.681  0.00  0.00    +0.000 OA
ATOM     10  O   UNL     1       5.295   3.135  19.277  0.00  0.00    +0.000 OA
BRANCH   8  11
ATOM     11  C   UNL     1       6.068   4.557  17.255  0.00  0.00    +0.000 A 
ATOM     12  C   UNL     1       7.183   5.359  17.001  0.00  0.00    +0.000 A 
ATOM     13  C   UNL     1       7.663   5.485  15.697  0.00  0.00    +0.000 A 
ATOM     14  C   UNL     1       7.027   4.820  14.635  0.00  0.00    +0.000 A 
ATOM     15  C   UNL     1       7.492   4.941  13.317  0.00  0.00    +0.000 A 
ATOM     16  C   UNL     1       6.841   4.288  12.268  0.00  0.00    +0.000 A 
ATOM     17  C   UNL     1       5.713   3.514  12.524  0.00  0.00    +0.000 A 
ATOM     18  C   UNL     1       5.235   3.385  13.829  0.00  0.00    +0.000 A 
ATOM     19  C   UNL     1       5.885   4.024  14.894  0.00  0.00    +0.000 A 
ATOM     20  C   UNL     1       5.413   3.904  16.209  0.00  0.00    +0.000 A 
ENDBRANCH   8  11
ENDBRANCH   6   8
ENDBRANCH   1   6
BRANCH   1  21
ATOM     21  C   UNL     1       1.905   6.038  19.980  0.00  0.00    +0.000 C 
BRANCH  21  22
ATOM     22  C   UNL     1       1.940   4.888  20.995  0.00  0.00    +0.000 C 
BRANCH  22  23
ATOM     23  C   UNL     1       1.060   3.735  20.515  0.00  0.00    +0.000 C 
BRANCH  23  24
ATOM     24  N   UNL     1       1.917   2.627  20.104  0.00  0.00    +0.000 NA
ATOM     25  C   UNL     1       2.068   2.429  18.847  0.00  0.00    +0.000 C 
ATOM     26  N   UNL     1       1.554   3.123  17.809  0.00  0.00    +0.000 N 
ATOM     27  N   UNL     1       2.797   1.372  18.431  0.00  0.00    +0.000 N 
ATOM     28  H   UNL     1       1.160   4.029  18.026  0.00  0.00    +0.000 HD
ATOM     29  H   UNL     1       2.062   3.103  16.938  0.00  0.00    +0.000 HD
ATOM     30  H   UNL     1       3.296   0.950  19.206  0.00  0.00    +0.000 HD
ATOM     31  H   UNL     1       3.374   1.502  17.616  0.00  0.00    +0.000 HD
ENDBRANCH  23  24
ENDBRANCH  22  23
ENDBRANCH  21  22
ENDBRANCH   1  21
TORSDOF 9
ENDMDL
MODEL 5
REMARK VINA RESULT:      -7.6      0.850      1.624
REMARK  Name = 
REMARK  10 active torsions:
REMARK  status: ('A' for Active; 'I' for Inactive)
REMARK    1  A    between atoms: C_1  and  O_2
REMARK    2  A    between atoms: O_2  and  C_3
REMARK    3  A    between atoms: C_3  and  C_5
REMARK    4  A    between atoms: C_5  and  C_6
REMARK    5  A    between atoms: C_5  and  N_13
REMARK    6  A    between atoms: C_6  and  C_7
REMARK    7  A    between atoms: C_7  and  C_8
REMARK    8  A    between atoms: C_8  and  N_9
REMARK    9  A    between atoms: N_13  and  S_14
REMARK   10  A    between atoms: S_14  and  C_17
REMARK                            x       y       z     vdW  Elec       q    Type
REMARK                         _______ _______ _______ _____ _____    ______ ____
ROOT
ATOM      1  C   UNL     1       6.293   5.749  17.502  0.00  0.00    +0.000 C 
ENDROOT
BRANCH   1   2
ATOM      2  C   UNL     1       7.025   4.585  16.808  0.00  0.00    +0.000 C 
ATOM      3  O   UNL     1       8.155   4.199  17.088  0.00  0.00    +0.000 OA
BRANCH   2   5
ATOM      4  C   UNL     1       6.650   4.233  14.513  0.00  0.00    +0.000 C 
ATOM      5  O   UNL     1       6.226   3.990  15.860  0.00  0.00    +0.000 OA
ENDBRANCH   2   5
ENDBRANCH   1   2
BRANCH   1   6
ATOM      6  N   UNL     1       4.842   5.726  17.175  0.00  0.00    +0.000 NA
ATOM      7  H   UNL     1       4.664   5.541  16.183  0.00  0.00    +0.000 HD
BRANCH   6   8
ATOM      8  S   UNL     1       3.701   4.993  18.167  0.00  0.00    +0.000 S 
ATOM      9  O   UNL     1       2.718   4.288  17.382  0.00  0.00    +0.000 OA
ATOM     10  O   UNL     1       4.448   4.324  19.211  0.00  0.00    +0.000 OA
BRANCH   8  11
ATOM     11  C   UNL     1       2.877   6.365  18.937  0.00  0.00    +0.000 A 
ATOM     12  C   UNL     1       2.273   6.192  20.185  0.00  0.00    +0.000 A 
ATOM     13  C   UNL     1       1.518   7.227  20.738  0.00  0.00    +0.000 A 
ATOM     14  C   UNL     1       1.350   8.437  20.045  0.00  0.00    +0.000 A 
ATOM     15  C   UNL     1       0.588   9.485  20.584  0.00  0.00    +0.000 A 
ATOM     16  C   UNL     1       0.416  10.678  19.878  0.00  0.00    +0.000 A 
ATOM     17  C   UNL     1       0.995  10.833  18.622  0.00  0.00    +0.000 A 
ATOM     18  C   UNL     1       1.755   9.800  18.070  0.00  0.00    +0.000 A 
ATOM     19  C   UNL     1       1.947   8.601  18.772  0.00  0.00    +0.000 A 
ATOM     20  C   UNL     1       2.705   7.555  18.226  0.00  0.00    +0.000 A 
ENDBRANCH   8  11
ENDBRANCH   6   8
ENDBRANCH   1   6
BRANCH   1  21
ATOM     21  C   UNL     1       6.971   7.067  17.099  0.00  0.00    +0.000 C 
BRANCH  21  22
ATOM     22  C   UNL     1       7.941   7.631  18.146  0.00  0.00    +0.000 C 
BRANCH  22  23
ATOM     23  C   UNL     1       8.152   9.127  17.918  0.00  0.00    +0.000 C 
BRANCH  23  24
ATOM     24  N   UNL     1       9.048   9.640  18.949  0.00  0.00    +0.000 NA
ATOM     25  C   UNL     1       9.360  10.882  18.900  0.00  0.00    +0.000 C 
ATOM     26  N   UNL     1       8.958  11.825  18.022  0.00  0.00    +0.000 N 
ATOM     27  N   UNL     1      10.241  11.374  19.796  0.00  0.00    +0.000 N 
ATOM     28  H   UNL     1       8.162  11.591  17.444  0.00  0.00    +0.000 HD
ATOM     29  H   UNL     1       8.959  12.784  18.336  0.00  0.00    +0.000 HD
ATOM     30  H   UNL     1      10.421  10.701  20.534  0.00  0.00    +0.000 HD
ATOM     31  H   UNL     1      10.074  12.304  20.143  0.00  0.00    +0.000 HD
ENDBRANCH  23  24
ENDBRANCH  22  23
ENDBRANCH  21  22
ENDBRANCH   1  21
TORSDOF 9
ENDMDL
MODEL 6
REMARK VINA RESULT:      -7.6      0.828      1.078
REMARK  Name = 
REMARK  10 active torsions:
REMARK  status: ('A' for Active; 'I' for Inactive)
REMARK    1  A    between atoms: C_1  and  O_2
REMARK    2  A    between atoms: O_2  and  C_3
REMARK    3  A    between atoms: C_3  and  C_5
REMARK    4  A    between atoms: C_5  and  C_6
REMARK    5  A    between atoms: C_5  and  N_13
REMARK    6  A    between atoms: C_6  and  C_7
REMARK    7  A    between atoms: C_7  and  C_8
REMARK    8  A    between atoms: C_8  and  N_9
REMARK    9  A    between atoms: N_13  and  S_14
REMARK   10  A    between atoms: S_14  and  C_17
REMARK                            x       y       z     vdW  Elec       q    Type
REMARK                         _______ _______ _______ _____ _____    ______ ____
ROOT
ATOM      1  C   UNL     1       7.075   6.071  18.197  0.00  0.00    +0.000 C 
ENDROOT
BRANCH   1   2
ATOM      2  C   UNL     1       7.573   5.180  17.044  0.00  0.00    +0.000 C 
ATOM      3  O   UNL     1       8.186   4.127  17.184  0.00  0.00    +0.000 OA
BRANCH   2   5
ATOM      4  C   UNL     1       6.904   4.685  14.845  0.00  0.00    +0.000 C 
ATOM      5  O   UNL     1       7.196   5.689  15.823  0.00  0.00    +0.000 OA
ENDBRANCH   2   5
ENDBRANCH   1   2
BRANCH   1   6
ATOM      6  N   UNL     1       5.714   6.596  17.905  0.00  0.00    +0.000 NA
ATOM      7  H   UNL     1       5.667   7.096  17.013  0.00  0.00    +0.000 HD
BRANCH   6   8
ATOM      8  S   UNL     1       4.318   5.709  18.205  0.00  0.00    +0.000 S 
ATOM      9  O   UNL     1       3.909   4.985  17.027  0.00  0.00    +0.000 OA
ATOM     10  O   UNL     1       4.537   5.032  19.465  0.00  0.00    +0.000 OA
BRANCH   8  11
ATOM     11  C   UNL     1       3.091   6.956  18.510  0.00  0.00    +0.000 A 
ATOM     12  C   UNL     1       2.886   7.965  17.566  0.00  0.00    +0.000 A 
ATOM     13  C   UNL     1       2.015   9.016  17.854  0.00  0.00    +0.000 A 
ATOM     14  C   UNL     1       1.350   9.074  19.091  0.00  0.00    +0.000 A 
ATOM     15  C   UNL     1       0.476  10.128  19.400  0.00  0.00    +0.000 A 
ATOM     16  C   UNL     1      -0.165  10.182  20.639  0.00  0.00    +0.000 A 
ATOM     17  C   UNL     1       0.066   9.190  21.587  0.00  0.00    +0.000 A 
ATOM     18  C   UNL     1       0.934   8.136  21.297  0.00  0.00    +0.000 A 
ATOM     19  C   UNL     1       1.576   8.060  20.052  0.00  0.00    +0.000 A 
ATOM     20  C   UNL     1       2.453   7.008  19.752  0.00  0.00    +0.000 A 
ENDBRANCH   8  11
ENDBRANCH   6   8
ENDBRANCH   1   6
BRANCH   1  21
ATOM     21  C   UNL     1       8.103   7.189  18.435  0.00  0.00    +0.000 C 
BRANCH  21  22
ATOM     22  C   UNL     1       7.760   8.524  17.759  0.00  0.00    +0.000 C 
BRANCH  22  23
ATOM     23  C   UNL     1       8.543   9.662  18.412  0.00  0.00    +0.000 C 
BRANCH  23  24
ATOM     24  N   UNL     1       8.368  10.872  17.616  0.00  0.00    +0.000 NA
ATOM     25  C   UNL     1       9.009  11.920  17.981  0.00  0.00    +0.000 C 
ATOM     26  N   UNL     1       9.864  12.077  19.014  0.00  0.00    +0.000 N 
ATOM     27  N   UNL     1       8.817  13.074  17.309  0.00  0.00    +0.000 N 
ATOM     28  H   UNL     1      10.207  11.229  19.445  0.00  0.00    +0.000 HD
ATOM     29  H   UNL     1      10.563  12.799  18.933  0.00  0.00    +0.000 HD
ATOM     30  H   UNL     1       8.294  12.914  16.455  0.00  0.00    +0.000 HD
ATOM     31  H   UNL     1       9.619  13.667  17.174  0.00  0.00    +0.000 HD
ENDBRANCH  23  24
ENDBRANCH  22  23
ENDBRANCH  21  22
ENDBRANCH   1  21
TORSDOF 9
ENDMDL
MODEL 7
REMARK VINA RESULT:      -7.6      3.872      4.827
REMARK  Name = 
REMARK  10 active torsions:
REMARK  status: ('A' for Active; 'I' for Inactive)
REMARK    1  A    between atoms: C_1  and  O_2
REMARK    2  A    between atoms: O_2  and  C_3
REMARK    3  A    between atoms: C_3  and  C_5
REMARK    4  A    between atoms: C_5  and  C_6
REMARK    5  A    between atoms: C_5  and  N_13
REMARK    6  A    between atoms: C_6  and  C_7
REMARK    7  A    between atoms: C_7  and  C_8
REMARK    8  A    between atoms: C_8  and  N_9
REMARK    9  A    between atoms: N_13  and  S_14
REMARK   10  A    between atoms: S_14  and  C_17
REMARK                            x       y       z     vdW  Elec       q    Type
REMARK                         _______ _______ _______ _____ _____    ______ ____
ROOT
ATOM      1  C   UNL     1       3.752   3.576  17.906  0.00  0.00    +0.000 C 
ENDROOT
BRANCH   1   2
ATOM      2  C   UNL     1       3.078   2.192  17.950  0.00  0.00    +0.000 C 
ATOM      3  O   UNL     1       3.643   1.144  18.243  0.00  0.00    +0.000 OA
BRANCH   2   5
ATOM      4  C   UNL     1       0.895   2.183  18.825  0.00  0.00    +0.000 C 
ATOM      5  O   UNL     1       1.734   2.284  17.669  0.00  0.00    +0.000 OA
ENDBRANCH   2   5
ENDBRANCH   1   2
BRANCH   1   6
ATOM      6  N   UNL     1       2.817   4.631  18.380  0.00  0.00    +0.000 NA
ATOM      7  H   UNL     1       1.836   4.342  18.327  0.00  0.00    +0.000 HD
BRANCH   6   8
ATOM      8  S   UNL     1       3.124   5.569  19.741  0.00  0.00    +0.000 S 
ATOM      9  O   UNL     1       2.488   5.005  20.905  0.00  0.00    +0.000 OA
ATOM     10  O   UNL     1       4.544   5.849  19.722  0.00  0.00    +0.000 OA
BRANCH   8  11
ATOM     11  C   UNL     1       2.303   7.103  19.382  0.00  0.00    +0.000 A 
ATOM     12  C   UNL     1       2.459   7.688  18.123  0.00  0.00    +0.000 A 
ATOM     13  C   UNL     1       1.922   8.952  17.876  0.00  0.00    +0.000 A 
ATOM     14  C   UNL     1       1.236   9.646  18.887  0.00  0.00    +0.000 A 
ATOM     15  C   UNL     1       0.696  10.921  18.657  0.00  0.00    +0.000 A 
ATOM     16  C   UNL     1       0.030  11.607  19.675  0.00  0.00    +0.000 A 
ATOM     17  C   UNL     1      -0.095  11.031  20.936  0.00  0.00    +0.000 A 
ATOM     18  C   UNL     1       0.438   9.765  21.182  0.00  0.00    +0.000 A 
ATOM     19  C   UNL     1       1.098   9.058  20.167  0.00  0.00    +0.000 A 
ATOM     20  C   UNL     1       1.640   7.787  20.404  0.00  0.00    +0.000 A 
ENDBRANCH   8  11
ENDBRANCH   6   8
ENDBRANCH   1   6
BRANCH   1  21
ATOM     21  C   UNL     1       4.259   3.832  16.478  0.00  0.00    +0.000 C 
BRANCH  21  22
ATOM     22  C   UNL     1       5.251   4.996  16.353  0.00  0.00    +0.000 C 
BRANCH  22  23
ATOM     23  C   UNL     1       6.664   4.463  16.128  0.00  0.00    +0.000 C 
BRANCH  23  24
ATOM     24  N   UNL     1       7.307   5.255  15.084  0.00  0.00    +0.000 NA
ATOM     25  C   UNL     1       7.232   4.822  13.880  0.00  0.00    +0.000 C 
ATOM     26  N   UNL     1       6.614   3.718  13.410  0.00  0.00    +0.000 N 
ATOM     27  N   UNL     1       7.874   5.493  12.901  0.00  0.00    +0.000 N 
ATOM     28  H   UNL     1       5.959   3.270  14.037  0.00  0.00    +0.000 HD
ATOM     29  H   UNL     1       6.309   3.729  12.449  0.00  0.00    +0.000 HD
ATOM     30  H   UNL     1       8.207   6.391  13.234  0.00  0.00    +0.000 HD
ATOM     31  H   UNL     1       7.416   5.551  12.006  0.00  0.00    +0.000 HD
ENDBRANCH  23  24
ENDBRANCH  22  23
ENDBRANCH  21  22
ENDBRANCH   1  21
TORSDOF 9
ENDMDL
MODEL 8
REMARK VINA RESULT:      -7.5      3.496      5.264
REMARK  Name = 
REMARK  10 active torsions:
REMARK  status: ('A' for Active; 'I' for Inactive)
REMARK    1  A    between atoms: C_1  and  O_2
REMARK    2  A    between atoms: O_2  and  C_3
REMARK    3  A    between atoms: C_3  and  C_5
REMARK    4  A    between atoms: C_5  and  C_6
REMARK    5  A    between atoms: C_5  and  N_13
REMARK    6  A    between atoms: C_6  and  C_7
REMARK    7  A    between atoms: C_7  and  C_8
REMARK    8  A    between atoms: C_8  and  N_9
REMARK    9  A    between atoms: N_13  and  S_14
REMARK   10  A    between atoms: S_14  and  C_17
REMARK                            x       y       z     vdW  Elec       q    Type
REMARK                         _______ _______ _______ _____ _____    ______ ____
ROOT
ATOM      1  C   UNL     1       5.854   4.576  17.816  0.00  0.00    +0.000 C 
ENDROOT
BRANCH   1   2
ATOM      2  C   UNL     1       7.104   5.326  18.311  0.00  0.00    +0.000 C 
ATOM      3  O   UNL     1       8.108   4.793  18.770  0.00  0.00    +0.000 OA
BRANCH   2   5
ATOM      4  C   UNL     1       8.180   7.416  18.379  0.00  0.00    +0.000 C 
ATOM      5  O   UNL     1       6.976   6.683  18.124  0.00  0.00    +0.000 OA
ENDBRANCH   2   5
ENDBRANCH   1   2
BRANCH   1   6
ATOM      6  N   UNL     1       5.359   3.635  18.858  0.00  0.00    +0.000 NA
ATOM      7  H   UNL     1       5.879   3.711  19.736  0.00  0.00    +0.000 HD
BRANCH   6   8
ATOM      8  S   UNL     1       3.723   3.350  19.116  0.00  0.00    +0.000 S 
ATOM      9  O   UNL     1       3.088   2.879  17.911  0.00  0.00    +0.000 OA
ATOM     10  O   UNL     1       3.638   2.600  20.352  0.00  0.00    +0.000 OA
BRANCH   8  11
ATOM     11  C   UNL     1       3.069   4.965  19.462  0.00  0.00    +0.000 A 
ATOM     12  C   UNL     1       2.354   5.178  20.643  0.00  0.00    +0.000 A 
ATOM     13  C   UNL     1       1.731   6.407  20.862  0.00  0.00    +0.000 A 
ATOM     14  C   UNL     1       1.807   7.428  19.900  0.00  0.00    +0.000 A 
ATOM     15  C   UNL     1       1.180   8.668  20.101  0.00  0.00    +0.000 A 
ATOM     16  C   UNL     1       1.250   9.668  19.129  0.00  0.00    +0.000 A 
ATOM     17  C   UNL     1       1.939   9.438  17.942  0.00  0.00    +0.000 A 
ATOM     18  C   UNL     1       2.566   8.210  17.724  0.00  0.00    +0.000 A 
ATOM     19  C   UNL     1       2.516   7.200  18.696  0.00  0.00    +0.000 A 
ATOM     20  C   UNL     1       3.139   5.962  18.487  0.00  0.00    +0.000 A 
ENDBRANCH   8  11
ENDBRANCH   6   8
ENDBRANCH   1   6
BRANCH   1  21
ATOM     21  C   UNL     1       6.195   3.870  16.495  0.00  0.00    +0.000 C 
BRANCH  21  22
ATOM     22  C   UNL     1       6.981   4.730  15.496  0.00  0.00    +0.000 C 
BRANCH  22  23
ATOM     23  C   UNL     1       6.125   5.025  14.266  0.00  0.00    +0.000 C 
BRANCH  23  24
ATOM     24  N   UNL     1       5.749   3.762  13.639  0.00  0.00    +0.000 NA
ATOM     25  C   UNL     1       6.311   3.460  12.527  0.00  0.00    +0.000 C 
ATOM     26  N   UNL     1       7.244   4.147  11.833  0.00  0.00    +0.000 N 
ATOM     27  N   UNL     1       5.936   2.334  11.886  0.00  0.00    +0.000 N 
ATOM     28  H   UNL     1       7.713   4.893  12.328  0.00  0.00    +0.000 HD
ATOM     29  H   UNL     1       7.854   3.620  11.227  0.00  0.00    +0.000 HD
ATOM     30  H   UNL     1       5.351   1.757  12.479  0.00  0.00    +0.000 HD
ATOM     31  H   UNL     1       6.656   1.811  11.414  0.00  0.00    +0.000 HD
ENDBRANCH  23  24
ENDBRANCH  22  23
ENDBRANCH  21  22
ENDBRANCH   1  21
TORSDOF 9
ENDMDL
MODEL 9
REMARK VINA RESULT:      -7.4      3.425      5.027
REMARK  Name = 
REMARK  10 active torsions:
REMARK  status: ('A' for Active; 'I' for Inactive)
REMARK    1  A    between atoms: C_1  and  O_2
REMARK    2  A    between atoms: O_2  and  C_3
REMARK    3  A    between atoms: C_3  and  C_5
REMARK    4  A    between atoms: C_5  and  C_6
REMARK    5  A    between atoms: C_5  and  N_13
REMARK    6  A    between atoms: C_6  and  C_7
REMARK    7  A    between atoms: C_7  and  C_8
REMARK    8  A    between atoms: C_8  and  N_9
REMARK    9  A    between atoms: N_13  and  S_14
REMARK   10  A    between atoms: S_14  and  C_17
REMARK                            x       y       z     vdW  Elec       q    Type
REMARK                         _______ _______ _______ _____ _____    ______ ____
ROOT
ATOM      1  C   UNL     1       6.145   4.638  17.884  0.00  0.00    +0.000 C 
ENDROOT
BRANCH   1   2
ATOM      2  C   UNL     1       7.621   4.916  18.223  0.00  0.00    +0.000 C 
ATOM      3  O   UNL     1       8.553   4.155  17.982  0.00  0.00    +0.000 OA
BRANCH   2   5
ATOM      4  C   UNL     1       7.715   7.234  17.842  0.00  0.00    +0.000 C 
ATOM      5  O   UNL     1       7.776   6.160  18.788  0.00  0.00    +0.000 OA
ENDBRANCH   2   5
ENDBRANCH   1   2
BRANCH   1   6
ATOM      6  N   UNL     1       5.521   3.774  18.923  0.00  0.00    +0.000 NA
ATOM      7  H   UNL     1       5.909   3.939  19.857  0.00  0.00    +0.000 HD
BRANCH   6   8
ATOM      8  S   UNL     1       3.871   3.465  18.972  0.00  0.00    +0.000 S 
ATOM      9  O   UNL     1       3.453   2.726  17.806  0.00  0.00    +0.000 OA
ATOM     10  O   UNL     1       3.593   2.979  20.307  0.00  0.00    +0.000 OA
BRANCH   8  11
ATOM     11  C   UNL     1       3.140   5.080  18.862  0.00  0.00    +0.000 A 
ATOM     12  C   UNL     1       3.386   5.871  17.737  0.00  0.00    +0.000 A 
ATOM     13  C   UNL     1       2.921   7.186  17.700  0.00  0.00    +0.000 A 
ATOM     14  C   UNL     1       2.217   7.725  18.789  0.00  0.00    +0.000 A 
ATOM     15  C   UNL     1       1.748   9.047  18.771  0.00  0.00    +0.000 A 
ATOM     16  C   UNL     1       1.063   9.576  19.867  0.00  0.00    +0.000 A 
ATOM     17  C   UNL     1       0.848   8.793  20.997  0.00  0.00    +0.000 A 
ATOM     18  C   UNL     1       1.309   7.476  21.033  0.00  0.00    +0.000 A 
ATOM     19  C   UNL     1       1.987   6.927  19.935  0.00  0.00    +0.000 A 
ATOM     20  C   UNL     1       2.458   5.606  19.961  0.00  0.00    +0.000 A 
ENDBRANCH   8  11
ENDBRANCH   6   8
ENDBRANCH   1   6
BRANCH   1  21
ATOM     21  C   UNL     1       6.070   4.021  16.479  0.00  0.00    +0.000 C 
BRANCH  21  22
ATOM     22  C   UNL     1       6.827   4.804  15.398  0.00  0.00    +0.000 C 
BRANCH  22  23
ATOM     23  C   UNL     1       5.929   5.027  14.182  0.00  0.00    +0.000 C 
BRANCH  23  24
ATOM     24  N   UNL     1       5.638   3.735  13.568  0.00  0.00    +0.000 NA
ATOM     25  C   UNL     1       6.265   3.435  12.491  0.00  0.00    +0.000 C 
ATOM     26  N   UNL     1       7.200   4.147  11.825  0.00  0.00    +0.000 N 
ATOM     27  N   UNL     1       5.969   2.280  11.859  0.00  0.00    +0.000 N 
ATOM     28  H   UNL     1       7.612   4.923  12.324  0.00  0.00    +0.000 HD
ATOM     29  H   UNL     1       7.860   3.634  11.261  0.00  0.00    +0.000 HD
ATOM     30  H   UNL     1       5.382   1.691  12.438  0.00  0.00    +0.000 HD
ATOM     31  H   UNL     1       6.732   1.779  11.434  0.00  0.00    +0.000 HD
ENDBRANCH  23  24
ENDBRANCH  22  23
ENDBRANCH  21  22
ENDBRANCH   1  21
TORSDOF 9
ENDMDL
