MODEL 1
REMARK VINA RESULT:      -7.6      0.000      0.000
REMARK  Name = 
REMARK  3 active torsions:
REMARK  status: ('A' for Active; 'I' for Inactive)
REMARK    1  A    between atoms: N_8  and  C_9
REMARK    2  A    between atoms: C_9  and  C_10
REMARK    3  A    between atoms: N_23  and  C_24
REMARK                            x       y       z     vdW  Elec       q    Type
REMARK                         _______ _______ _______ _____ _____    ______ ____
ROOT
ATOM      1  O   UNL     1       1.869   6.920  21.163  0.00  0.00    +0.000 OA
ATOM      2  C   UNL     1       1.545   7.954  20.577  0.00  0.00    +0.000 A 
ATOM      3  C   UNL     1       0.814   9.021  21.210  0.00  0.00    +0.000 A 
ATOM      4  S   UNL     1       0.345   8.972  22.843  0.00  0.00    +0.000 S 
ATOM      5  C   UNL     1      -0.442  10.489  22.704  0.00  0.00    +0.000 A 
ATOM      6  C   UNL     1      -0.336  11.018  21.435  0.00  0.00    +0.000 A 
ATOM      7  C   UNL     1       0.424  10.173  20.584  0.00  0.00    +0.000 A 
ATOM      8  N   UNL     1       0.745  10.368  19.243  0.00  0.00    +0.000 N 
ATOM      9  C   UNL     1       1.472   9.373  18.537  0.00  0.00    +0.000 A 
ATOM     10  O   UNL     1       1.695   9.493  17.328  0.00  0.00    +0.000 OA
ATOM     11  N   UNL     1       1.864   8.218  19.240  0.00  0.00    +0.000 N 
ENDROOT
BRANCH  11  12
ATOM     12  C   UNL     1       2.539   7.168  18.537  0.00  0.00    +0.000 A 
ATOM     13  C   UNL     1       1.934   5.909  18.376  0.00  0.00    +0.000 A 
ATOM     14  C   UNL     1       2.623   4.867  17.741  0.00  0.00    +0.000 A 
ATOM     15  C   UNL     1       3.926   5.067  17.279  0.00  0.00    +0.000 A 
ATOM     16  C   UNL     1       4.536   6.311  17.450  0.00  0.00    +0.000 A 
ATOM     17  C   UNL     1       3.840   7.357  18.066  0.00  0.00    +0.000 A 
ENDBRANCH  11  12
BRANCH   8  18
ATOM     18  C   UNL     1       0.219  11.538  18.495  0.00  0.00    +0.000 C 
BRANCH  18  19
ATOM     19  C   UNL     1      -1.311  11.487  18.286  0.00  0.00    +0.000 A 
ATOM     20  C   UNL     1      -1.668  10.630  17.327  0.00  0.00    +0.000 A 
ATOM     21  C   UNL     1      -3.077  10.414  17.058  0.00  0.00    +0.000 A 
ATOM     22  O   UNL     1      -3.380   9.660  16.135  0.00  0.00    +0.000 OA
ATOM     23  N   UNL     1      -3.965  11.092  17.869  0.00  0.00    +0.000 N 
ATOM     24  C   UNL     1      -5.300  10.920  17.626  0.00  0.00    +0.000 A 
ATOM     25  C   UNL     1      -6.199  11.742  18.188  0.00  0.00    +0.000 A 
ATOM     26  C   UNL     1      -6.111  12.386  19.578  0.00  0.00    +0.000 A 
ATOM     27  C   UNL     1      -4.788  12.590  19.720  0.00  0.00    +0.000 A 
ATOM     28  C   UNL     1      -3.537  11.952  18.881  0.00  0.00    +0.000 A 
ATOM     29  N   UNL     1      -2.250  12.166  19.101  0.00  0.00    +0.000 NA
ENDBRANCH  18  19
ENDBRANCH   8  18
TORSDOF 3
ENDMDL
MODEL 2
REMARK VINA RESULT:      -7.5      2.827      8.089
REMARK  Name = 
REMARK  3 active torsions:
REMARK  status: ('A' for Active; 'I' for Inactive)
REMARK    1  A    between atoms: N_8  and  C_9
REMARK    2  A    between atoms: C_9  and  C_10
REMARK    3  A    between atoms: N_23  and  C_24
REMARK                            x       y       z     vdW  Elec       q    Type
REMARK                         _______ _______ _______ _____ _____    ______ ____
ROOT
ATOM      1  O   UNL     1      -5.322  12.229  19.838  0.00  0.00    +0.000 OA
ATOM      2  C   UNL     1      -4.116  12.253  19.590  0.00  0.00    +0.000 A 
ATOM      3  C   UNL     1      -3.544  11.663  18.408  0.00  0.00    +0.000 A 
ATOM      4  S   UNL     1      -4.482  10.891  17.219  0.00  0.00    +0.000 S 
ATOM      5  C   UNL     1      -3.080  10.491  16.316  0.00  0.00    +0.000 A 
ATOM      6  C   UNL     1      -1.925  10.950  16.914  0.00  0.00    +0.000 A 
ATOM      7  C   UNL     1      -2.208  11.658  18.112  0.00  0.00    +0.000 A 
ATOM      8  N   UNL     1      -1.309  12.264  18.985  0.00  0.00    +0.000 N 
ATOM      9  C   UNL     1      -1.782  12.880  20.174  0.00  0.00    +0.000 A 
ATOM     10  O   UNL     1      -0.993  13.350  20.999  0.00  0.00    +0.000 OA
ATOM     11  N   UNL     1      -3.170  12.871  20.415  0.00  0.00    +0.000 N 
ENDROOT
BRANCH  11  12
ATOM     12  C   UNL     1      -3.670  13.425  21.638  0.00  0.00    +0.000 A 
ATOM     13  C   UNL     1      -4.014  14.786  21.720  0.00  0.00    +0.000 A 
ATOM     14  C   UNL     1      -4.445  15.336  22.935  0.00  0.00    +0.000 A 
ATOM     15  C   UNL     1      -4.516  14.540  24.080  0.00  0.00    +0.000 A 
ATOM     16  C   UNL     1      -4.161  13.191  24.006  0.00  0.00    +0.000 A 
ATOM     17  C   UNL     1      -3.750  12.638  22.788  0.00  0.00    +0.000 A 
ENDBRANCH  11  12
BRANCH   8  18
ATOM     18  C   UNL     1       0.156  12.156  18.769  0.00  0.00    +0.000 C 
BRANCH  18  19
ATOM     19  C   UNL     1       0.726  10.772  19.154  0.00  0.00    +0.000 A 
ATOM     20  C   UNL     1       0.383  10.404  20.390  0.00  0.00    +0.000 A 
ATOM     21  C   UNL     1       0.781   9.098  20.878  0.00  0.00    +0.000 A 
ATOM     22  O   UNL     1       0.499   8.802  22.037  0.00  0.00    +0.000 OA
ATOM     23  N   UNL     1       1.461   8.294  19.984  0.00  0.00    +0.000 N 
ATOM     24  C   UNL     1       1.864   7.063  20.422  0.00  0.00    +0.000 A 
ATOM     25  C   UNL     1       2.748   6.349  19.710  0.00  0.00    +0.000 A 
ATOM     26  C   UNL     1       2.873   6.305  18.181  0.00  0.00    +0.000 A 
ATOM     27  C   UNL     1       2.533   7.557  17.826  0.00  0.00    +0.000 A 
ATOM     28  C   UNL     1       1.766   8.716  18.689  0.00  0.00    +0.000 A 
ATOM     29  N   UNL     1       1.424   9.921  18.262  0.00  0.00    +0.000 NA
ENDBRANCH  18  19
ENDBRANCH   8  18
TORSDOF 3
ENDMDL
MODEL 3
REMARK VINA RESULT:      -7.4      2.822      8.217
REMARK  Name = 
REMARK  3 active torsions:
REMARK  status: ('A' for Active; 'I' for Inactive)
REMARK    1  A    between atoms: N_8  and  C_9
REMARK    2  A    between atoms: C_9  and  C_10
REMARK    3  A    between atoms: N_23  and  C_24
REMARK                            x       y       z     vdW  Elec       q    Type
REMARK                         _______ _______ _______ _____ _____    ______ ____
ROOT
ATOM      1  O   UNL     1      -5.613  12.244  19.605  0.00  0.00    +0.000 OA
ATOM      2  C   UNL     1      -4.390  12.335  19.486  0.00  0.00    +0.000 A 
ATOM      3  C   UNL     1      -3.663  11.771  18.379  0.00  0.00    +0.000 A 
ATOM      4  S   UNL     1      -4.424  10.938  17.108  0.00  0.00    +0.000 S 
ATOM      5  C   UNL     1      -2.914  10.613  16.363  0.00  0.00    +0.000 A 
ATOM      6  C   UNL     1      -1.857  11.141  17.074  0.00  0.00    +0.000 A 
ATOM      7  C   UNL     1      -2.305  11.840  18.226  0.00  0.00    +0.000 A 
ATOM      8  N   UNL     1      -1.540  12.502  19.182  0.00  0.00    +0.000 N 
ATOM      9  C   UNL     1      -2.170  13.098  20.306  0.00  0.00    +0.000 A 
ATOM     10  O   UNL     1      -1.501  13.618  21.203  0.00  0.00    +0.000 OA
ATOM     11  N   UNL     1      -3.573  13.012  20.398  0.00  0.00    +0.000 N 
ENDROOT
BRANCH  11  12
ATOM     12  C   UNL     1      -4.230  13.545  21.554  0.00  0.00    +0.000 A 
ATOM     13  C   UNL     1      -4.440  12.746  22.692  0.00  0.00    +0.000 A 
ATOM     14  C   UNL     1      -5.136  13.254  23.797  0.00  0.00    +0.000 A 
ATOM     15  C   UNL     1      -5.647  14.554  23.767  0.00  0.00    +0.000 A 
ATOM     16  C   UNL     1      -5.453  15.346  22.634  0.00  0.00    +0.000 A 
ATOM     17  C   UNL     1      -4.740  14.845  21.539  0.00  0.00    +0.000 A 
ENDBRANCH  11  12
BRANCH   8  18
ATOM     18  C   UNL     1      -0.056  12.476  19.123  0.00  0.00    +0.000 C 
BRANCH  18  19
ATOM     19  C   UNL     1       0.540  11.084  19.430  0.00  0.00    +0.000 A 
ATOM     20  C   UNL     1       0.282  10.682  20.676  0.00  0.00    +0.000 A 
ATOM     21  C   UNL     1       0.713   9.363  21.100  0.00  0.00    +0.000 A 
ATOM     22  O   UNL     1       0.510   9.036  22.268  0.00  0.00    +0.000 OA
ATOM     23  N   UNL     1       1.330   8.585  20.140  0.00  0.00    +0.000 N 
ATOM     24  C   UNL     1       1.762   7.344  20.517  0.00  0.00    +0.000 A 
ATOM     25  C   UNL     1       2.596   6.652  19.726  0.00  0.00    +0.000 A 
ATOM     26  C   UNL     1       2.616   6.649  18.191  0.00  0.00    +0.000 A 
ATOM     27  C   UNL     1       2.252   7.910  17.895  0.00  0.00    +0.000 A 
ATOM     28  C   UNL     1       1.546   9.044  18.840  0.00  0.00    +0.000 A 
ATOM     29  N   UNL     1       1.175  10.259  18.470  0.00  0.00    +0.000 NA
ENDBRANCH  18  19
ENDBRANCH   8  18
TORSDOF 3
ENDMDL
MODEL 4
REMARK VINA RESULT:      -7.4      2.967      4.868
REMARK  Name = 
REMARK  3 active torsions:
REMARK  status: ('A' for Active; 'I' for Inactive)
REMARK    1  A    between atoms: N_8  and  C_9
REMARK    2  A    between atoms: C_9  and  C_10
REMARK    3  A    between atoms: N_23  and  C_24
REMARK                            x       y       z     vdW  Elec       q    Type
REMARK                         _______ _______ _______ _____ _____    ______ ____
ROOT
ATOM      1  O   UNL     1       1.866   7.207  21.236  0.00  0.00    +0.000 OA
ATOM      2  C   UNL     1       1.461   8.189  20.614  0.00  0.00    +0.000 A 
ATOM      3  C   UNL     1       0.691   9.243  21.222  0.00  0.00    +0.000 A 
ATOM      4  S   UNL     1       0.283   9.250  22.872  0.00  0.00    +0.000 S 
ATOM      5  C   UNL     1      -0.597  10.710  22.689  0.00  0.00    +0.000 A 
ATOM      6  C   UNL     1      -0.567  11.179  21.393  0.00  0.00    +0.000 A 
ATOM      7  C   UNL     1       0.211  10.338  20.555  0.00  0.00    +0.000 A 
ATOM      8  N   UNL     1       0.473  10.482  19.196  0.00  0.00    +0.000 N 
ATOM      9  C   UNL     1       1.231   9.496  18.511  0.00  0.00    +0.000 A 
ATOM     10  O   UNL     1       1.404   9.567  17.291  0.00  0.00    +0.000 OA
ATOM     11  N   UNL     1       1.716   8.403  19.255  0.00  0.00    +0.000 N 
ENDROOT
BRANCH  11  12
ATOM     12  C   UNL     1       2.427   7.359  18.578  0.00  0.00    +0.000 A 
ATOM     13  C   UNL     1       1.875   6.071  18.467  0.00  0.00    +0.000 A 
ATOM     14  C   UNL     1       2.600   5.038  17.857  0.00  0.00    +0.000 A 
ATOM     15  C   UNL     1       3.888   5.277  17.373  0.00  0.00    +0.000 A 
ATOM     16  C   UNL     1       4.446   6.551  17.494  0.00  0.00    +0.000 A 
ATOM     17  C   UNL     1       3.714   7.587  18.084  0.00  0.00    +0.000 A 
ENDBRANCH  11  12
BRANCH   8  18
ATOM     18  C   UNL     1      -0.148  11.581  18.412  0.00  0.00    +0.000 C 
BRANCH  18  19
ATOM     19  C   UNL     1       0.687  12.881  18.422  0.00  0.00    +0.000 A 
ATOM     20  C   UNL     1      -0.026  13.944  18.799  0.00  0.00    +0.000 A 
ATOM     21  C   UNL     1       0.631  15.230  18.929  0.00  0.00    +0.000 A 
ATOM     22  O   UNL     1      -0.057  16.204  19.227  0.00  0.00    +0.000 OA
ATOM     23  N   UNL     1       1.992  15.246  18.692  0.00  0.00    +0.000 N 
ATOM     24  C   UNL     1       2.635  16.449  18.790  0.00  0.00    +0.000 A 
ATOM     25  C   UNL     1       3.883  16.587  18.318  0.00  0.00    +0.000 A 
ATOM     26  C   UNL     1       4.990  15.524  18.326  0.00  0.00    +0.000 A 
ATOM     27  C   UNL     1       4.298  14.383  18.157  0.00  0.00    +0.000 A 
ATOM     28  C   UNL     1       2.696  14.097  18.332  0.00  0.00    +0.000 A 
ATOM     29  N   UNL     1       2.083  12.933  18.188  0.00  0.00    +0.000 NA
ENDBRANCH  18  19
ENDBRANCH   8  18
TORSDOF 3
ENDMDL
MODEL 5
REMARK VINA RESULT:      -7.3      2.773      7.885
REMARK  Name = 
REMARK  3 active torsions:
REMARK  status: ('A' for Active; 'I' for Inactive)
REMARK    1  A    between atoms: N_8  and  C_9
REMARK    2  A    between atoms: C_9  and  C_10
REMARK    3  A    between atoms: N_23  and  C_24
REMARK                            x       y       z     vdW  Elec       q    Type
REMARK                         _______ _______ _______ _____ _____    ______ ____
ROOT
ATOM      1  O   UNL     1       0.041  14.387  21.501  0.00  0.00    +0.000 OA
ATOM      2  C   UNL     1       0.186  13.440  20.725  0.00  0.00    +0.000 A 
ATOM      3  C   UNL     1       1.300  13.328  19.820  0.00  0.00    +0.000 A 
ATOM      4  S   UNL     1       2.545  14.482  19.748  0.00  0.00    +0.000 S 
ATOM      5  C   UNL     1       3.315  13.629  18.475  0.00  0.00    +0.000 A 
ATOM      6  C   UNL     1       2.632  12.483  18.126  0.00  0.00    +0.000 A 
ATOM      7  C   UNL     1       1.480  12.300  18.936  0.00  0.00    +0.000 A 
ATOM      8  N   UNL     1       0.548  11.268  18.883  0.00  0.00    +0.000 N 
ATOM      9  C   UNL     1      -0.581  11.289  19.744  0.00  0.00    +0.000 A 
ATOM     10  O   UNL     1      -1.459  10.425  19.656  0.00  0.00    +0.000 OA
ATOM     11  N   UNL     1      -0.702  12.362  20.648  0.00  0.00    +0.000 N 
ENDROOT
BRANCH  11  12
ATOM     12  C   UNL     1      -1.865  12.444  21.482  0.00  0.00    +0.000 A 
ATOM     13  C   UNL     1      -3.020  13.109  21.036  0.00  0.00    +0.000 A 
ATOM     14  C   UNL     1      -4.133  13.240  21.878  0.00  0.00    +0.000 A 
ATOM     15  C   UNL     1      -4.094  12.726  23.176  0.00  0.00    +0.000 A 
ATOM     16  C   UNL     1      -2.943  12.078  23.628  0.00  0.00    +0.000 A 
ATOM     17  C   UNL     1      -1.840  11.930  22.780  0.00  0.00    +0.000 A 
ENDBRANCH  11  12
BRANCH   8  18
ATOM     18  C   UNL     1       0.636  10.212  17.842  0.00  0.00    +0.000 C 
BRANCH  18  19
ATOM     19  C   UNL     1       1.589   9.058  18.227  0.00  0.00    +0.000 A 
ATOM     20  C   UNL     1       1.253   8.481  19.382  0.00  0.00    +0.000 A 
ATOM     21  C   UNL     1       2.009   7.334  19.848  0.00  0.00    +0.000 A 
ATOM     22  O   UNL     1       1.714   6.852  20.940  0.00  0.00    +0.000 OA
ATOM     23  N   UNL     1       3.014   6.885  19.014  0.00  0.00    +0.000 N 
ATOM     24  C   UNL     1       3.754   5.816  19.436  0.00  0.00    +0.000 A 
ATOM     25  C   UNL     1       4.900   5.501  18.815  0.00  0.00    +0.000 A 
ATOM     26  C   UNL     1       5.203   5.648  17.317  0.00  0.00    +0.000 A 
ATOM     27  C   UNL     1       4.505   6.750  16.987  0.00  0.00    +0.000 A 
ATOM     28  C   UNL     1       3.302   7.507  17.799  0.00  0.00    +0.000 A 
ATOM     29  N   UNL     1       2.627   8.571  17.395  0.00  0.00    +0.000 NA
ENDBRANCH  18  19
ENDBRANCH   8  18
TORSDOF 3
ENDMDL
MODEL 6
REMARK VINA RESULT:      -7.3      3.061      8.541
REMARK  Name = 
REMARK  3 active torsions:
REMARK  status: ('A' for Active; 'I' for Inactive)
REMARK    1  A    between atoms: N_8  and  C_9
REMARK    2  A    between atoms: C_9  and  C_10
REMARK    3  A    between atoms: N_23  and  C_24
REMARK                            x       y       z     vdW  Elec       q    Type
REMARK                         _______ _______ _______ _____ _____    ______ ____
ROOT
ATOM      1  O   UNL     1      -6.401  12.141  19.604  0.00  0.00    +0.000 OA
ATOM      2  C   UNL     1      -5.189  12.347  19.682  0.00  0.00    +0.000 A 
ATOM      3  C   UNL     1      -4.251  11.911  18.680  0.00  0.00    +0.000 A 
ATOM      4  S   UNL     1      -4.725  11.087  17.272  0.00  0.00    +0.000 S 
ATOM      5  C   UNL     1      -3.095  10.939  16.762  0.00  0.00    +0.000 A 
ATOM      6  C   UNL     1      -2.215  11.518  17.651  0.00  0.00    +0.000 A 
ATOM      7  C   UNL     1      -2.898  12.109  18.746  0.00  0.00    +0.000 A 
ATOM      8  N   UNL     1      -2.355  12.782  19.837  0.00  0.00    +0.000 N 
ATOM      9  C   UNL     1      -3.204  13.256  20.872  0.00  0.00    +0.000 A 
ATOM     10  O   UNL     1      -2.733  13.782  21.884  0.00  0.00    +0.000 OA
ATOM     11  N   UNL     1      -4.590  13.041  20.738  0.00  0.00    +0.000 N 
ENDROOT
BRANCH  11  12
ATOM     12  C   UNL     1      -5.464  13.449  21.798  0.00  0.00    +0.000 A 
ATOM     13  C   UNL     1      -6.036  14.733  21.801  0.00  0.00    +0.000 A 
ATOM     14  C   UNL     1      -6.842  15.148  22.869  0.00  0.00    +0.000 A 
ATOM     15  C   UNL     1      -7.067  14.294  23.951  0.00  0.00    +0.000 A 
ATOM     16  C   UNL     1      -6.489  13.023  23.959  0.00  0.00    +0.000 A 
ATOM     17  C   UNL     1      -5.701  12.602  22.883  0.00  0.00    +0.000 A 
ENDBRANCH  11  12
BRANCH   8  18
ATOM     18  C   UNL     1      -0.884  12.891  20.011  0.00  0.00    +0.000 C 
BRANCH  18  19
ATOM     19  C   UNL     1      -0.188  11.520  20.166  0.00  0.00    +0.000 A 
ATOM     20  C   UNL     1      -0.494  10.918  21.317  0.00  0.00    +0.000 A 
ATOM     21  C   UNL     1       0.024   9.590  21.583  0.00  0.00    +0.000 A 
ATOM     22  O   UNL     1      -0.228   9.078  22.672  0.00  0.00    +0.000 OA
ATOM     23  N   UNL     1       0.774   9.014  20.576  0.00  0.00    +0.000 N 
ATOM     24  C   UNL     1       1.289   7.768  20.806  0.00  0.00    +0.000 A 
ATOM     25  C   UNL     1       2.235   7.270  19.996  0.00  0.00    +0.000 A 
ATOM     26  C   UNL     1       2.360   7.496  18.483  0.00  0.00    +0.000 A 
ATOM     27  C   UNL     1       1.905   8.754  18.340  0.00  0.00    +0.000 A 
ATOM     28  C   UNL     1       1.036   9.676  19.376  0.00  0.00    +0.000 A 
ATOM     29  N   UNL     1       0.584  10.899  19.153  0.00  0.00    +0.000 NA
ENDBRANCH  18  19
ENDBRANCH   8  18
TORSDOF 3
ENDMDL
MODEL 7
REMARK VINA RESULT:      -7.2      0.557      1.050
REMARK  Name = 
REMARK  3 active torsions:
REMARK  status: ('A' for Active; 'I' for Inactive)
REMARK    1  A    between atoms: N_8  and  C_9
REMARK    2  A    between atoms: C_9  and  C_10
REMARK    3  A    between atoms: N_23  and  C_24
REMARK                            x       y       z     vdW  Elec       q    Type
REMARK                         _______ _______ _______ _____ _____    ______ ____
ROOT
ATOM      1  O   UNL     1       1.588   7.394  21.461  0.00  0.00    +0.000 OA
ATOM      2  C   UNL     1       1.249   8.409  20.850  0.00  0.00    +0.000 A 
ATOM      3  C   UNL     1       0.494   9.476  21.455  0.00  0.00    +0.000 A 
ATOM      4  S   UNL     1       0.013   9.453  23.084  0.00  0.00    +0.000 S 
ATOM      5  C   UNL     1      -0.801  10.952  22.906  0.00  0.00    +0.000 A 
ATOM      6  C   UNL     1      -0.694  11.455  21.628  0.00  0.00    +0.000 A 
ATOM      7  C   UNL     1       0.088  10.607  20.800  0.00  0.00    +0.000 A 
ATOM      8  N   UNL     1       0.416  10.778  19.458  0.00  0.00    +0.000 N 
ATOM      9  C   UNL     1       1.166   9.782  18.779  0.00  0.00    +0.000 A 
ATOM     10  O   UNL     1       1.397   9.879  17.570  0.00  0.00    +0.000 OA
ATOM     11  N   UNL     1       1.574   8.650  19.511  0.00  0.00    +0.000 N 
ENDROOT
BRANCH  11  12
ATOM     12  C   UNL     1       2.274   7.597  18.836  0.00  0.00    +0.000 A 
ATOM     13  C   UNL     1       3.461   7.863  18.132  0.00  0.00    +0.000 A 
ATOM     14  C   UNL     1       4.110   6.842  17.424  0.00  0.00    +0.000 A 
ATOM     15  C   UNL     1       3.568   5.556  17.395  0.00  0.00    +0.000 A 
ATOM     16  C   UNL     1       2.380   5.291  18.080  0.00  0.00    +0.000 A 
ATOM     17  C   UNL     1       1.745   6.305  18.804  0.00  0.00    +0.000 A 
ENDBRANCH  11  12
BRANCH   8  18
ATOM     18  C   UNL     1      -0.125  11.922  18.681  0.00  0.00    +0.000 C 
BRANCH  18  19
ATOM     19  C   UNL     1      -1.641  11.805  18.403  0.00  0.00    +0.000 A 
ATOM     20  C   UNL     1      -1.905  11.119  17.289  0.00  0.00    +0.000 A 
ATOM     21  C   UNL     1      -3.285  10.859  16.926  0.00  0.00    +0.000 A 
ATOM     22  O   UNL     1      -3.504  10.272  15.869  0.00  0.00    +0.000 OA
ATOM     23  N   UNL     1      -4.244  11.311  17.811  0.00  0.00    +0.000 N 
ATOM     24  C   UNL     1      -5.555  11.094  17.486  0.00  0.00    +0.000 A 
ATOM     25  C   UNL     1      -6.529  11.732  18.152  0.00  0.00    +0.000 A 
ATOM     26  C   UNL     1      -6.529  12.109  19.640  0.00  0.00    +0.000 A 
ATOM     27  C   UNL     1      -5.230  12.375  19.872  0.00  0.00    +0.000 A 
ATOM     28  C   UNL     1      -3.911  11.994  18.982  0.00  0.00    +0.000 A 
ATOM     29  N   UNL     1      -2.650  12.252  19.290  0.00  0.00    +0.000 NA
ENDBRANCH  18  19
ENDBRANCH   8  18
TORSDOF 3
ENDMDL
MODEL 8
REMARK VINA RESULT:      -7.2      3.359      5.699
REMARK  Name = 
REMARK  3 active torsions:
REMARK  status: ('A' for Active; 'I' for Inactive)
REMARK    1  A    between atoms: N_8  and  C_9
REMARK    2  A    between atoms: C_9  and  C_10
REMARK    3  A    between atoms: N_23  and  C_24
REMARK                            x       y       z     vdW  Elec       q    Type
REMARK                         _______ _______ _______ _____ _____    ______ ____
ROOT
ATOM      1  O   UNL     1       5.543   3.658  19.518  0.00  0.00    +0.000 OA
ATOM      2  C   UNL     1       4.991   4.619  18.980  0.00  0.00    +0.000 A 
ATOM      3  C   UNL     1       5.716   5.682  18.333  0.00  0.00    +0.000 A 
ATOM      4  S   UNL     1       7.411   5.706  18.225  0.00  0.00    +0.000 S 
ATOM      5  C   UNL     1       7.379   7.222  17.425  0.00  0.00    +0.000 A 
ATOM      6  C   UNL     1       6.095   7.687  17.241  0.00  0.00    +0.000 A 
ATOM      7  C   UNL     1       5.134   6.770  17.742  0.00  0.00    +0.000 A 
ATOM      8  N   UNL     1       3.747   6.889  17.738  0.00  0.00    +0.000 N 
ATOM      9  C   UNL     1       2.948   5.885  18.346  0.00  0.00    +0.000 A 
ATOM     10  O   UNL     1       1.722   6.014  18.422  0.00  0.00    +0.000 OA
ATOM     11  N   UNL     1       3.602   4.778  18.919  0.00  0.00    +0.000 N 
ENDROOT
BRANCH  11  12
ATOM     12  C   UNL     1       2.826   3.783  19.598  0.00  0.00    +0.000 A 
ATOM     13  C   UNL     1       2.248   2.717  18.886  0.00  0.00    +0.000 A 
ATOM     14  C   UNL     1       1.440   1.780  19.545  0.00  0.00    +0.000 A 
ATOM     15  C   UNL     1       1.186   1.911  20.912  0.00  0.00    +0.000 A 
ATOM     16  C   UNL     1       1.746   2.976  21.619  0.00  0.00    +0.000 A 
ATOM     17  C   UNL     1       2.570   3.900  20.965  0.00  0.00    +0.000 A 
ENDBRANCH  11  12
BRANCH   8  18
ATOM     18  C   UNL     1       3.088   8.121  17.233  0.00  0.00    +0.000 C 
BRANCH  18  19
ATOM     19  C   UNL     1       2.149   8.776  18.270  0.00  0.00    +0.000 A 
ATOM     20  C   UNL     1       1.179   9.494  17.699  0.00  0.00    +0.000 A 
ATOM     21  C   UNL     1       0.170  10.116  18.536  0.00  0.00    +0.000 A 
ATOM     22  O   UNL     1      -0.682  10.815  17.992  0.00  0.00    +0.000 OA
ATOM     23  N   UNL     1       0.266   9.870  19.892  0.00  0.00    +0.000 N 
ATOM     24  C   UNL     1      -0.662  10.458  20.706  0.00  0.00    +0.000 A 
ATOM     25  C   UNL     1      -0.473  10.484  22.034  0.00  0.00    +0.000 A 
ATOM     26  C   UNL     1       0.198   9.399  22.887  0.00  0.00    +0.000 A 
ATOM     27  C   UNL     1       1.137   8.915  22.054  0.00  0.00    +0.000 A 
ATOM     28  C   UNL     1       1.283   9.083  20.433  0.00  0.00    +0.000 A 
ATOM     29  N   UNL     1       2.216   8.544  19.665  0.00  0.00    +0.000 NA
ENDBRANCH  18  19
ENDBRANCH   8  18
TORSDOF 3
ENDMDL
MODEL 9
REMARK VINA RESULT:      -7.2      4.503      9.652
REMARK  Name = 
REMARK  3 active torsions:
REMARK  status: ('A' for Active; 'I' for Inactive)
REMARK    1  A    between atoms: N_8  and  C_9
REMARK    2  A    between atoms: C_9  and  C_10
REMARK    3  A    between atoms: N_23  and  C_24
REMARK                            x       y       z     vdW  Elec       q    Type
REMARK                         _______ _______ _______ _____ _____    ______ ____
ROOT
ATOM      1  O   UNL     1       1.000   5.084  19.682  0.00  0.00    +0.000 OA
ATOM      2  C   UNL     1       2.116   5.014  19.167  0.00  0.00    +0.000 A 
ATOM      3  C   UNL     1       2.805   3.769  18.946  0.00  0.00    +0.000 A 
ATOM      4  S   UNL     1       2.134   2.262  19.353  0.00  0.00    +0.000 S 
ATOM      5  C   UNL     1       3.550   1.446  18.835  0.00  0.00    +0.000 A 
ATOM      6  C   UNL     1       4.507   2.315  18.355  0.00  0.00    +0.000 A 
ATOM      7  C   UNL     1       4.051   3.660  18.392  0.00  0.00    +0.000 A 
ATOM      8  N   UNL     1       4.729   4.808  17.994  0.00  0.00    +0.000 N 
ATOM      9  C   UNL     1       4.126   6.082  18.166  0.00  0.00    +0.000 A 
ATOM     10  O   UNL     1       4.744   7.116  17.894  0.00  0.00    +0.000 OA
ATOM     11  N   UNL     1       2.833   6.130  18.721  0.00  0.00    +0.000 N 
ENDROOT
BRANCH  11  12
ATOM     12  C   UNL     1       2.226   7.405  18.968  0.00  0.00    +0.000 A 
ATOM     13  C   UNL     1       1.866   7.787  20.272  0.00  0.00    +0.000 A 
ATOM     14  C   UNL     1       1.218   9.009  20.500  0.00  0.00    +0.000 A 
ATOM     15  C   UNL     1       0.907   9.848  19.428  0.00  0.00    +0.000 A 
ATOM     16  C   UNL     1       1.250   9.466  18.130  0.00  0.00    +0.000 A 
ATOM     17  C   UNL     1       1.915   8.256  17.905  0.00  0.00    +0.000 A 
ENDBRANCH  11  12
BRANCH   8  18
ATOM     18  C   UNL     1       6.136   4.739  17.522  0.00  0.00    +0.000 C 
BRANCH  18  19
ATOM     19  C   UNL     1       6.256   4.653  15.984  0.00  0.00    +0.000 A 
ATOM     20  C   UNL     1       7.347   5.265  15.520  0.00  0.00    +0.000 A 
ATOM     21  C   UNL     1       7.642   5.213  14.101  0.00  0.00    +0.000 A 
ATOM     22  O   UNL     1       8.624   5.829  13.692  0.00  0.00    +0.000 OA
ATOM     23  N   UNL     1       6.773   4.472  13.324  0.00  0.00    +0.000 N 
ATOM     24  C   UNL     1       7.017   4.419  11.980  0.00  0.00    +0.000 A 
ATOM     25  C   UNL     1       6.080   3.951  11.142  0.00  0.00    +0.000 A 
ATOM     26  C   UNL     1       5.076   2.825  11.425  0.00  0.00    +0.000 A 
ATOM     27  C   UNL     1       4.830   2.980  12.739  0.00  0.00    +0.000 A 
ATOM     28  C   UNL     1       5.663   3.822  13.866  0.00  0.00    +0.000 A 
ATOM     29  N   UNL     1       5.386   3.899  15.158  0.00  0.00    +0.000 NA
ENDBRANCH  18  19
ENDBRANCH   8  18
TORSDOF 3
ENDMDL
