MODEL 1
REMARK VINA RESULT:      -7.7      0.000      0.000
REMARK  Name = 
REMARK  3 active torsions:
REMARK  status: ('A' for Active; 'I' for Inactive)
REMARK    1  A    between atoms: C_1  and  C_2
REMARK    2  A    between atoms: C_5  and  C_6
REMARK    3  A    between atoms: C_17  and  C_18
REMARK                            x       y       z     vdW  Elec       q    Type
REMARK                         _______ _______ _______ _____ _____    ______ ____
ROOT
ATOM      1  C   UNL     1       4.015   4.048  17.458  0.00  0.00    +0.000 A 
ATOM      2  C   UNL     1       2.810   3.322  17.306  0.00  0.00    +0.000 A 
ATOM      3  C   UNL     1       2.232   3.320  18.550  0.00  0.00    +0.000 A 
ATOM      4  C   UNL     1       1.004   2.762  19.040  0.00  0.00    +0.000 A 
ATOM      5  O   UNL     1       0.211   2.119  18.359  0.00  0.00    +0.000 OA
ATOM      6  N   UNL     1       0.756   3.008  20.381  0.00  0.00    +0.000 N 
ATOM      7  C   UNL     1       1.593   3.726  21.206  0.00  0.00    +0.000 A 
ATOM      8  C   UNL     1       2.737   4.227  20.720  0.00  0.00    +0.000 A 
ATOM      9  N   UNL     1       3.071   4.023  19.384  0.00  0.00    +0.000 N 
ATOM     10  N   UNL     1       4.179   4.447  18.729  0.00  0.00    +0.000 NA
ATOM     11  H   UNL     1      -0.111   2.620  20.737  0.00  0.00    +0.000 HD
ENDROOT
BRANCH   1  16
ATOM     12  C   UNL     1       7.914   5.287  13.357  0.00  0.00    +0.000 C 
ATOM     13  C   UNL     1       6.887   4.951  14.404  0.00  0.00    +0.000 A 
ATOM     14  C   UNL     1       7.006   5.506  15.687  0.00  0.00    +0.000 A 
ATOM     15  C   UNL     1       6.063   5.220  16.677  0.00  0.00    +0.000 A 
ATOM     16  C   UNL     1       4.988   4.367  16.411  0.00  0.00    +0.000 A 
ATOM     17  C   UNL     1       4.867   3.812  15.131  0.00  0.00    +0.000 A 
ATOM     18  C   UNL     1       5.808   4.092  14.123  0.00  0.00    +0.000 A 
ATOM     19  C   UNL     1       5.641   3.458  12.769  0.00  0.00    +0.000 C 
ENDBRANCH   1  16
TORSDOF 1
ENDMDL
MODEL 2
REMARK VINA RESULT:      -7.4      4.467      6.553
REMARK  Name = 
REMARK  3 active torsions:
REMARK  status: ('A' for Active; 'I' for Inactive)
REMARK    1  A    between atoms: C_1  and  C_2
REMARK    2  A    between atoms: C_5  and  C_6
REMARK    3  A    between atoms: C_17  and  C_18
REMARK                            x       y       z     vdW  Elec       q    Type
REMARK                         _______ _______ _______ _____ _____    ______ ____
ROOT
ATOM      1  C   UNL     1       2.753   6.498  19.439  0.00  0.00    +0.000 A 
ATOM      2  C   UNL     1       4.032   6.181  18.923  0.00  0.00    +0.000 A 
ATOM      3  C   UNL     1       4.242   4.869  19.261  0.00  0.00    +0.000 A 
ATOM      4  C   UNL     1       5.338   3.975  19.017  0.00  0.00    +0.000 A 
ATOM      5  O   UNL     1       6.368   4.282  18.427  0.00  0.00    +0.000 OA
ATOM      6  N   UNL     1       5.151   2.690  19.504  0.00  0.00    +0.000 N 
ATOM      7  C   UNL     1       4.021   2.269  20.168  0.00  0.00    +0.000 A 
ATOM      8  C   UNL     1       3.018   3.130  20.388  0.00  0.00    +0.000 A 
ATOM      9  N   UNL     1       3.122   4.445  19.940  0.00  0.00    +0.000 N 
ATOM     10  N   UNL     1       2.218   5.444  20.078  0.00  0.00    +0.000 NA
ATOM     11  H   UNL     1       5.919   2.050  19.334  0.00  0.00    +0.000 HD
ENDROOT
BRANCH   1  16
ATOM     12  C   UNL     1      -0.084  11.518  18.895  0.00  0.00    +0.000 C 
ATOM     13  C   UNL     1       0.648  10.214  19.062  0.00  0.00    +0.000 A 
ATOM     14  C   UNL     1       1.309   9.650  17.962  0.00  0.00    +0.000 A 
ATOM     15  C   UNL     1       2.005   8.446  18.088  0.00  0.00    +0.000 A 
ATOM     16  C   UNL     1       2.046   7.774  19.315  0.00  0.00    +0.000 A 
ATOM     17  C   UNL     1       1.386   8.335  20.415  0.00  0.00    +0.000 A 
ATOM     18  C   UNL     1       0.684   9.548  20.302  0.00  0.00    +0.000 A 
ATOM     19  C   UNL     1      -0.021  10.102  21.511  0.00  0.00    +0.000 C 
ENDBRANCH   1  16
TORSDOF 1
ENDMDL
MODEL 3
REMARK VINA RESULT:      -7.4      4.061      6.753
REMARK  Name = 
REMARK  3 active torsions:
REMARK  status: ('A' for Active; 'I' for Inactive)
REMARK    1  A    between atoms: C_1  and  C_2
REMARK    2  A    between atoms: C_5  and  C_6
REMARK    3  A    between atoms: C_17  and  C_18
REMARK                            x       y       z     vdW  Elec       q    Type
REMARK                         _______ _______ _______ _____ _____    ______ ____
ROOT
ATOM      1  C   UNL     1       3.091   6.834  18.016  0.00  0.00    +0.000 A 
ATOM      2  C   UNL     1       2.916   5.435  18.143  0.00  0.00    +0.000 A 
ATOM      3  C   UNL     1       3.975   4.878  17.472  0.00  0.00    +0.000 A 
ATOM      4  C   UNL     1       4.363   3.514  17.250  0.00  0.00    +0.000 A 
ATOM      5  O   UNL     1       3.736   2.538  17.648  0.00  0.00    +0.000 OA
ATOM      6  N   UNL     1       5.541   3.361  16.535  0.00  0.00    +0.000 N 
ATOM      7  C   UNL     1       6.303   4.407  16.063  0.00  0.00    +0.000 A 
ATOM      8  C   UNL     1       5.909   5.669  16.279  0.00  0.00    +0.000 A 
ATOM      9  N   UNL     1       4.733   5.917  16.984  0.00  0.00    +0.000 N 
ATOM     10  N   UNL     1       4.184   7.117  17.288  0.00  0.00    +0.000 NA
ATOM     11  H   UNL     1       5.826   2.402  16.374  0.00  0.00    +0.000 HD
ENDROOT
BRANCH   1  16
ATOM     12  C   UNL     1      -0.314  10.962  20.231  0.00  0.00    +0.000 C 
ATOM     13  C   UNL     1       0.574   9.880  19.680  0.00  0.00    +0.000 A 
ATOM     14  C   UNL     1       0.899   9.885  18.316  0.00  0.00    +0.000 A 
ATOM     15  C   UNL     1       1.728   8.899  17.777  0.00  0.00    +0.000 A 
ATOM     16  C   UNL     1       2.244   7.882  18.588  0.00  0.00    +0.000 A 
ATOM     17  C   UNL     1       1.921   7.876  19.950  0.00  0.00    +0.000 A 
ATOM     18  C   UNL     1       1.089   8.863  20.507  0.00  0.00    +0.000 A 
ATOM     19  C   UNL     1       0.760   8.803  21.973  0.00  0.00    +0.000 C 
ENDBRANCH   1  16
TORSDOF 1
ENDMDL
MODEL 4
REMARK VINA RESULT:      -7.3      4.302      6.342
REMARK  Name = 
REMARK  3 active torsions:
REMARK  status: ('A' for Active; 'I' for Inactive)
REMARK    1  A    between atoms: C_1  and  C_2
REMARK    2  A    between atoms: C_5  and  C_6
REMARK    3  A    between atoms: C_17  and  C_18
REMARK                            x       y       z     vdW  Elec       q    Type
REMARK                         _______ _______ _______ _____ _____    ______ ____
ROOT
ATOM      1  C   UNL     1       2.365   6.391  19.780  0.00  0.00    +0.000 A 
ATOM      2  C   UNL     1       1.803   5.474  20.701  0.00  0.00    +0.000 A 
ATOM      3  C   UNL     1       2.565   4.339  20.588  0.00  0.00    +0.000 A 
ATOM      4  C   UNL     1       2.507   3.070  21.256  0.00  0.00    +0.000 A 
ATOM      5  O   UNL     1       1.673   2.767  22.103  0.00  0.00    +0.000 OA
ATOM      6  N   UNL     1       3.495   2.175  20.877  0.00  0.00    +0.000 N 
ATOM      7  C   UNL     1       4.469   2.445  19.941  0.00  0.00    +0.000 A 
ATOM      8  C   UNL     1       4.490   3.636  19.327  0.00  0.00    +0.000 A 
ATOM      9  N   UNL     1       3.531   4.596  19.642  0.00  0.00    +0.000 N 
ATOM     10  N   UNL     1       3.398   5.840  19.123  0.00  0.00    +0.000 NA
ATOM     11  H   UNL     1       3.465   1.276  21.345  0.00  0.00    +0.000 HD
ENDROOT
BRANCH   1  16
ATOM     12  C   UNL     1       0.628  11.823  18.774  0.00  0.00    +0.000 C 
ATOM     13  C   UNL     1       1.071  10.415  19.061  0.00  0.00    +0.000 A 
ATOM     14  C   UNL     1       1.715   9.679  18.056  0.00  0.00    +0.000 A 
ATOM     15  C   UNL     1       2.147   8.372  18.295  0.00  0.00    +0.000 A 
ATOM     16  C   UNL     1       1.935   7.770  19.540  0.00  0.00    +0.000 A 
ATOM     17  C   UNL     1       1.292   8.503  20.545  0.00  0.00    +0.000 A 
ATOM     18  C   UNL     1       0.854   9.820  20.319  0.00  0.00    +0.000 A 
ATOM     19  C   UNL     1       0.155  10.560  21.426  0.00  0.00    +0.000 C 
ENDBRANCH   1  16
TORSDOF 1
ENDMDL
MODEL 5
REMARK VINA RESULT:      -7.2      1.485      1.708
REMARK  Name = 
REMARK  3 active torsions:
REMARK  status: ('A' for Active; 'I' for Inactive)
REMARK    1  A    between atoms: C_1  and  C_2
REMARK    2  A    between atoms: C_5  and  C_6
REMARK    3  A    between atoms: C_17  and  C_18
REMARK                            x       y       z     vdW  Elec       q    Type
REMARK                         _______ _______ _______ _____ _____    ______ ____
ROOT
ATOM      1  C   UNL     1       4.192   4.267  17.220  0.00  0.00    +0.000 A 
ATOM      2  C   UNL     1       3.648   5.231  18.101  0.00  0.00    +0.000 A 
ATOM      3  C   UNL     1       2.830   4.525  18.945  0.00  0.00    +0.000 A 
ATOM      4  C   UNL     1       2.011   4.929  20.053  0.00  0.00    +0.000 A 
ATOM      5  O   UNL     1       1.888   6.085  20.443  0.00  0.00    +0.000 OA
ATOM      6  N   UNL     1       1.345   3.890  20.684  0.00  0.00    +0.000 N 
ATOM      7  C   UNL     1       1.439   2.567  20.310  0.00  0.00    +0.000 A 
ATOM      8  C   UNL     1       2.205   2.224  19.267  0.00  0.00    +0.000 A 
ATOM      9  N   UNL     1       2.906   3.204  18.568  0.00  0.00    +0.000 N 
ATOM     10  N   UNL     1       3.716   3.042  17.495  0.00  0.00    +0.000 NA
ATOM     11  H   UNL     1       0.765   4.164  21.470  0.00  0.00    +0.000 HD
ENDROOT
BRANCH   1  16
ATOM     12  C   UNL     1       8.066   5.180  13.012  0.00  0.00    +0.000 C 
ATOM     13  C   UNL     1       7.045   4.929  14.088  0.00  0.00    +0.000 A 
ATOM     14  C   UNL     1       7.204   5.535  15.342  0.00  0.00    +0.000 A 
ATOM     15  C   UNL     1       6.268   5.328  16.358  0.00  0.00    +0.000 A 
ATOM     16  C   UNL     1       5.158   4.503  16.145  0.00  0.00    +0.000 A 
ATOM     17  C   UNL     1       4.998   3.897  14.893  0.00  0.00    +0.000 A 
ATOM     18  C   UNL     1       5.931   4.098  13.861  0.00  0.00    +0.000 A 
ATOM     19  C   UNL     1       5.720   3.412  12.539  0.00  0.00    +0.000 C 
ENDBRANCH   1  16
TORSDOF 1
ENDMDL
MODEL 6
REMARK VINA RESULT:      -7.1      4.553      5.162
REMARK  Name = 
REMARK  3 active torsions:
REMARK  status: ('A' for Active; 'I' for Inactive)
REMARK    1  A    between atoms: C_1  and  C_2
REMARK    2  A    between atoms: C_5  and  C_6
REMARK    3  A    between atoms: C_17  and  C_18
REMARK                            x       y       z     vdW  Elec       q    Type
REMARK                         _______ _______ _______ _____ _____    ______ ____
ROOT
ATOM      1  C   UNL     1       2.485   7.511  18.659  0.00  0.00    +0.000 A 
ATOM      2  C   UNL     1       1.915   8.717  18.188  0.00  0.00    +0.000 A 
ATOM      3  C   UNL     1       1.267   9.254  19.271  0.00  0.00    +0.000 A 
ATOM      4  C   UNL     1       0.512  10.463  19.439  0.00  0.00    +0.000 A 
ATOM      5  O   UNL     1       0.290  11.275  18.547  0.00  0.00    +0.000 OA
ATOM      6  N   UNL     1       0.034  10.670  20.724  0.00  0.00    +0.000 N 
ATOM      7  C   UNL     1       0.249   9.809  21.778  0.00  0.00    +0.000 A 
ATOM      8  C   UNL     1       0.950   8.684  21.587  0.00  0.00    +0.000 A 
ATOM      9  N   UNL     1       1.463   8.392  20.326  0.00  0.00    +0.000 N 
ATOM     10  N   UNL     1       2.184   7.308  19.951  0.00  0.00    +0.000 NA
ATOM     11  H   UNL     1      -0.498  11.522  20.854  0.00  0.00    +0.000 HD
ENDROOT
BRANCH   1  16
ATOM     12  C   UNL     1       5.819   3.835  15.671  0.00  0.00    +0.000 C 
ATOM     13  C   UNL     1       4.939   4.769  16.456  0.00  0.00    +0.000 A 
ATOM     14  C   UNL     1       5.111   6.154  16.320  0.00  0.00    +0.000 A 
ATOM     15  C   UNL     1       4.304   7.046  17.028  0.00  0.00    +0.000 A 
ATOM     16  C   UNL     1       3.313   6.574  17.896  0.00  0.00    +0.000 A 
ATOM     17  C   UNL     1       3.140   5.191  18.034  0.00  0.00    +0.000 A 
ATOM     18  C   UNL     1       3.945   4.281  17.326  0.00  0.00    +0.000 A 
ATOM     19  C   UNL     1       3.728   2.806  17.521  0.00  0.00    +0.000 C 
ENDBRANCH   1  16
TORSDOF 1
ENDMDL
MODEL 7
REMARK VINA RESULT:      -7.1      1.498      1.698
REMARK  Name = 
REMARK  3 active torsions:
REMARK  status: ('A' for Active; 'I' for Inactive)
REMARK    1  A    between atoms: C_1  and  C_2
REMARK    2  A    between atoms: C_5  and  C_6
REMARK    3  A    between atoms: C_17  and  C_18
REMARK                            x       y       z     vdW  Elec       q    Type
REMARK                         _______ _______ _______ _____ _____    ______ ____
ROOT
ATOM      1  C   UNL     1       4.387   4.020  17.492  0.00  0.00    +0.000 A 
ATOM      2  C   UNL     1       4.721   3.325  18.679  0.00  0.00    +0.000 A 
ATOM      3  C   UNL     1       3.550   3.239  19.387  0.00  0.00    +0.000 A 
ATOM      4  C   UNL     1       3.233   2.647  20.656  0.00  0.00    +0.000 A 
ATOM      5  O   UNL     1       4.046   2.088  21.385  0.00  0.00    +0.000 OA
ATOM      6  N   UNL     1       1.899   2.745  21.019  0.00  0.00    +0.000 N 
ATOM      7  C   UNL     1       0.929   3.350  20.251  0.00  0.00    +0.000 A 
ATOM      8  C   UNL     1       1.258   3.901  19.075  0.00  0.00    +0.000 A 
ATOM      9  N   UNL     1       2.578   3.856  18.633  0.00  0.00    +0.000 N 
ATOM     10  N   UNL     1       3.088   4.361  17.484  0.00  0.00    +0.000 NA
ATOM     11  H   UNL     1       1.664   2.328  21.912  0.00  0.00    +0.000 HD
ENDROOT
BRANCH   1  16
ATOM     12  C   UNL     1       7.985   5.266  13.128  0.00  0.00    +0.000 C 
ATOM     13  C   UNL     1       7.035   4.929  14.244  0.00  0.00    +0.000 A 
ATOM     14  C   UNL     1       7.253   5.468  15.520  0.00  0.00    +0.000 A 
ATOM     15  C   UNL     1       6.384   5.181  16.574  0.00  0.00    +0.000 A 
ATOM     16  C   UNL     1       5.282   4.341  16.379  0.00  0.00    +0.000 A 
ATOM     17  C   UNL     1       5.062   3.801  15.106  0.00  0.00    +0.000 A 
ATOM     18  C   UNL     1       5.928   4.083  14.035  0.00  0.00    +0.000 A 
ATOM     19  C   UNL     1       5.656   3.466  12.690  0.00  0.00    +0.000 C 
ENDBRANCH   1  16
TORSDOF 1
ENDMDL
MODEL 8
REMARK VINA RESULT:      -7.1      4.191      6.658
REMARK  Name = 
REMARK  3 active torsions:
REMARK  status: ('A' for Active; 'I' for Inactive)
REMARK    1  A    between atoms: C_1  and  C_2
REMARK    2  A    between atoms: C_5  and  C_6
REMARK    3  A    between atoms: C_17  and  C_18
REMARK                            x       y       z     vdW  Elec       q    Type
REMARK                         _______ _______ _______ _____ _____    ______ ____
ROOT
ATOM      1  C   UNL     1       2.562   6.401  19.296  0.00  0.00    +0.000 A 
ATOM      2  C   UNL     1       3.272   6.016  18.133  0.00  0.00    +0.000 A 
ATOM      3  C   UNL     1       3.621   4.707  18.342  0.00  0.00    +0.000 A 
ATOM      4  C   UNL     1       4.338   3.761  17.534  0.00  0.00    +0.000 A 
ATOM      5  O   UNL     1       4.814   4.008  16.431  0.00  0.00    +0.000 OA
ATOM      6  N   UNL     1       4.459   2.500  18.097  0.00  0.00    +0.000 N 
ATOM      7  C   UNL     1       3.945   2.146  19.325  0.00  0.00    +0.000 A 
ATOM      8  C   UNL     1       3.288   3.054  20.059  0.00  0.00    +0.000 A 
ATOM      9  N   UNL     1       3.125   4.350  19.575  0.00  0.00    +0.000 N 
ATOM     10  N   UNL     1       2.500   5.390  20.177  0.00  0.00    +0.000 NA
ATOM     11  H   UNL     1       4.961   1.823  17.533  0.00  0.00    +0.000 HD
ENDROOT
BRANCH   1  16
ATOM     12  C   UNL     1       0.064  11.533  20.279  0.00  0.00    +0.000 C 
ATOM     13  C   UNL     1       0.710  10.194  20.050  0.00  0.00    +0.000 A 
ATOM     14  C   UNL     1       1.205   9.879  18.776  0.00  0.00    +0.000 A 
ATOM     15  C   UNL     1       1.819   8.648  18.534  0.00  0.00    +0.000 A 
ATOM     16  C   UNL     1       1.942   7.701  19.557  0.00  0.00    +0.000 A 
ATOM     17  C   UNL     1       1.449   8.014  20.830  0.00  0.00    +0.000 A 
ATOM     18  C   UNL     1       0.830   9.251  21.088  0.00  0.00    +0.000 A 
ATOM     19  C   UNL     1       0.303   9.532  22.468  0.00  0.00    +0.000 C 
ENDBRANCH   1  16
TORSDOF 1
ENDMDL
MODEL 9
REMARK VINA RESULT:      -7.0      5.218      7.069
REMARK  Name = 
REMARK  3 active torsions:
REMARK  status: ('A' for Active; 'I' for Inactive)
REMARK    1  A    between atoms: C_1  and  C_2
REMARK    2  A    between atoms: C_5  and  C_6
REMARK    3  A    between atoms: C_17  and  C_18
REMARK                            x       y       z     vdW  Elec       q    Type
REMARK                         _______ _______ _______ _____ _____    ______ ____
ROOT
ATOM      1  C   UNL     1       1.702   7.810  20.157  0.00  0.00    +0.000 A 
ATOM      2  C   UNL     1       1.194   8.354  21.361  0.00  0.00    +0.000 A 
ATOM      3  C   UNL     1       0.786   9.623  21.038  0.00  0.00    +0.000 A 
ATOM      4  C   UNL     1       0.181  10.666  21.816  0.00  0.00    +0.000 A 
ATOM      5  O   UNL     1      -0.072  10.584  23.014  0.00  0.00    +0.000 OA
ATOM      6  N   UNL     1      -0.117  11.816  21.102  0.00  0.00    +0.000 N 
ATOM      7  C   UNL     1       0.129  11.979  19.757  0.00  0.00    +0.000 A 
ATOM      8  C   UNL     1       0.703  10.989  19.060  0.00  0.00    +0.000 A 
ATOM      9  N   UNL     1       1.044   9.799  19.698  0.00  0.00    +0.000 N 
ATOM     10  N   UNL     1       1.630   8.704  19.158  0.00  0.00    +0.000 NA
ATOM     11  H   UNL     1      -0.547  12.559  21.641  0.00  0.00    +0.000 HD
ENDROOT
BRANCH   1  16
ATOM     12  C   UNL     1       3.867   2.495  19.374  0.00  0.00    +0.000 C 
ATOM     13  C   UNL     1       3.288   3.865  19.596  0.00  0.00    +0.000 A 
ATOM     14  C   UNL     1       3.711   4.930  18.787  0.00  0.00    +0.000 A 
ATOM     15  C   UNL     1       3.185   6.212  18.963  0.00  0.00    +0.000 A 
ATOM     16  C   UNL     1       2.232   6.460  19.957  0.00  0.00    +0.000 A 
ATOM     17  C   UNL     1       1.808   5.398  20.765  0.00  0.00    +0.000 A 
ATOM     18  C   UNL     1       2.328   4.102  20.599  0.00  0.00    +0.000 A 
ATOM     19  C   UNL     1       1.851   2.999  21.503  0.00  0.00    +0.000 C 
ENDBRANCH   1  16
TORSDOF 1
ENDMDL
