MODEL 1
REMARK VINA RESULT:      -8.0      0.000      0.000
REMARK  Name = 
REMARK  11 active torsions:
REMARK  status: ('A' for Active; 'I' for Inactive)
REMARK    1  A    between atoms: C_1  and  C_2
REMARK    2  A    between atoms: C_2  and  C_3
REMARK    3  A    between atoms: C_2  and  O_4
REMARK    4  A    between atoms: O_4  and  P_5
REMARK    5  A    between atoms: P_5  and  O_7
REMARK    6  A    between atoms: P_5  and  C_11
REMARK    7  A    between atoms: O_7  and  C_8
REMARK    8  A    between atoms: C_8  and  C_9
REMARK    9  A    between atoms: C_8  and  C_10
REMARK   10  A    between atoms: C_11  and  C_12
REMARK   11  A    between atoms: C_11  and  C_22
REMARK                            x       y       z     vdW  Elec       q    Type
REMARK                         _______ _______ _______ _____ _____    ______ ____
ROOT
ATOM      1  C   UNL     1       3.429   6.651  18.491  0.00  0.00    +0.000 C 
ENDROOT
BRANCH   1   2
ATOM      2  C   UNL     1       2.627   7.952  18.479  0.00  0.00    +0.000 A 
ATOM      3  C   UNL     1       2.595   8.808  17.388  0.00  0.00    +0.000 A 
ATOM      4  N   UNL     1       1.685   9.798  17.624  0.00  0.00    +0.000 N 
ATOM      5  C   UNL     1       1.116   9.634  18.861  0.00  0.00    +0.000 A 
ATOM      6  C   UNL     1       0.100  10.385  19.476  0.00  0.00    +0.000 A 
ATOM      7  C   UNL     1      -0.284  10.024  20.765  0.00  0.00    +0.000 A 
ATOM      8  C   UNL     1       0.349   8.973  21.408  0.00  0.00    +0.000 A 
ATOM      9  F   UNL     1      -0.016   8.659  22.659  0.00  0.00    +0.000 F 
ATOM     10  C   UNL     1       1.350   8.221  20.784  0.00  0.00    +0.000 A 
ATOM     11  C   UNL     1       1.736   8.530  19.461  0.00  0.00    +0.000 A 
ATOM     12  H   UNL     1       1.444  10.534  16.974  0.00  0.00    +0.000 HD
ENDBRANCH   1   2
BRANCH   1  13
ATOM     13  C   UNL     1       2.504   5.428  18.424  0.00  0.00    +0.000 A 
ATOM     14  C   UNL     1       1.879   4.912  17.296  0.00  0.00    +0.000 A 
ATOM     15  N   UNL     1       1.218   3.765  17.635  0.00  0.00    +0.000 N 
ATOM     16  C   UNL     1       1.387   3.509  18.972  0.00  0.00    +0.000 A 
ATOM     17  C   UNL     1       0.910   2.433  19.732  0.00  0.00    +0.000 A 
ATOM     18  C   UNL     1       1.240   2.410  21.088  0.00  0.00    +0.000 A 
ATOM     19  C   UNL     1       2.006   3.428  21.640  0.00  0.00    +0.000 A 
ATOM     20  F   UNL     1       2.302   3.379  22.946  0.00  0.00    +0.000 F 
ATOM     21  C   UNL     1       2.477   4.497  20.874  0.00  0.00    +0.000 A 
ATOM     22  C   UNL     1       2.167   4.538  19.500  0.00  0.00    +0.000 A 
ATOM     23  H   UNL     1       0.702   3.175  16.996  0.00  0.00    +0.000 HD
ENDBRANCH   1  13
BRANCH   1  24
ATOM     24  P   UNL     1       4.533   6.479  17.041  0.00  0.00    +0.000 P 
ATOM     25  O   UNL     1       4.832   5.044  17.534  0.00  0.00    +0.000 OA
BRANCH  24  26
ATOM     26  O   UNL     1       5.576   6.317  15.671  0.00  0.00    +0.000 OA
BRANCH  26  28
ATOM     27  C   UNL     1       5.121   4.453  14.120  0.00  0.00    +0.000 C 
ATOM     28  C   UNL     1       5.902   4.946  15.339  0.00  0.00    +0.000 C 
ATOM     29  C   UNL     1       7.399   4.794  15.091  0.00  0.00    +0.000 C 
ENDBRANCH  26  28
ENDBRANCH  24  26
BRANCH  24  30
ATOM     30  O   UNL     1       5.702   7.428  17.783  0.00  0.00    +0.000 OA
BRANCH  30  31
ATOM     31  C   UNL     1       7.100   7.254  17.552  0.00  0.00    +0.000 C 
ATOM     32  C   UNL     1       7.854   8.573  17.630  0.00  0.00    +0.000 C 
ATOM     33  C   UNL     1       7.655   6.264  18.572  0.00  0.00    +0.000 C 
ENDBRANCH  30  31
ENDBRANCH  24  30
ENDBRANCH   1  24
TORSDOF 7
ENDMDL
MODEL 2
REMARK VINA RESULT:      -7.4      6.401      9.889
REMARK  Name = 
REMARK  11 active torsions:
REMARK  status: ('A' for Active; 'I' for Inactive)
REMARK    1  A    between atoms: C_1  and  C_2
REMARK    2  A    between atoms: C_2  and  C_3
REMARK    3  A    between atoms: C_2  and  O_4
REMARK    4  A    between atoms: O_4  and  P_5
REMARK    5  A    between atoms: P_5  and  O_7
REMARK    6  A    between atoms: P_5  and  C_11
REMARK    7  A    between atoms: O_7  and  C_8
REMARK    8  A    between atoms: C_8  and  C_9
REMARK    9  A    between atoms: C_8  and  C_10
REMARK   10  A    between atoms: C_11  and  C_12
REMARK   11  A    between atoms: C_11  and  C_22
REMARK                            x       y       z     vdW  Elec       q    Type
REMARK                         _______ _______ _______ _____ _____    ______ ____
ROOT
ATOM      1  C   UNL     1       0.750  12.561  19.930  0.00  0.00    +0.000 C 
ENDROOT
BRANCH   1   2
ATOM      2  C   UNL     1       0.055  11.588  18.978  0.00  0.00    +0.000 A 
ATOM      3  C   UNL     1       0.730  10.581  18.303  0.00  0.00    +0.000 A 
ATOM      4  N   UNL     1      -0.176   9.795  17.652  0.00  0.00    +0.000 N 
ATOM      5  C   UNL     1      -1.448  10.263  17.862  0.00  0.00    +0.000 A 
ATOM      6  C   UNL     1      -2.673   9.728  17.429  0.00  0.00    +0.000 A 
ATOM      7  C   UNL     1      -3.836  10.421  17.757  0.00  0.00    +0.000 A 
ATOM      8  C   UNL     1      -3.759  11.611  18.462  0.00  0.00    +0.000 A 
ATOM      9  F   UNL     1      -4.887  12.277  18.743  0.00  0.00    +0.000 F 
ATOM     10  C   UNL     1      -2.536  12.129  18.902  0.00  0.00    +0.000 A 
ATOM     11  C   UNL     1      -1.340  11.433  18.626  0.00  0.00    +0.000 A 
ATOM     12  H   UNL     1       0.050   8.970  17.113  0.00  0.00    +0.000 HD
ENDBRANCH   1   2
BRANCH   1  13
ATOM     13  C   UNL     1       0.640  14.006  19.426  0.00  0.00    +0.000 A 
ATOM     14  C   UNL     1      -0.427  14.878  19.609  0.00  0.00    +0.000 A 
ATOM     15  N   UNL     1      -0.101  16.099  19.092  0.00  0.00    +0.000 N 
ATOM     16  C   UNL     1       1.163  16.058  18.560  0.00  0.00    +0.000 A 
ATOM     17  C   UNL     1       1.901  17.084  17.956  0.00  0.00    +0.000 A 
ATOM     18  C   UNL     1       3.184  16.770  17.505  0.00  0.00    +0.000 A 
ATOM     19  C   UNL     1       3.684  15.483  17.655  0.00  0.00    +0.000 A 
ATOM     20  F   UNL     1       4.918  15.214  17.207  0.00  0.00    +0.000 F 
ATOM     21  C   UNL     1       2.941  14.467  18.259  0.00  0.00    +0.000 A 
ATOM     22  C   UNL     1       1.647  14.760  18.733  0.00  0.00    +0.000 A 
ATOM     23  H   UNL     1      -0.689  16.922  19.116  0.00  0.00    +0.000 HD
ENDBRANCH   1  13
BRANCH   1  24
ATOM     24  P   UNL     1      -0.005  12.590  21.597  0.00  0.00    +0.000 P 
ATOM     25  O   UNL     1       1.167  13.502  22.029  0.00  0.00    +0.000 OA
BRANCH  24  26
ATOM     26  O   UNL     1      -0.719  12.618  23.172  0.00  0.00    +0.000 OA
BRANCH  26  28
ATOM     27  C   UNL     1      -1.965  14.698  22.721  0.00  0.00    +0.000 C 
ATOM     28  C   UNL     1      -2.019  13.254  23.217  0.00  0.00    +0.000 C 
ATOM     29  C   UNL     1      -3.034  12.462  22.398  0.00  0.00    +0.000 C 
ENDBRANCH  26  28
ENDBRANCH  24  26
BRANCH  24  30
ATOM     30  O   UNL     1       0.542  11.034  21.904  0.00  0.00    +0.000 OA
BRANCH  30  31
ATOM     31  C   UNL     1      -0.332   9.959  22.248  0.00  0.00    +0.000 C 
ATOM     32  C   UNL     1      -0.251   8.821  21.243  0.00  0.00    +0.000 C 
ATOM     33  C   UNL     1       0.017   9.460  23.647  0.00  0.00    +0.000 C 
ENDBRANCH  30  31
ENDBRANCH  24  30
ENDBRANCH   1  24
TORSDOF 7
ENDMDL
MODEL 3
REMARK VINA RESULT:      -7.2      6.566     10.221
REMARK  Name = 
REMARK  11 active torsions:
REMARK  status: ('A' for Active; 'I' for Inactive)
REMARK    1  A    between atoms: C_1  and  C_2
REMARK    2  A    between atoms: C_2  and  C_3
REMARK    3  A    between atoms: C_2  and  O_4
REMARK    4  A    between atoms: O_4  and  P_5
REMARK    5  A    between atoms: P_5  and  O_7
REMARK    6  A    between atoms: P_5  and  C_11
REMARK    7  A    between atoms: O_7  and  C_8
REMARK    8  A    between atoms: C_8  and  C_9
REMARK    9  A    between atoms: C_8  and  C_10
REMARK   10  A    between atoms: C_11  and  C_12
REMARK   11  A    between atoms: C_11  and  C_22
REMARK                            x       y       z     vdW  Elec       q    Type
REMARK                         _______ _______ _______ _____ _____    ______ ____
ROOT
ATOM      1  C   UNL     1      -0.220  12.593  20.392  0.00  0.00    +0.000 C 
ENDROOT
BRANCH   1   2
ATOM      2  C   UNL     1      -0.464  11.673  19.197  0.00  0.00    +0.000 A 
ATOM      3  C   UNL     1       0.540  10.914  18.612  0.00  0.00    +0.000 A 
ATOM      4  N   UNL     1      -0.012  10.091  17.672  0.00  0.00    +0.000 N 
ATOM      5  C   UNL     1      -1.367  10.294  17.601  0.00  0.00    +0.000 A 
ATOM      6  C   UNL     1      -2.323   9.627  16.818  0.00  0.00    +0.000 A 
ATOM      7  C   UNL     1      -3.648  10.049  16.911  0.00  0.00    +0.000 A 
ATOM      8  C   UNL     1      -3.980  11.111  17.736  0.00  0.00    +0.000 A 
ATOM      9  F   UNL     1      -5.256  11.520  17.791  0.00  0.00    +0.000 F 
ATOM     10  C   UNL     1      -3.025  11.760  18.524  0.00  0.00    +0.000 A 
ATOM     11  C   UNL     1      -1.679  11.333  18.489  0.00  0.00    +0.000 A 
ATOM     12  H   UNL     1       0.496   9.411  17.123  0.00  0.00    +0.000 HD
ENDBRANCH   1   2
BRANCH   1  13
ATOM     13  C   UNL     1      -0.533  14.054  20.041  0.00  0.00    +0.000 A 
ATOM     14  C   UNL     1      -1.672  14.772  20.381  0.00  0.00    +0.000 A 
ATOM     15  N   UNL     1      -1.528  16.065  19.964  0.00  0.00    +0.000 N 
ATOM     16  C   UNL     1      -0.314  16.223  19.346  0.00  0.00    +0.000 A 
ATOM     17  C   UNL     1       0.254  17.379  18.796  0.00  0.00    +0.000 A 
ATOM     18  C   UNL     1       1.524  17.263  18.230  0.00  0.00    +0.000 A 
ATOM     19  C   UNL     1       2.176  16.037  18.219  0.00  0.00    +0.000 A 
ATOM     20  F   UNL     1       3.394  15.958  17.664  0.00  0.00    +0.000 F 
ATOM     21  C   UNL     1       1.602  14.890  18.770  0.00  0.00    +0.000 A 
ATOM     22  C   UNL     1       0.325  14.982  19.358  0.00  0.00    +0.000 A 
ATOM     23  H   UNL     1      -2.201  16.806  20.109  0.00  0.00    +0.000 HD
ENDBRANCH   1  13
BRANCH   1  24
ATOM     24  P   UNL     1      -1.305  12.215  21.816  0.00  0.00    +0.000 P 
ATOM     25  O   UNL     1      -0.179  12.766  22.723  0.00  0.00    +0.000 OA
BRANCH  24  26
ATOM     26  O   UNL     1      -2.330  11.858  23.163  0.00  0.00    +0.000 OA
BRANCH  26  28
ATOM     27  C   UNL     1      -4.352  12.734  22.054  0.00  0.00    +0.000 C 
ATOM     28  C   UNL     1      -3.460  12.754  23.296  0.00  0.00    +0.000 C 
ATOM     29  C   UNL     1      -4.285  12.401  24.530  0.00  0.00    +0.000 C 
ENDBRANCH  26  28
ENDBRANCH  24  26
BRANCH  24  30
ATOM     30  O   UNL     1      -0.965  10.578  21.678  0.00  0.00    +0.000 OA
BRANCH  30  31
ATOM     31  C   UNL     1       0.207   9.980  22.232  0.00  0.00    +0.000 C 
ATOM     32  C   UNL     1      -0.039   9.451  23.637  0.00  0.00    +0.000 C 
ATOM     33  C   UNL     1       0.675   8.856  21.314  0.00  0.00    +0.000 C 
ENDBRANCH  30  31
ENDBRANCH  24  30
ENDBRANCH   1  24
TORSDOF 7
ENDMDL
MODEL 4
REMARK VINA RESULT:      -7.2      6.516      9.949
REMARK  Name = 
REMARK  11 active torsions:
REMARK  status: ('A' for Active; 'I' for Inactive)
REMARK    1  A    between atoms: C_1  and  C_2
REMARK    2  A    between atoms: C_2  and  C_3
REMARK    3  A    between atoms: C_2  and  O_4
REMARK    4  A    between atoms: O_4  and  P_5
REMARK    5  A    between atoms: P_5  and  O_7
REMARK    6  A    between atoms: P_5  and  C_11
REMARK    7  A    between atoms: O_7  and  C_8
REMARK    8  A    between atoms: C_8  and  C_9
REMARK    9  A    between atoms: C_8  and  C_10
REMARK   10  A    between atoms: C_11  and  C_12
REMARK   11  A    between atoms: C_11  and  C_22
REMARK                            x       y       z     vdW  Elec       q    Type
REMARK                         _______ _______ _______ _____ _____    ______ ____
ROOT
ATOM      1  C   UNL     1       0.169  12.448  19.966  0.00  0.00    +0.000 C 
ENDROOT
BRANCH   1   2
ATOM      2  C   UNL     1      -0.442  11.544  18.896  0.00  0.00    +0.000 A 
ATOM      3  C   UNL     1       0.297  10.602  18.193  0.00  0.00    +0.000 A 
ATOM      4  N   UNL     1      -0.548   9.857  17.422  0.00  0.00    +0.000 N 
ATOM      5  C   UNL     1      -1.841  10.290  17.580  0.00  0.00    +0.000 A 
ATOM      6  C   UNL     1      -3.023   9.773  17.024  0.00  0.00    +0.000 A 
ATOM      7  C   UNL     1      -4.219  10.422  17.324  0.00  0.00    +0.000 A 
ATOM      8  C   UNL     1      -4.212  11.553  18.124  0.00  0.00    +0.000 A 
ATOM      9  F   UNL     1      -5.370  12.179  18.377  0.00  0.00    +0.000 F 
ATOM     10  C   UNL     1      -3.033  12.053  18.685  0.00  0.00    +0.000 A 
ATOM     11  C   UNL     1      -1.807  11.397  18.439  0.00  0.00    +0.000 A 
ATOM     12  H   UNL     1      -0.271   9.081  16.837  0.00  0.00    +0.000 HD
ENDBRANCH   1   2
BRANCH   1  13
ATOM     13  C   UNL     1       0.163  13.917  19.521  0.00  0.00    +0.000 A 
ATOM     14  C   UNL     1      -0.841  14.853  19.735  0.00  0.00    +0.000 A 
ATOM     15  N   UNL     1      -0.427  16.069  19.270  0.00  0.00    +0.000 N 
ATOM     16  C   UNL     1       0.835  15.960  18.743  0.00  0.00    +0.000 A 
ATOM     17  C   UNL     1       1.647  16.956  18.185  0.00  0.00    +0.000 A 
ATOM     18  C   UNL     1       2.908  16.572  17.727  0.00  0.00    +0.000 A 
ATOM     19  C   UNL     1       3.317  15.248  17.826  0.00  0.00    +0.000 A 
ATOM     20  F   UNL     1       4.532  14.911  17.373  0.00  0.00    +0.000 F 
ATOM     21  C   UNL     1       2.500  14.263  18.385  0.00  0.00    +0.000 A 
ATOM     22  C   UNL     1       1.226  14.626  18.865  0.00  0.00    +0.000 A 
ATOM     23  H   UNL     1      -0.956  16.929  19.325  0.00  0.00    +0.000 HD
ENDBRANCH   1  13
BRANCH   1  24
ATOM     24  P   UNL     1      -0.773  12.434  21.535  0.00  0.00    +0.000 P 
ATOM     25  O   UNL     1       0.540  12.847  22.240  0.00  0.00    +0.000 OA
BRANCH  24  26
ATOM     26  O   UNL     1      -1.663  12.420  23.018  0.00  0.00    +0.000 OA
BRANCH  26  28
ATOM     27  C   UNL     1      -3.841  12.441  24.177  0.00  0.00    +0.000 C 
ATOM     28  C   UNL     1      -3.100  12.377  22.841  0.00  0.00    +0.000 C 
ATOM     29  C   UNL     1      -3.565  13.515  21.937  0.00  0.00    +0.000 C 
ENDBRANCH  26  28
ENDBRANCH  24  26
BRANCH  24  30
ATOM     30  O   UNL     1      -0.753  10.756  21.565  0.00  0.00    +0.000 OA
BRANCH  30  31
ATOM     31  C   UNL     1       0.313  10.004  22.147  0.00  0.00    +0.000 C 
ATOM     32  C   UNL     1      -0.047   9.494  23.534  0.00  0.00    +0.000 C 
ATOM     33  C   UNL     1       0.662   8.839  21.225  0.00  0.00    +0.000 C 
ENDBRANCH  30  31
ENDBRANCH  24  30
ENDBRANCH   1  24
TORSDOF 7
ENDMDL
MODEL 5
REMARK VINA RESULT:      -7.1      5.476      9.293
REMARK  Name = 
REMARK  11 active torsions:
REMARK  status: ('A' for Active; 'I' for Inactive)
REMARK    1  A    between atoms: C_1  and  C_2
REMARK    2  A    between atoms: C_2  and  C_3
REMARK    3  A    between atoms: C_2  and  O_4
REMARK    4  A    between atoms: O_4  and  P_5
REMARK    5  A    between atoms: P_5  and  O_7
REMARK    6  A    between atoms: P_5  and  C_11
REMARK    7  A    between atoms: O_7  and  C_8
REMARK    8  A    between atoms: C_8  and  C_9
REMARK    9  A    between atoms: C_8  and  C_10
REMARK   10  A    between atoms: C_11  and  C_12
REMARK   11  A    between atoms: C_11  and  C_22
REMARK                            x       y       z     vdW  Elec       q    Type
REMARK                         _______ _______ _______ _____ _____    ______ ____
ROOT
ATOM      1  C   UNL     1      -0.499  12.426  20.151  0.00  0.00    +0.000 C 
ENDROOT
BRANCH   1   2
ATOM      2  C   UNL     1       0.080  11.130  20.717  0.00  0.00    +0.000 A 
ATOM      3  C   UNL     1      -0.122  10.722  22.027  0.00  0.00    +0.000 A 
ATOM      4  N   UNL     1       0.389   9.467  22.188  0.00  0.00    +0.000 N 
ATOM      5  C   UNL     1       0.947   9.028  21.014  0.00  0.00    +0.000 A 
ATOM      6  C   UNL     1       1.528   7.783  20.720  0.00  0.00    +0.000 A 
ATOM      7  C   UNL     1       2.053   7.597  19.443  0.00  0.00    +0.000 A 
ATOM      8  C   UNL     1       2.015   8.631  18.521  0.00  0.00    +0.000 A 
ATOM      9  F   UNL     1       2.551   8.442  17.307  0.00  0.00    +0.000 F 
ATOM     10  C   UNL     1       1.422   9.862  18.817  0.00  0.00    +0.000 A 
ATOM     11  C   UNL     1       0.841  10.073  20.087  0.00  0.00    +0.000 A 
ATOM     12  H   UNL     1       0.344   8.924  23.040  0.00  0.00    +0.000 HD
ENDBRANCH   1   2
BRANCH   1  13
ATOM     13  C   UNL     1      -1.988  12.269  19.814  0.00  0.00    +0.000 A 
ATOM     14  C   UNL     1      -3.069  12.627  20.609  0.00  0.00    +0.000 A 
ATOM     15  N   UNL     1      -4.227  12.413  19.915  0.00  0.00    +0.000 N 
ATOM     16  C   UNL     1      -3.937  11.913  18.671  0.00  0.00    +0.000 A 
ATOM     17  C   UNL     1      -4.812  11.577  17.629  0.00  0.00    +0.000 A 
ATOM     18  C   UNL     1      -4.246  11.092  16.450  0.00  0.00    +0.000 A 
ATOM     19  C   UNL     1      -2.869  10.950  16.339  0.00  0.00    +0.000 A 
ATOM     20  F   UNL     1      -2.358  10.477  15.194  0.00  0.00    +0.000 F 
ATOM     21  C   UNL     1      -2.006  11.287  17.384  0.00  0.00    +0.000 A 
ATOM     22  C   UNL     1      -2.550  11.790  18.582  0.00  0.00    +0.000 A 
ATOM     23  H   UNL     1      -5.158  12.616  20.253  0.00  0.00    +0.000 HD
ENDBRANCH   1  13
BRANCH   1  24
ATOM     24  P   UNL     1      -0.436  13.815  21.342  0.00  0.00    +0.000 P 
ATOM     25  O   UNL     1      -0.571  14.763  20.127  0.00  0.00    +0.000 OA
BRANCH  24  26
ATOM     26  O   UNL     1      -0.377  15.127  22.467  0.00  0.00    +0.000 OA
BRANCH  26  28
ATOM     27  C   UNL     1      -1.779  16.018  24.291  0.00  0.00    +0.000 C 
ATOM     28  C   UNL     1      -0.982  14.831  23.749  0.00  0.00    +0.000 C 
ATOM     29  C   UNL     1      -1.884  13.605  23.647  0.00  0.00    +0.000 C 
ENDBRANCH  26  28
ENDBRANCH  24  26
BRANCH  24  30
ATOM     30  O   UNL     1       1.219  13.614  21.533  0.00  0.00    +0.000 OA
BRANCH  30  31
ATOM     31  C   UNL     1       2.177  14.516  20.980  0.00  0.00    +0.000 C 
ATOM     32  C   UNL     1       3.212  14.942  22.011  0.00  0.00    +0.000 C 
ATOM     33  C   UNL     1       2.858  13.852  19.787  0.00  0.00    +0.000 C 
ENDBRANCH  30  31
ENDBRANCH  24  30
ENDBRANCH   1  24
TORSDOF 7
ENDMDL
MODEL 6
REMARK VINA RESULT:      -7.0      5.439      9.160
REMARK  Name = 
REMARK  11 active torsions:
REMARK  status: ('A' for Active; 'I' for Inactive)
REMARK    1  A    between atoms: C_1  and  C_2
REMARK    2  A    between atoms: C_2  and  C_3
REMARK    3  A    between atoms: C_2  and  O_4
REMARK    4  A    between atoms: O_4  and  P_5
REMARK    5  A    between atoms: P_5  and  O_7
REMARK    6  A    between atoms: P_5  and  C_11
REMARK    7  A    between atoms: O_7  and  C_8
REMARK    8  A    between atoms: C_8  and  C_9
REMARK    9  A    between atoms: C_8  and  C_10
REMARK   10  A    between atoms: C_11  and  C_12
REMARK   11  A    between atoms: C_11  and  C_22
REMARK                            x       y       z     vdW  Elec       q    Type
REMARK                         _______ _______ _______ _____ _____    ______ ____
ROOT
ATOM      1  C   UNL     1      -0.411  12.378  19.399  0.00  0.00    +0.000 C 
ENDROOT
BRANCH   1   2
ATOM      2  C   UNL     1       0.183  11.167  20.118  0.00  0.00    +0.000 A 
ATOM      3  C   UNL     1      -0.021  10.917  21.467  0.00  0.00    +0.000 A 
ATOM      4  N   UNL     1       0.506   9.697  21.779  0.00  0.00    +0.000 N 
ATOM      5  C   UNL     1       1.076   9.128  20.669  0.00  0.00    +0.000 A 
ATOM      6  C   UNL     1       1.675   7.865  20.528  0.00  0.00    +0.000 A 
ATOM      7  C   UNL     1       2.210   7.536  19.284  0.00  0.00    +0.000 A 
ATOM      8  C   UNL     1       2.163   8.450  18.245  0.00  0.00    +0.000 A 
ATOM      9  F   UNL     1       2.709   8.125  17.065  0.00  0.00    +0.000 F 
ATOM     10  C   UNL     1       1.552   9.700  18.389  0.00  0.00    +0.000 A 
ATOM     11  C   UNL     1       0.961  10.053  19.622  0.00  0.00    +0.000 A 
ATOM     12  H   UNL     1       0.463   9.260  22.690  0.00  0.00    +0.000 HD
ENDBRANCH   1   2
BRANCH   1  13
ATOM     13  C   UNL     1      -1.915  12.197  19.154  0.00  0.00    +0.000 A 
ATOM     14  C   UNL     1      -2.952  12.581  19.995  0.00  0.00    +0.000 A 
ATOM     15  N   UNL     1      -4.145  12.331  19.378  0.00  0.00    +0.000 N 
ATOM     16  C   UNL     1      -3.923  11.782  18.141  0.00  0.00    +0.000 A 
ATOM     17  C   UNL     1      -4.852  11.398  17.165  0.00  0.00    +0.000 A 
ATOM     18  C   UNL     1      -4.351  10.868  15.976  0.00  0.00    +0.000 A 
ATOM     19  C   UNL     1      -2.981  10.731  15.793  0.00  0.00    +0.000 A 
ATOM     20  F   UNL     1      -2.532  10.215  14.640  0.00  0.00    +0.000 F 
ATOM     21  C   UNL     1      -2.062  11.116  16.771  0.00  0.00    +0.000 A 
ATOM     22  C   UNL     1      -2.542  11.664  17.977  0.00  0.00    +0.000 A 
ATOM     23  H   UNL     1      -5.058  12.541  19.759  0.00  0.00    +0.000 HD
ENDBRANCH   1  13
BRANCH   1  24
ATOM     24  P   UNL     1      -0.281  13.922  20.374  0.00  0.00    +0.000 P 
ATOM     25  O   UNL     1      -0.774  14.671  19.114  0.00  0.00    +0.000 OA
BRANCH  24  26
ATOM     26  O   UNL     1      -0.157  15.380  21.296  0.00  0.00    +0.000 OA
BRANCH  26  28
ATOM     27  C   UNL     1      -2.160  16.803  21.517  0.00  0.00    +0.000 C 
ATOM     28  C   UNL     1      -0.886  16.497  20.730  0.00  0.00    +0.000 C 
ATOM     29  C   UNL     1      -0.003  17.740  20.669  0.00  0.00    +0.000 C 
ENDBRANCH  26  28
ENDBRANCH  24  26
BRANCH  24  30
ATOM     30  O   UNL     1       1.391  13.909  20.225  0.00  0.00    +0.000 OA
BRANCH  30  31
ATOM     31  C   UNL     1       2.070  14.427  19.080  0.00  0.00    +0.000 C 
ATOM     32  C   UNL     1       2.901  15.654  19.424  0.00  0.00    +0.000 C 
ATOM     33  C   UNL     1       2.955  13.334  18.489  0.00  0.00    +0.000 C 
ENDBRANCH  30  31
ENDBRANCH  24  30
ENDBRANCH   1  24
TORSDOF 7
ENDMDL
MODEL 7
REMARK VINA RESULT:      -6.9      6.505     10.272
REMARK  Name = 
REMARK  11 active torsions:
REMARK  status: ('A' for Active; 'I' for Inactive)
REMARK    1  A    between atoms: C_1  and  C_2
REMARK    2  A    between atoms: C_2  and  C_3
REMARK    3  A    between atoms: C_2  and  O_4
REMARK    4  A    between atoms: O_4  and  P_5
REMARK    5  A    between atoms: P_5  and  O_7
REMARK    6  A    between atoms: P_5  and  C_11
REMARK    7  A    between atoms: O_7  and  C_8
REMARK    8  A    between atoms: C_8  and  C_9
REMARK    9  A    between atoms: C_8  and  C_10
REMARK   10  A    between atoms: C_11  and  C_12
REMARK   11  A    between atoms: C_11  and  C_22
REMARK                            x       y       z     vdW  Elec       q    Type
REMARK                         _______ _______ _______ _____ _____    ______ ____
ROOT
ATOM      1  C   UNL     1      -1.828  12.903  21.094  0.00  0.00    +0.000 C 
ENDROOT
BRANCH   1   2
ATOM      2  C   UNL     1      -1.184  11.672  21.731  0.00  0.00    +0.000 A 
ATOM      3  C   UNL     1      -1.470  11.255  23.023  0.00  0.00    +0.000 A 
ATOM      4  N   UNL     1      -0.859  10.056  23.251  0.00  0.00    +0.000 N 
ATOM      5  C   UNL     1      -0.152   9.665  22.141  0.00  0.00    +0.000 A 
ATOM      6  C   UNL     1       0.571   8.481  21.922  0.00  0.00    +0.000 A 
ATOM      7  C   UNL     1       1.231   8.340  20.703  0.00  0.00    +0.000 A 
ATOM      8  C   UNL     1       1.183   9.359  19.767  0.00  0.00    +0.000 A 
ATOM      9  F   UNL     1       1.848   9.216  18.612  0.00  0.00    +0.000 F 
ATOM     10  C   UNL     1       0.448  10.529  19.987  0.00  0.00    +0.000 A 
ATOM     11  C   UNL     1      -0.269  10.690  21.192  0.00  0.00    +0.000 A 
ATOM     12  H   UNL     1      -0.933   9.516  24.103  0.00  0.00    +0.000 HD
ENDBRANCH   1   2
BRANCH   1  13
ATOM     13  C   UNL     1      -3.175  12.553  20.447  0.00  0.00    +0.000 A 
ATOM     14  C   UNL     1      -4.439  12.732  20.994  0.00  0.00    +0.000 A 
ATOM     15  N   UNL     1      -5.381  12.384  20.068  0.00  0.00    +0.000 N 
ATOM     16  C   UNL     1      -4.768  11.970  18.913  0.00  0.00    +0.000 A 
ATOM     17  C   UNL     1      -5.346  11.551  17.707  0.00  0.00    +0.000 A 
ATOM     18  C   UNL     1      -4.482  11.188  16.674  0.00  0.00    +0.000 A 
ATOM     19  C   UNL     1      -3.106  11.241  16.860  0.00  0.00    +0.000 A 
ATOM     20  F   UNL     1      -2.303  10.882  15.849  0.00  0.00    +0.000 F 
ATOM     21  C   UNL     1      -2.540  11.659  18.066  0.00  0.00    +0.000 A 
ATOM     22  C   UNL     1      -3.390  12.042  19.122  0.00  0.00    +0.000 A 
ATOM     23  H   UNL     1      -6.382  12.445  20.199  0.00  0.00    +0.000 HD
ENDBRANCH   1  13
BRANCH   1  24
ATOM     24  P   UNL     1      -2.224  14.212  22.311  0.00  0.00    +0.000 P 
ATOM     25  O   UNL     1      -2.400  15.170  21.110  0.00  0.00    +0.000 OA
BRANCH  24  26
ATOM     26  O   UNL     1      -2.598  15.449  23.461  0.00  0.00    +0.000 OA
BRANCH  26  28
ATOM     27  C   UNL     1      -5.032  15.643  23.807  0.00  0.00    +0.000 C 
ATOM     28  C   UNL     1      -3.699  15.120  24.342  0.00  0.00    +0.000 C 
ATOM     29  C   UNL     1      -3.784  13.612  24.557  0.00  0.00    +0.000 C 
ENDBRANCH  26  28
ENDBRANCH  24  26
BRANCH  24  30
ATOM     30  O   UNL     1      -0.604  14.356  22.726  0.00  0.00    +0.000 OA
BRANCH  30  31
ATOM     31  C   UNL     1       0.300  15.214  22.029  0.00  0.00    +0.000 C 
ATOM     32  C   UNL     1       0.776  16.364  22.904  0.00  0.00    +0.000 C 
ATOM     33  C   UNL     1       1.489  14.392  21.538  0.00  0.00    +0.000 C 
ENDBRANCH  30  31
ENDBRANCH  24  30
ENDBRANCH   1  24
TORSDOF 7
ENDMDL
MODEL 8
REMARK VINA RESULT:      -6.8      7.283     10.335
REMARK  Name = 
REMARK  11 active torsions:
REMARK  status: ('A' for Active; 'I' for Inactive)
REMARK    1  A    between atoms: C_1  and  C_2
REMARK    2  A    between atoms: C_2  and  C_3
REMARK    3  A    between atoms: C_2  and  O_4
REMARK    4  A    between atoms: O_4  and  P_5
REMARK    5  A    between atoms: P_5  and  O_7
REMARK    6  A    between atoms: P_5  and  C_11
REMARK    7  A    between atoms: O_7  and  C_8
REMARK    8  A    between atoms: C_8  and  C_9
REMARK    9  A    between atoms: C_8  and  C_10
REMARK   10  A    between atoms: C_11  and  C_12
REMARK   11  A    between atoms: C_11  and  C_22
REMARK                            x       y       z     vdW  Elec       q    Type
REMARK                         _______ _______ _______ _____ _____    ______ ____
ROOT
ATOM      1  C   UNL     1      -0.883  12.867  20.106  0.00  0.00    +0.000 C 
ENDROOT
BRANCH   1   2
ATOM      2  C   UNL     1      -2.273  12.507  19.583  0.00  0.00    +0.000 A 
ATOM      3  C   UNL     1      -3.442  12.869  20.237  0.00  0.00    +0.000 A 
ATOM      4  N   UNL     1      -4.511  12.536  19.456  0.00  0.00    +0.000 N 
ATOM      5  C   UNL     1      -4.085  11.942  18.295  0.00  0.00    +0.000 A 
ATOM      6  C   UNL     1      -4.840  11.501  17.196  0.00  0.00    +0.000 A 
ATOM      7  C   UNL     1      -4.159  10.897  16.141  0.00  0.00    +0.000 A 
ATOM      8  C   UNL     1      -2.787  10.725  16.210  0.00  0.00    +0.000 A 
ATOM      9  F   UNL     1      -2.154  10.117  15.197  0.00  0.00    +0.000 F 
ATOM     10  C   UNL     1      -2.040  11.180  17.302  0.00  0.00    +0.000 A 
ATOM     11  C   UNL     1      -2.689  11.835  18.371  0.00  0.00    +0.000 A 
ATOM     12  H   UNL     1      -5.479  12.722  19.684  0.00  0.00    +0.000 HD
ENDBRANCH   1   2
BRANCH   1  13
ATOM     13  C   UNL     1      -0.425  14.231  19.574  0.00  0.00    +0.000 A 
ATOM     14  C   UNL     1      -1.126  15.429  19.628  0.00  0.00    +0.000 A 
ATOM     15  N   UNL     1      -0.340  16.431  19.133  0.00  0.00    +0.000 N 
ATOM     16  C   UNL     1       0.872  15.922  18.743  0.00  0.00    +0.000 A 
ATOM     17  C   UNL     1       1.980  16.592  18.208  0.00  0.00    +0.000 A 
ATOM     18  C   UNL     1       3.106  15.826  17.904  0.00  0.00    +0.000 A 
ATOM     19  C   UNL     1       3.102  14.455  18.124  0.00  0.00    +0.000 A 
ATOM     20  F   UNL     1       4.198  13.748  17.817  0.00  0.00    +0.000 F 
ATOM     21  C   UNL     1       1.992  13.796  18.658  0.00  0.00    +0.000 A 
ATOM     22  C   UNL     1       0.846  14.548  18.984  0.00  0.00    +0.000 A 
ATOM     23  H   UNL     1      -0.599  17.408  19.082  0.00  0.00    +0.000 HD
ENDBRANCH   1  13
BRANCH   1  24
ATOM     24  P   UNL     1      -0.827  13.035  21.927  0.00  0.00    +0.000 P 
ATOM     25  O   UNL     1       0.711  13.133  21.796  0.00  0.00    +0.000 OA
BRANCH  24  26
ATOM     26  O   UNL     1      -0.775  13.195  23.649  0.00  0.00    +0.000 OA
BRANCH  26  28
ATOM     27  C   UNL     1      -0.835  15.661  23.598  0.00  0.00    +0.000 C 
ATOM     28  C   UNL     1      -1.449  14.374  24.151  0.00  0.00    +0.000 C 
ATOM     29  C   UNL     1      -2.937  14.326  23.818  0.00  0.00    +0.000 C 
ENDBRANCH  26  28
ENDBRANCH  24  26
BRANCH  24  30
ATOM     30  O   UNL     1      -1.127  11.395  22.118  0.00  0.00    +0.000 OA
BRANCH  30  31
ATOM     31  C   UNL     1      -0.093  10.411  22.094  0.00  0.00    +0.000 C 
ATOM     32  C   UNL     1      -0.108   9.545  23.345  0.00  0.00    +0.000 C 
ATOM     33  C   UNL     1      -0.255   9.547  20.847  0.00  0.00    +0.000 C 
ENDBRANCH  30  31
ENDBRANCH  24  30
ENDBRANCH   1  24
TORSDOF 7
ENDMDL
MODEL 9
REMARK VINA RESULT:      -6.8      6.265     10.110
REMARK  Name = 
REMARK  11 active torsions:
REMARK  status: ('A' for Active; 'I' for Inactive)
REMARK    1  A    between atoms: C_1  and  C_2
REMARK    2  A    between atoms: C_2  and  C_3
REMARK    3  A    between atoms: C_2  and  O_4
REMARK    4  A    between atoms: O_4  and  P_5
REMARK    5  A    between atoms: P_5  and  O_7
REMARK    6  A    between atoms: P_5  and  C_11
REMARK    7  A    between atoms: O_7  and  C_8
REMARK    8  A    between atoms: C_8  and  C_9
REMARK    9  A    between atoms: C_8  and  C_10
REMARK   10  A    between atoms: C_11  and  C_12
REMARK   11  A    between atoms: C_11  and  C_22
REMARK                            x       y       z     vdW  Elec       q    Type
REMARK                         _______ _______ _______ _____ _____    ______ ____
ROOT
ATOM      1  C   UNL     1      -2.168  13.112  20.132  0.00  0.00    +0.000 C 
ENDROOT
BRANCH   1   2
ATOM      2  C   UNL     1      -1.358  11.850  19.839  0.00  0.00    +0.000 A 
ATOM      3  C   UNL     1      -1.023  11.451  18.552  0.00  0.00    +0.000 A 
ATOM      4  N   UNL     1      -0.180  10.379  18.623  0.00  0.00    +0.000 N 
ATOM      5  C   UNL     1       0.046  10.039  19.932  0.00  0.00    +0.000 A 
ATOM      6  C   UNL     1       0.888   9.044  20.457  0.00  0.00    +0.000 A 
ATOM      7  C   UNL     1       0.916   8.881  21.840  0.00  0.00    +0.000 A 
ATOM      8  C   UNL     1       0.112   9.668  22.648  0.00  0.00    +0.000 A 
ATOM      9  F   UNL     1       0.133   9.476  23.974  0.00  0.00    +0.000 F 
ATOM     10  C   UNL     1      -0.712  10.666  22.118  0.00  0.00    +0.000 A 
ATOM     11  C   UNL     1      -0.736  10.890  20.725  0.00  0.00    +0.000 A 
ATOM     12  H   UNL     1       0.240   9.916  17.829  0.00  0.00    +0.000 HD
ENDBRANCH   1   2
BRANCH   1  13
ATOM     13  C   UNL     1      -3.479  12.775  20.856  0.00  0.00    +0.000 A 
ATOM     14  C   UNL     1      -3.703  12.775  22.227  0.00  0.00    +0.000 A 
ATOM     15  N   UNL     1      -5.022  12.512  22.466  0.00  0.00    +0.000 N 
ATOM     16  C   UNL     1      -5.683  12.331  21.277  0.00  0.00    +0.000 A 
ATOM     17  C   UNL     1      -7.041  12.070  21.053  0.00  0.00    +0.000 A 
ATOM     18  C   UNL     1      -7.458  11.937  19.728  0.00  0.00    +0.000 A 
ATOM     19  C   UNL     1      -6.543  12.058  18.691  0.00  0.00    +0.000 A 
ATOM     20  F   UNL     1      -6.975  11.921  17.429  0.00  0.00    +0.000 F 
ATOM     21  C   UNL     1      -5.191  12.318  18.924  0.00  0.00    +0.000 A 
ATOM     22  C   UNL     1      -4.746  12.467  20.252  0.00  0.00    +0.000 A 
ATOM     23  H   UNL     1      -5.458  12.480  23.378  0.00  0.00    +0.000 HD
ENDBRANCH   1  13
BRANCH   1  24
ATOM     24  P   UNL     1      -1.303  14.271  21.253  0.00  0.00    +0.000 P 
ATOM     25  O   UNL     1      -2.267  15.367  20.741  0.00  0.00    +0.000 OA
BRANCH  24  26
ATOM     26  O   UNL     1      -0.485  15.367  22.313  0.00  0.00    +0.000 OA
BRANCH  26  28
ATOM     27  C   UNL     1      -1.430  14.929  24.550  0.00  0.00    +0.000 C 
ATOM     28  C   UNL     1      -1.321  15.896  23.370  0.00  0.00    +0.000 C 
ATOM     29  C   UNL     1      -0.790  17.243  23.852  0.00  0.00    +0.000 C 
ENDBRANCH  26  28
ENDBRANCH  24  26
BRANCH  24  30
ATOM     30  O   UNL     1       0.009  14.347  20.209  0.00  0.00    +0.000 OA
BRANCH  30  31
ATOM     31  C   UNL     1       1.355  14.483  20.665  0.00  0.00    +0.000 C 
ATOM     32  C   UNL     1       2.113  13.167  20.586  0.00  0.00    +0.000 C 
ATOM     33  C   UNL     1       2.057  15.553  19.835  0.00  0.00    +0.000 C 
ENDBRANCH  30  31
ENDBRANCH  24  30
ENDBRANCH   1  24
TORSDOF 7
ENDMDL
