MODEL 1
REMARK VINA RESULT:      -6.9      0.000      0.000
REMARK  Name = 
REMARK  1 active torsions:
REMARK  status: ('A' for Active; 'I' for Inactive)
REMARK    1  A    between atoms: C_2  and  C_3
REMARK                            x       y       z     vdW  Elec       q    Type
REMARK                         _______ _______ _______ _____ _____    ______ ____
ROOT
ATOM      1  C   UNL     1       6.132   5.352  18.021  0.00  0.00    +0.000 A 
ATOM      2  C   UNL     1       5.956   6.542  17.409  0.00  0.00    +0.000 A 
ATOM      3 CL   UNL     1       7.223   7.360  16.558  0.00  0.00    +0.000 Cl
ATOM      4  C   UNL     1       4.669   7.214  17.432  0.00  0.00    +0.000 A 
ATOM      5  C   UNL     1       3.626   6.650  18.071  0.00  0.00    +0.000 A 
ATOM      6 CL   UNL     1       2.121   7.497  18.063  0.00  0.00    +0.000 Cl
ATOM      7  N   UNL     1       3.802   5.410  18.711  0.00  0.00    +0.000 N 
ATOM      8  C   UNL     1       5.036   4.742  18.704  0.00  0.00    +0.000 A 
ATOM      9  N   UNL     1       4.981   3.604  19.359  0.00  0.00    +0.000 NA
ATOM     10  C   UNL     1       3.697   3.501  19.814  0.00  0.00    +0.000 A 
ATOM     11  C   UNL     1       3.123   2.468  20.571  0.00  0.00    +0.000 A 
ATOM     12  C   UNL     1       1.777   2.560  20.936  0.00  0.00    +0.000 A 
ATOM     13  C   UNL     1       1.018   3.662  20.553  0.00  0.00    +0.000 A 
ATOM     14  C   UNL     1       1.575   4.703  19.797  0.00  0.00    +0.000 A 
ATOM     15  C   UNL     1       2.929   4.602  19.435  0.00  0.00    +0.000 A 
ENDROOT
BRANCH   1  17
ATOM     16  N   UNL     1       8.599   4.070  17.975  0.00  0.00    +0.000 NA
ATOM     17  C   UNL     1       7.481   4.651  17.996  0.00  0.00    +0.000 C 
ENDBRANCH   1  17
TORSDOF 1
ENDMDL
MODEL 2
REMARK VINA RESULT:      -6.7      1.059      1.059
REMARK  Name = 
REMARK  1 active torsions:
REMARK  status: ('A' for Active; 'I' for Inactive)
REMARK    1  A    between atoms: C_2  and  C_3
REMARK                            x       y       z     vdW  Elec       q    Type
REMARK                         _______ _______ _______ _____ _____    ______ ____
ROOT
ATOM      1  C   UNL     1       6.144   5.345  17.837  0.00  0.00    +0.000 A 
ATOM      2  C   UNL     1       6.033   6.666  17.584  0.00  0.00    +0.000 A 
ATOM      3 CL   UNL     1       7.398   7.679  17.251  0.00  0.00    +0.000 Cl
ATOM      4  C   UNL     1       4.738   7.322  17.577  0.00  0.00    +0.000 A 
ATOM      5  C   UNL     1       3.621   6.612  17.825  0.00  0.00    +0.000 A 
ATOM      6 CL   UNL     1       2.111   7.448  17.803  0.00  0.00    +0.000 Cl
ATOM      7  N   UNL     1       3.729   5.234  18.090  0.00  0.00    +0.000 N 
ATOM      8  C   UNL     1       4.969   4.578  18.103  0.00  0.00    +0.000 A 
ATOM      9  N   UNL     1       4.843   3.297  18.371  0.00  0.00    +0.000 NA
ATOM     10  C   UNL     1       3.504   3.086  18.541  0.00  0.00    +0.000 A 
ATOM     11  C   UNL     1       2.845   1.884  18.844  0.00  0.00    +0.000 A 
ATOM     12  C   UNL     1       1.454   1.886  18.977  0.00  0.00    +0.000 A 
ATOM     13  C   UNL     1       0.733   3.065  18.809  0.00  0.00    +0.000 A 
ATOM     14  C   UNL     1       1.374   4.274  18.507  0.00  0.00    +0.000 A 
ATOM     15  C   UNL     1       2.773   4.263  18.376  0.00  0.00    +0.000 A 
ENDROOT
BRANCH   1  17
ATOM     16  N   UNL     1       8.627   4.093  17.849  0.00  0.00    +0.000 NA
ATOM     17  C   UNL     1       7.501   4.661  17.843  0.00  0.00    +0.000 C 
ENDBRANCH   1  17
TORSDOF 1
ENDMDL
MODEL 3
REMARK VINA RESULT:      -6.5      2.811      4.976
REMARK  Name = 
REMARK  1 active torsions:
REMARK  status: ('A' for Active; 'I' for Inactive)
REMARK    1  A    between atoms: C_2  and  C_3
REMARK                            x       y       z     vdW  Elec       q    Type
REMARK                         _______ _______ _______ _____ _____    ______ ____
ROOT
ATOM      1  C   UNL     1       2.983   4.142  20.046  0.00  0.00    +0.000 A 
ATOM      2  C   UNL     1       3.841   3.503  19.223  0.00  0.00    +0.000 A 
ATOM      3 CL   UNL     1       4.353   1.869  19.481  0.00  0.00    +0.000 Cl
ATOM      4  C   UNL     1       4.392   4.165  18.054  0.00  0.00    +0.000 A 
ATOM      5  C   UNL     1       4.049   5.437  17.775  0.00  0.00    +0.000 A 
ATOM      6 CL   UNL     1       4.737   6.170  16.372  0.00  0.00    +0.000 Cl
ATOM      7  N   UNL     1       3.155   6.110  18.629  0.00  0.00    +0.000 N 
ATOM      8  C   UNL     1       2.610   5.492  19.765  0.00  0.00    +0.000 A 
ATOM      9  N   UNL     1       1.802   6.295  20.419  0.00  0.00    +0.000 NA
ATOM     10  C   UNL     1       1.801   7.468  19.719  0.00  0.00    +0.000 A 
ATOM     11  C   UNL     1       1.098   8.649  20.002  0.00  0.00    +0.000 A 
ATOM     12  C   UNL     1       1.239   9.746  19.149  0.00  0.00    +0.000 A 
ATOM     13  C   UNL     1       2.067   9.667  18.032  0.00  0.00    +0.000 A 
ATOM     14  C   UNL     1       2.777   8.496  17.734  0.00  0.00    +0.000 A 
ATOM     15  C   UNL     1       2.629   7.398  18.599  0.00  0.00    +0.000 A 
ENDROOT
BRANCH   1  17
ATOM     16  N   UNL     1       1.930   2.870  22.284  0.00  0.00    +0.000 NA
ATOM     17  C   UNL     1       2.408   3.447  21.269  0.00  0.00    +0.000 C 
ENDBRANCH   1  17
TORSDOF 1
ENDMDL
MODEL 4
REMARK VINA RESULT:      -6.3      2.514      4.421
REMARK  Name = 
REMARK  1 active torsions:
REMARK  status: ('A' for Active; 'I' for Inactive)
REMARK    1  A    between atoms: C_2  and  C_3
REMARK                            x       y       z     vdW  Elec       q    Type
REMARK                         _______ _______ _______ _____ _____    ______ ____
ROOT
ATOM      1  C   UNL     1       1.827   8.066  19.498  0.00  0.00    +0.000 A 
ATOM      2  C   UNL     1       2.370   8.582  18.376  0.00  0.00    +0.000 A 
ATOM      3 CL   UNL     1       2.081  10.206  17.851  0.00  0.00    +0.000 Cl
ATOM      4  C   UNL     1       3.243   7.786  17.531  0.00  0.00    +0.000 A 
ATOM      5  C   UNL     1       3.524   6.511  17.863  0.00  0.00    +0.000 A 
ATOM      6 CL   UNL     1       4.568   5.617  16.819  0.00  0.00    +0.000 Cl
ATOM      7  N   UNL     1       2.961   5.966  19.032  0.00  0.00    +0.000 N 
ATOM      8  C   UNL     1       2.113   6.715  19.863  0.00  0.00    +0.000 A 
ATOM      9  N   UNL     1       1.700   6.016  20.897  0.00  0.00    +0.000 NA
ATOM     10  C   UNL     1       2.273   4.784  20.763  0.00  0.00    +0.000 A 
ATOM     11  C   UNL     1       2.149   3.670  21.608  0.00  0.00    +0.000 A 
ATOM     12  C   UNL     1       2.826   2.492  21.285  0.00  0.00    +0.000 A 
ATOM     13  C   UNL     1       3.614   2.426  20.140  0.00  0.00    +0.000 A 
ATOM     14  C   UNL     1       3.751   3.527  19.284  0.00  0.00    +0.000 A 
ATOM     15  C   UNL     1       3.065   4.708  19.617  0.00  0.00    +0.000 A 
ENDROOT
BRANCH   1  17
ATOM     16  N   UNL     1       0.155   9.592  21.113  0.00  0.00    +0.000 NA
ATOM     17  C   UNL     1       0.913   8.900  20.381  0.00  0.00    +0.000 C 
ENDBRANCH   1  17
TORSDOF 1
ENDMDL
MODEL 5
REMARK VINA RESULT:      -6.2      2.899      5.726
REMARK  Name = 
REMARK  1 active torsions:
REMARK  status: ('A' for Active; 'I' for Inactive)
REMARK    1  A    between atoms: C_2  and  C_3
REMARK                            x       y       z     vdW  Elec       q    Type
REMARK                         _______ _______ _______ _____ _____    ______ ____
ROOT
ATOM      1  C   UNL     1       2.458   4.758  19.798  0.00  0.00    +0.000 A 
ATOM      2  C   UNL     1       2.195   3.525  20.279  0.00  0.00    +0.000 A 
ATOM      3 CL   UNL     1       1.195   3.249  21.665  0.00  0.00    +0.000 Cl
ATOM      4  C   UNL     1       2.746   2.340  19.646  0.00  0.00    +0.000 A 
ATOM      5  C   UNL     1       3.536   2.461  18.561  0.00  0.00    +0.000 A 
ATOM      6 CL   UNL     1       4.161   1.016  17.854  0.00  0.00    +0.000 Cl
ATOM      7  N   UNL     1       3.815   3.744  18.055  0.00  0.00    +0.000 N 
ATOM      8  C   UNL     1       3.294   4.903  18.649  0.00  0.00    +0.000 A 
ATOM      9  N   UNL     1       3.678   5.991  18.019  0.00  0.00    +0.000 NA
ATOM     10  C   UNL     1       4.467   5.562  16.990  0.00  0.00    +0.000 A 
ATOM     11  C   UNL     1       5.125   6.334  16.019  0.00  0.00    +0.000 A 
ATOM     12  C   UNL     1       5.890   5.690  15.042  0.00  0.00    +0.000 A 
ATOM     13  C   UNL     1       5.996   4.303  15.034  0.00  0.00    +0.000 A 
ATOM     14  C   UNL     1       5.346   3.516  15.995  0.00  0.00    +0.000 A 
ATOM     15  C   UNL     1       4.580   4.172  16.974  0.00  0.00    +0.000 A 
ENDROOT
BRANCH   1  17
ATOM     16  N   UNL     1       1.399   7.025  21.013  0.00  0.00    +0.000 NA
ATOM     17  C   UNL     1       1.879   5.997  20.462  0.00  0.00    +0.000 C 
ENDBRANCH   1  17
TORSDOF 1
ENDMDL
MODEL 6
REMARK VINA RESULT:      -6.2      1.930      4.885
REMARK  Name = 
REMARK  1 active torsions:
REMARK  status: ('A' for Active; 'I' for Inactive)
REMARK    1  A    between atoms: C_2  and  C_3
REMARK                            x       y       z     vdW  Elec       q    Type
REMARK                         _______ _______ _______ _____ _____    ______ ____
ROOT
ATOM      1  C   UNL     1       3.996   3.253  19.908  0.00  0.00    +0.000 A 
ATOM      2  C   UNL     1       2.655   3.355  19.799  0.00  0.00    +0.000 A 
ATOM      3 CL   UNL     1       1.563   2.209  20.499  0.00  0.00    +0.000 Cl
ATOM      4  C   UNL     1       2.044   4.454  19.073  0.00  0.00    +0.000 A 
ATOM      5  C   UNL     1       2.817   5.393  18.495  0.00  0.00    +0.000 A 
ATOM      6 CL   UNL     1       2.032   6.675  17.646  0.00  0.00    +0.000 Cl
ATOM      7  N   UNL     1       4.216   5.293  18.605  0.00  0.00    +0.000 N 
ATOM      8  C   UNL     1       4.830   4.240  19.300  0.00  0.00    +0.000 A 
ATOM      9  N   UNL     1       6.140   4.338  19.280  0.00  0.00    +0.000 NA
ATOM     10  C   UNL     1       6.415   5.468  18.563  0.00  0.00    +0.000 A 
ATOM     11  C   UNL     1       7.669   6.017  18.252  0.00  0.00    +0.000 A 
ATOM     12  C   UNL     1       7.729   7.193  17.499  0.00  0.00    +0.000 A 
ATOM     13  C   UNL     1       6.559   7.810  17.065  0.00  0.00    +0.000 A 
ATOM     14  C   UNL     1       5.299   7.276  17.366  0.00  0.00    +0.000 A 
ATOM     15  C   UNL     1       5.248   6.093  18.124  0.00  0.00    +0.000 A 
ENDROOT
BRANCH   1  17
ATOM     16  N   UNL     1       5.163   1.146  21.300  0.00  0.00    +0.000 NA
ATOM     17  C   UNL     1       4.634   2.101  20.669  0.00  0.00    +0.000 C 
ENDBRANCH   1  17
TORSDOF 1
ENDMDL
MODEL 7
REMARK VINA RESULT:      -6.1      2.667      5.461
REMARK  Name = 
REMARK  1 active torsions:
REMARK  status: ('A' for Active; 'I' for Inactive)
REMARK    1  A    between atoms: C_2  and  C_3
REMARK                            x       y       z     vdW  Elec       q    Type
REMARK                         _______ _______ _______ _____ _____    ______ ____
ROOT
ATOM      1  C   UNL     1       2.634   7.389  18.746  0.00  0.00    +0.000 A 
ATOM      2  C   UNL     1       2.222   6.777  19.876  0.00  0.00    +0.000 A 
ATOM      3 CL   UNL     1       1.166   7.529  21.023  0.00  0.00    +0.000 Cl
ATOM      4  C   UNL     1       2.652   5.427  20.196  0.00  0.00    +0.000 A 
ATOM      5  C   UNL     1       3.475   4.765  19.361  0.00  0.00    +0.000 A 
ATOM      6 CL   UNL     1       3.950   3.164  19.797  0.00  0.00    +0.000 Cl
ATOM      7  N   UNL     1       3.908   5.397  18.181  0.00  0.00    +0.000 N 
ATOM      8  C   UNL     1       3.507   6.701  17.849  0.00  0.00    +0.000 A 
ATOM      9  N   UNL     1       4.026   7.097  16.709  0.00  0.00    +0.000 NA
ATOM     10  C   UNL     1       4.785   6.052  16.265  0.00  0.00    +0.000 A 
ATOM     11  C   UNL     1       5.548   5.969  15.090  0.00  0.00    +0.000 A 
ATOM     12  C   UNL     1       6.258   4.796  14.821  0.00  0.00    +0.000 A 
ATOM     13  C   UNL     1       6.208   3.725  15.709  0.00  0.00    +0.000 A 
ATOM     14  C   UNL     1       5.452   3.790  16.887  0.00  0.00    +0.000 A 
ATOM     15  C   UNL     1       4.741   4.974  17.149  0.00  0.00    +0.000 A 
ENDROOT
BRANCH   1  17
ATOM     16  N   UNL     1       1.809   9.974  18.135  0.00  0.00    +0.000 NA
ATOM     17  C   UNL     1       2.183   8.802  18.412  0.00  0.00    +0.000 C 
ENDBRANCH   1  17
TORSDOF 1
ENDMDL
MODEL 8
REMARK VINA RESULT:      -6.0      2.064      4.893
REMARK  Name = 
REMARK  1 active torsions:
REMARK  status: ('A' for Active; 'I' for Inactive)
REMARK    1  A    between atoms: C_2  and  C_3
REMARK                            x       y       z     vdW  Elec       q    Type
REMARK                         _______ _______ _______ _____ _____    ______ ____
ROOT
ATOM      1  C   UNL     1       3.939   2.974  20.253  0.00  0.00    +0.000 A 
ATOM      2  C   UNL     1       2.639   3.230  20.513  0.00  0.00    +0.000 A 
ATOM      3 CL   UNL     1       1.738   2.384  21.726  0.00  0.00    +0.000 Cl
ATOM      4  C   UNL     1       1.914   4.248  19.775  0.00  0.00    +0.000 A 
ATOM      5  C   UNL     1       2.536   4.956  18.813  0.00  0.00    +0.000 A 
ATOM      6 CL   UNL     1       1.619   6.152  17.971  0.00  0.00    +0.000 Cl
ATOM      7  N   UNL     1       3.890   4.695  18.536  0.00  0.00    +0.000 N 
ATOM      8  C   UNL     1       4.613   3.716  19.235  0.00  0.00    +0.000 A 
ATOM      9  N   UNL     1       5.857   3.636  18.820  0.00  0.00    +0.000 NA
ATOM     10  C   UNL     1       5.977   4.569  17.830  0.00  0.00    +0.000 A 
ATOM     11  C   UNL     1       7.109   4.883  17.062  0.00  0.00    +0.000 A 
ATOM     12  C   UNL     1       7.017   5.883  16.090  0.00  0.00    +0.000 A 
ATOM     13  C   UNL     1       5.817   6.558  15.889  0.00  0.00    +0.000 A 
ATOM     14  C   UNL     1       4.676   6.259  16.645  0.00  0.00    +0.000 A 
ATOM     15  C   UNL     1       4.778   5.251  17.620  0.00  0.00    +0.000 A 
ENDROOT
BRANCH   1  17
ATOM     16  N   UNL     1       5.326   1.024  21.669  0.00  0.00    +0.000 NA
ATOM     17  C   UNL     1       4.697   1.908  21.027  0.00  0.00    +0.000 C 
ENDBRANCH   1  17
TORSDOF 1
ENDMDL
MODEL 9
REMARK VINA RESULT:      -6.0      1.660      1.662
REMARK  Name = 
REMARK  1 active torsions:
REMARK  status: ('A' for Active; 'I' for Inactive)
REMARK    1  A    between atoms: C_2  and  C_3
REMARK                            x       y       z     vdW  Elec       q    Type
REMARK                         _______ _______ _______ _____ _____    ______ ____
ROOT
ATOM      1  C   UNL     1       4.742   5.091  16.824  0.00  0.00    +0.000 A 
ATOM      2  C   UNL     1       4.501   6.393  16.562  0.00  0.00    +0.000 A 
ATOM      3 CL   UNL     1       5.142   7.209  15.176  0.00  0.00    +0.000 Cl
ATOM      4  C   UNL     1       3.676   7.195  17.447  0.00  0.00    +0.000 A 
ATOM      5  C   UNL     1       3.136   6.642  18.551  0.00  0.00    +0.000 A 
ATOM      6 CL   UNL     1       2.164   7.647  19.564  0.00  0.00    +0.000 Cl
ATOM      7  N   UNL     1       3.383   5.285  18.830  0.00  0.00    +0.000 N 
ATOM      8  C   UNL     1       4.178   4.490  17.990  0.00  0.00    +0.000 A 
ATOM      9  N   UNL     1       4.278   3.258  18.435  0.00  0.00    +0.000 NA
ATOM     10  C   UNL     1       3.545   3.219  19.586  0.00  0.00    +0.000 A 
ATOM     11  C   UNL     1       3.331   2.130  20.446  0.00  0.00    +0.000 A 
ATOM     12  C   UNL     1       2.540   2.306  21.584  0.00  0.00    +0.000 A 
ATOM     13  C   UNL     1       1.970   3.546  21.858  0.00  0.00    +0.000 A 
ATOM     14  C   UNL     1       2.172   4.645  21.012  0.00  0.00    +0.000 A 
ATOM     15  C   UNL     1       2.971   4.458  19.871  0.00  0.00    +0.000 A 
ENDROOT
BRANCH   1  17
ATOM     16  N   UNL     1       6.324   3.558  15.126  0.00  0.00    +0.000 NA
ATOM     17  C   UNL     1       5.607   4.253  15.896  0.00  0.00    +0.000 C 
ENDBRANCH   1  17
TORSDOF 1
ENDMDL
