MODEL 1
REMARK VINA RESULT:      -7.2      0.000      0.000
REMARK  Name = 
REMARK  3 active torsions:
REMARK  status: ('A' for Active; 'I' for Inactive)
REMARK    1  A    between atoms: C_1  and  N_2
REMARK    2  A    between atoms: C_6  and  C_7
REMARK    3  A    between atoms: C_12  and  N_13
REMARK                            x       y       z     vdW  Elec       q    Type
REMARK                         _______ _______ _______ _____ _____    ______ ____
ROOT
ATOM      1  C   UNL     1       0.977   9.172  19.450  0.00  0.00    +0.000 C 
ATOM      2  O   UNL     1       0.443   9.156  20.565  0.00  0.00    +0.000 OA
ATOM      3  N   UNL     1       1.976   8.263  19.111  0.00  0.00    +0.000 N 
ATOM      4  C   UNL     1       2.941   8.483  18.049  0.00  0.00    +0.000 C 
ATOM      5  C   UNL     1       3.019   7.274  17.130  0.00  0.00    +0.000 C 
ATOM      6  C   UNL     1       3.189   5.939  17.881  0.00  0.00    +0.000 C 
ATOM      7  C   UNL     1       2.177   5.836  19.039  0.00  0.00    +0.000 C 
ATOM      8  C   UNL     1       2.199   7.076  19.934  0.00  0.00    +0.000 C 
ENDROOT
BRANCH   6   9
ATOM      9  N   UNL     1       4.548   5.613  18.309  0.00  0.00    +0.000 N 
ATOM     10  C   UNL     1       5.047   5.707  19.590  0.00  0.00    +0.000 A 
ATOM     11  N   UNL     1       6.293   5.297  19.689  0.00  0.00    +0.000 NA
ATOM     12  C   UNL     1       6.651   4.958  18.415  0.00  0.00    +0.000 A 
ATOM     13  C   UNL     1       7.858   4.476  17.885  0.00  0.00    +0.000 A 
ATOM     14  N   UNL     1       8.027   4.210  16.554  0.00  0.00    +0.000 NA
ATOM     15  C   UNL     1       6.946   4.444  15.789  0.00  0.00    +0.000 A 
ATOM     16  N   UNL     1       6.839   4.277  14.438  0.00  0.00    +0.000 N 
ATOM     17  C   UNL     1       5.565   4.623  14.031  0.00  0.00    +0.000 A 
ATOM     18  C   UNL     1       4.835   5.019  15.141  0.00  0.00    +0.000 A 
ATOM     19  C   UNL     1       5.727   4.905  16.233  0.00  0.00    +0.000 A 
ATOM     20  C   UNL     1       5.580   5.164  17.562  0.00  0.00    +0.000 A 
ATOM     21  H   UNL     1       7.593   3.953  13.851  0.00  0.00    +0.000 HD
ENDBRANCH   6   9
BRANCH   1  27
ATOM     22  C   UNL     1       1.752  12.138  19.051  0.00  0.00    +0.000 C 
ATOM     23  N   UNL     1       0.517  11.545  18.592  0.00  0.00    +0.000 NA
ATOM     24  C   UNL     1      -0.622  11.826  19.459  0.00  0.00    +0.000 C 
ATOM     25  C   UNL     1      -1.727  11.006  18.815  0.00  0.00    +0.000 C 
ATOM     26  C   UNL     1      -1.020   9.863  18.092  0.00  0.00    +0.000 C 
ATOM     27  C   UNL     1       0.477  10.100  18.314  0.00  0.00    +0.000 C 
ENDBRANCH   1  27
TORSDOF 2
ENDMDL
MODEL 2
REMARK VINA RESULT:      -6.6      2.845      5.344
REMARK  Name = 
REMARK  3 active torsions:
REMARK  status: ('A' for Active; 'I' for Inactive)
REMARK    1  A    between atoms: C_1  and  N_2
REMARK    2  A    between atoms: C_6  and  C_7
REMARK    3  A    between atoms: C_12  and  N_13
REMARK                            x       y       z     vdW  Elec       q    Type
REMARK                         _______ _______ _______ _____ _____    ______ ____
ROOT
ATOM      1  C   UNL     1      -0.734  12.794  21.840  0.00  0.00    +0.000 C 
ATOM      2  O   UNL     1      -0.011  13.480  22.571  0.00  0.00    +0.000 OA
ATOM      3  N   UNL     1      -0.215  11.745  21.085  0.00  0.00    +0.000 N 
ATOM      4  C   UNL     1      -0.862  11.203  19.903  0.00  0.00    +0.000 C 
ATOM      5  C   UNL     1      -0.948   9.687  19.979  0.00  0.00    +0.000 C 
ATOM      6  C   UNL     1       0.389   9.012  20.341  0.00  0.00    +0.000 C 
ATOM      7  C   UNL     1       1.037   9.708  21.554  0.00  0.00    +0.000 C 
ATOM      8  C   UNL     1       1.120  11.225  21.370  0.00  0.00    +0.000 C 
ENDROOT
BRANCH   6   9
ATOM      9  N   UNL     1       1.335   8.833  19.242  0.00  0.00    +0.000 N 
ATOM     10  C   UNL     1       1.582   9.724  18.220  0.00  0.00    +0.000 A 
ATOM     11  N   UNL     1       2.524   9.318  17.398  0.00  0.00    +0.000 NA
ATOM     12  C   UNL     1       2.888   8.087  17.865  0.00  0.00    +0.000 A 
ATOM     13  C   UNL     1       3.827   7.154  17.397  0.00  0.00    +0.000 A 
ATOM     14  N   UNL     1       4.035   5.947  18.004  0.00  0.00    +0.000 NA
ATOM     15  C   UNL     1       3.272   5.720  19.088  0.00  0.00    +0.000 A 
ATOM     16  N   UNL     1       3.264   4.602  19.873  0.00  0.00    +0.000 N 
ATOM     17  C   UNL     1       2.342   4.759  20.888  0.00  0.00    +0.000 A 
ATOM     18  C   UNL     1       1.743   6.003  20.758  0.00  0.00    +0.000 A 
ATOM     19  C   UNL     1       2.340   6.585  19.614  0.00  0.00    +0.000 A 
ATOM     20  C   UNL     1       2.147   7.782  18.994  0.00  0.00    +0.000 A 
ATOM     21  H   UNL     1       3.851   3.797  19.710  0.00  0.00    +0.000 HD
ENDBRANCH   6   9
BRANCH   1  27
ATOM     22  C   UNL     1      -2.286  15.318  20.956  0.00  0.00    +0.000 C 
ATOM     23  N   UNL     1      -2.782  14.337  21.895  0.00  0.00    +0.000 NA
ATOM     24  C   UNL     1      -2.653  14.748  23.288  0.00  0.00    +0.000 C 
ATOM     25  C   UNL     1      -3.132  13.513  24.034  0.00  0.00    +0.000 C 
ATOM     26  C   UNL     1      -2.861  12.339  23.097  0.00  0.00    +0.000 C 
ATOM     27  C   UNL     1      -2.275  12.957  21.822  0.00  0.00    +0.000 C 
ENDBRANCH   1  27
TORSDOF 2
ENDMDL
MODEL 3
REMARK VINA RESULT:      -6.5      2.872      8.687
REMARK  Name = 
REMARK  3 active torsions:
REMARK  status: ('A' for Active; 'I' for Inactive)
REMARK    1  A    between atoms: C_1  and  N_2
REMARK    2  A    between atoms: C_6  and  C_7
REMARK    3  A    between atoms: C_12  and  N_13
REMARK                            x       y       z     vdW  Elec       q    Type
REMARK                         _______ _______ _______ _____ _____    ______ ____
ROOT
ATOM      1  C   UNL     1       2.917   6.491  18.462  0.00  0.00    +0.000 C 
ATOM      2  O   UNL     1       3.436   6.303  17.356  0.00  0.00    +0.000 OA
ATOM      3  N   UNL     1       2.433   7.743  18.833  0.00  0.00    +0.000 N 
ATOM      4  C   UNL     1       2.239   8.158  20.211  0.00  0.00    +0.000 C 
ATOM      5  C   UNL     1       0.853   8.754  20.406  0.00  0.00    +0.000 C 
ATOM      6  C   UNL     1       0.491   9.826  19.360  0.00  0.00    +0.000 C 
ATOM      7  C   UNL     1       0.810   9.324  17.938  0.00  0.00    +0.000 C 
ATOM      8  C   UNL     1       2.236   8.783  17.825  0.00  0.00    +0.000 C 
ENDROOT
BRANCH   6   9
ATOM      9  N   UNL     1       1.024  11.165  19.602  0.00  0.00    +0.000 N 
ATOM     10  C   UNL     1       2.032  11.784  18.896  0.00  0.00    +0.000 A 
ATOM     11  N   UNL     1       2.270  13.011  19.305  0.00  0.00    +0.000 NA
ATOM     12  C   UNL     1       1.416  13.200  20.354  0.00  0.00    +0.000 A 
ATOM     13  C   UNL     1       1.218  14.297  21.207  0.00  0.00    +0.000 A 
ATOM     14  N   UNL     1       0.311  14.284  22.230  0.00  0.00    +0.000 NA
ATOM     15  C   UNL     1      -0.381  13.138  22.358  0.00  0.00    +0.000 A 
ATOM     16  N   UNL     1      -1.334  12.848  23.292  0.00  0.00    +0.000 N 
ATOM     17  C   UNL     1      -1.808  11.568  23.085  0.00  0.00    +0.000 A 
ATOM     18  C   UNL     1      -1.151  11.020  21.994  0.00  0.00    +0.000 A 
ATOM     19  C   UNL     1      -0.253  12.025  21.559  0.00  0.00    +0.000 A 
ATOM     20  C   UNL     1       0.656  12.058  20.546  0.00  0.00    +0.000 A 
ATOM     21  H   UNL     1      -1.625  13.489  24.016  0.00  0.00    +0.000 HD
ENDBRANCH   6   9
BRANCH   1  27
ATOM     22  C   UNL     1       4.957   4.356  19.376  0.00  0.00    +0.000 C 
ATOM     23  N   UNL     1       3.526   4.158  19.336  0.00  0.00    +0.000 NA
ATOM     24  C   UNL     1       3.074   3.411  18.167  0.00  0.00    +0.000 C 
ATOM     25  C   UNL     1       1.562   3.454  18.323  0.00  0.00    +0.000 C 
ATOM     26  C   UNL     1       1.270   4.715  19.130  0.00  0.00    +0.000 C 
ATOM     27  C   UNL     1       2.639   5.327  19.447  0.00  0.00    +0.000 C 
ENDBRANCH   1  27
TORSDOF 2
ENDMDL
MODEL 4
REMARK VINA RESULT:      -6.4      3.186      9.504
REMARK  Name = 
REMARK  3 active torsions:
REMARK  status: ('A' for Active; 'I' for Inactive)
REMARK    1  A    between atoms: C_1  and  N_2
REMARK    2  A    between atoms: C_6  and  C_7
REMARK    3  A    between atoms: C_12  and  N_13
REMARK                            x       y       z     vdW  Elec       q    Type
REMARK                         _______ _______ _______ _____ _____    ______ ____
ROOT
ATOM      1  C   UNL     1       2.177   7.170  19.351  0.00  0.00    +0.000 C 
ATOM      2  O   UNL     1       2.368   7.076  18.133  0.00  0.00    +0.000 OA
ATOM      3  N   UNL     1       1.705   8.348  19.923  0.00  0.00    +0.000 N 
ATOM      4  C   UNL     1       1.879   8.693  21.323  0.00  0.00    +0.000 C 
ATOM      5  C   UNL     1       0.560   9.127  21.942  0.00  0.00    +0.000 C 
ATOM      6  C   UNL     1      -0.191  10.186  21.112  0.00  0.00    +0.000 C 
ATOM      7  C   UNL     1      -0.252   9.770  19.629  0.00  0.00    +0.000 C 
ATOM      8  C   UNL     1       1.125   9.392  19.081  0.00  0.00    +0.000 C 
ENDROOT
BRANCH   6   9
ATOM      9  N   UNL     1       0.259  11.567  21.276  0.00  0.00    +0.000 N 
ATOM     10  C   UNL     1       1.404  12.123  20.749  0.00  0.00    +0.000 A 
ATOM     11  N   UNL     1       1.528  13.404  21.020  0.00  0.00    +0.000 NA
ATOM     12  C   UNL     1       0.443  13.702  21.795  0.00  0.00    +0.000 A 
ATOM     13  C   UNL     1       0.038  14.899  22.406  0.00  0.00    +0.000 A 
ATOM     14  N   UNL     1      -1.090  14.992  23.174  0.00  0.00    +0.000 NA
ATOM     15  C   UNL     1      -1.785  13.847  23.298  0.00  0.00    +0.000 A 
ATOM     16  N   UNL     1      -2.934  13.652  24.010  0.00  0.00    +0.000 N 
ATOM     17  C   UNL     1      -3.336  12.337  23.884  0.00  0.00    +0.000 A 
ATOM     18  C   UNL     1      -2.430  11.669  23.074  0.00  0.00    +0.000 A 
ATOM     19  C   UNL     1      -1.460  12.639  22.724  0.00  0.00    +0.000 A 
ATOM     20  C   UNL     1      -0.332  12.568  21.964  0.00  0.00    +0.000 A 
ATOM     21  H   UNL     1      -3.396  14.375  24.541  0.00  0.00    +0.000 HD
ENDBRANCH   6   9
BRANCH   1  27
ATOM     22  C   UNL     1       4.607   5.267  19.539  0.00  0.00    +0.000 C 
ATOM     23  N   UNL     1       3.250   4.900  19.877  0.00  0.00    +0.000 NA
ATOM     24  C   UNL     1       2.574   4.141  18.830  0.00  0.00    +0.000 C 
ATOM     25  C   UNL     1       1.170   3.997  19.393  0.00  0.00    +0.000 C 
ATOM     26  C   UNL     1       0.980   5.188  20.327  0.00  0.00    +0.000 C 
ATOM     27  C   UNL     1       2.309   5.950  20.299  0.00  0.00    +0.000 C 
ENDBRANCH   1  27
TORSDOF 2
ENDMDL
MODEL 5
REMARK VINA RESULT:      -6.4      2.553      8.980
REMARK  Name = 
REMARK  3 active torsions:
REMARK  status: ('A' for Active; 'I' for Inactive)
REMARK    1  A    between atoms: C_1  and  N_2
REMARK    2  A    between atoms: C_6  and  C_7
REMARK    3  A    between atoms: C_12  and  N_13
REMARK                            x       y       z     vdW  Elec       q    Type
REMARK                         _______ _______ _______ _____ _____    ______ ____
ROOT
ATOM      1  C   UNL     1       2.873   7.109  18.400  0.00  0.00    +0.000 C 
ATOM      2  O   UNL     1       3.515   7.233  17.351  0.00  0.00    +0.000 OA
ATOM      3  N   UNL     1       2.191   8.183  18.965  0.00  0.00    +0.000 N 
ATOM      4  C   UNL     1       1.812   8.254  20.365  0.00  0.00    +0.000 C 
ATOM      5  C   UNL     1       0.347   8.632  20.511  0.00  0.00    +0.000 C 
ATOM      6  C   UNL     1      -0.057   9.864  19.678  0.00  0.00    +0.000 C 
ATOM      7  C   UNL     1       0.460   9.734  18.232  0.00  0.00    +0.000 C 
ATOM      8  C   UNL     1       1.951   9.394  18.183  0.00  0.00    +0.000 C 
ENDROOT
BRANCH   6   9
ATOM      9  N   UNL     1       0.264  11.166  20.260  0.00  0.00    +0.000 N 
ATOM     10  C   UNL     1       1.485  11.557  20.766  0.00  0.00    +0.000 A 
ATOM     11  N   UNL     1       1.495  12.805  21.180  0.00  0.00    +0.000 NA
ATOM     12  C   UNL     1       0.218  13.248  20.982  0.00  0.00    +0.000 A 
ATOM     13  C   UNL     1      -0.389  14.486  21.249  0.00  0.00    +0.000 A 
ATOM     14  N   UNL     1      -1.710  14.732  20.992  0.00  0.00    +0.000 NA
ATOM     15  C   UNL     1      -2.385  13.697  20.462  0.00  0.00    +0.000 A 
ATOM     16  N   UNL     1      -3.707  13.661  20.121  0.00  0.00    +0.000 N 
ATOM     17  C   UNL     1      -4.016  12.417  19.607  0.00  0.00    +0.000 A 
ATOM     18  C   UNL     1      -2.872  11.635  19.614  0.00  0.00    +0.000 A 
ATOM     19  C   UNL     1      -1.861  12.459  20.163  0.00  0.00    +0.000 A 
ATOM     20  C   UNL     1      -0.544  12.235  20.427  0.00  0.00    +0.000 A 
ATOM     21  H   UNL     1      -4.339  14.438  20.241  0.00  0.00    +0.000 HD
ENDBRANCH   6   9
BRANCH   1  27
ATOM     22  C   UNL     1       5.104   5.198  19.365  0.00  0.00    +0.000 C 
ATOM     23  N   UNL     1       3.780   4.777  18.966  0.00  0.00    +0.000 NA
ATOM     24  C   UNL     1       3.725   4.236  17.613  0.00  0.00    +0.000 C 
ATOM     25  C   UNL     1       2.236   3.990  17.425  0.00  0.00    +0.000 C 
ATOM     26  C   UNL     1       1.538   4.981  18.352  0.00  0.00    +0.000 C 
ATOM     27  C   UNL     1       2.663   5.730  19.076  0.00  0.00    +0.000 C 
ENDBRANCH   1  27
TORSDOF 2
ENDMDL
MODEL 6
REMARK VINA RESULT:      -6.3      8.114      8.736
REMARK  Name = 
REMARK  3 active torsions:
REMARK  status: ('A' for Active; 'I' for Inactive)
REMARK    1  A    between atoms: C_1  and  N_2
REMARK    2  A    between atoms: C_6  and  C_7
REMARK    3  A    between atoms: C_12  and  N_13
REMARK                            x       y       z     vdW  Elec       q    Type
REMARK                         _______ _______ _______ _____ _____    ______ ____
ROOT
ATOM      1  C   UNL     1       3.697  15.675  18.111  0.00  0.00    +0.000 C 
ATOM      2  O   UNL     1       2.926  14.823  17.654  0.00  0.00    +0.000 OA
ATOM      3  N   UNL     1       4.984  15.342  18.525  0.00  0.00    +0.000 N 
ATOM      4  C   UNL     1       5.764  16.136  19.458  0.00  0.00    +0.000 C 
ATOM      5  C   UNL     1       7.161  16.391  18.915  0.00  0.00    +0.000 C 
ATOM      6  C   UNL     1       7.869  15.116  18.415  0.00  0.00    +0.000 C 
ATOM      7  C   UNL     1       6.934  14.301  17.501  0.00  0.00    +0.000 C 
ATOM      8  C   UNL     1       5.568  14.057  18.146  0.00  0.00    +0.000 C 
ENDROOT
BRANCH   6   9
ATOM      9  N   UNL     1       8.495  14.285  19.442  0.00  0.00    +0.000 N 
ATOM     10  C   UNL     1       8.052  14.109  20.734  0.00  0.00    +0.000 A 
ATOM     11  N   UNL     1       8.789  13.263  21.421  0.00  0.00    +0.000 NA
ATOM     12  C   UNL     1       9.787  12.896  20.564  0.00  0.00    +0.000 A 
ATOM     13  C   UNL     1      10.885  12.036  20.729  0.00  0.00    +0.000 A 
ATOM     14  N   UNL     1      11.801  11.809  19.739  0.00  0.00    +0.000 NA
ATOM     15  C   UNL     1      11.570  12.472  18.592  0.00  0.00    +0.000 A 
ATOM     16  N   UNL     1      12.324  12.440  17.454  0.00  0.00    +0.000 N 
ATOM     17  C   UNL     1      11.751  13.256  16.499  0.00  0.00    +0.000 A 
ATOM     18  C   UNL     1      10.603  13.825  17.030  0.00  0.00    +0.000 A 
ATOM     19  C   UNL     1      10.515  13.322  18.349  0.00  0.00    +0.000 A 
ATOM     20  C   UNL     1       9.614  13.535  19.348  0.00  0.00    +0.000 A 
ATOM     21  H   UNL     1      13.169  11.897  17.354  0.00  0.00    +0.000 HD
ENDBRANCH   6   9
BRANCH   1  27
ATOM     22  C   UNL     1       2.765  17.312  20.562  0.00  0.00    +0.000 C 
ATOM     23  N   UNL     1       2.440  17.633  19.191  0.00  0.00    +0.000 NA
ATOM     24  C   UNL     1       1.098  17.215  18.798  0.00  0.00    +0.000 C 
ATOM     25  C   UNL     1       1.073  17.563  17.319  0.00  0.00    +0.000 C 
ATOM     26  C   UNL     1       2.528  17.516  16.863  0.00  0.00    +0.000 C 
ATOM     27  C   UNL     1       3.342  17.184  18.118  0.00  0.00    +0.000 C 
ENDBRANCH   1  27
TORSDOF 2
ENDMDL
MODEL 7
REMARK VINA RESULT:      -6.3      5.245      8.521
REMARK  Name = 
REMARK  3 active torsions:
REMARK  status: ('A' for Active; 'I' for Inactive)
REMARK    1  A    between atoms: C_1  and  N_2
REMARK    2  A    between atoms: C_6  and  C_7
REMARK    3  A    between atoms: C_12  and  N_13
REMARK                            x       y       z     vdW  Elec       q    Type
REMARK                         _______ _______ _______ _____ _____    ______ ____
ROOT
ATOM      1  C   UNL     1      -4.591  13.690  22.184  0.00  0.00    +0.000 C 
ATOM      2  O   UNL     1      -5.336  14.069  21.273  0.00  0.00    +0.000 OA
ATOM      3  N   UNL     1      -3.402  13.017  21.918  0.00  0.00    +0.000 N 
ATOM      4  C   UNL     1      -2.723  12.166  22.878  0.00  0.00    +0.000 C 
ATOM      5  C   UNL     1      -1.248  12.523  22.970  0.00  0.00    +0.000 C 
ATOM      6  C   UNL     1      -0.552  12.620  21.599  0.00  0.00    +0.000 C 
ATOM      7  C   UNL     1      -1.388  13.474  20.625  0.00  0.00    +0.000 C 
ATOM      8  C   UNL     1      -2.846  13.015  20.566  0.00  0.00    +0.000 C 
ENDROOT
BRANCH   6   9
ATOM      9  N   UNL     1      -0.135  11.354  20.999  0.00  0.00    +0.000 N 
ATOM     10  C   UNL     1      -0.500  10.093  21.415  0.00  0.00    +0.000 A 
ATOM     11  N   UNL     1      -0.012   9.138  20.654  0.00  0.00    +0.000 NA
ATOM     12  C   UNL     1       0.744   9.788  19.721  0.00  0.00    +0.000 A 
ATOM     13  C   UNL     1       1.524   9.307  18.657  0.00  0.00    +0.000 A 
ATOM     14  N   UNL     1       2.235  10.133  17.831  0.00  0.00    +0.000 NA
ATOM     15  C   UNL     1       2.129  11.443  18.113  0.00  0.00    +0.000 A 
ATOM     16  N   UNL     1       2.736  12.480  17.463  0.00  0.00    +0.000 N 
ATOM     17  C   UNL     1       2.371  13.672  18.055  0.00  0.00    +0.000 A 
ATOM     18  C   UNL     1       1.510  13.401  19.108  0.00  0.00    +0.000 A 
ATOM     19  C   UNL     1       1.379  11.992  19.128  0.00  0.00    +0.000 A 
ATOM     20  C   UNL     1       0.679  11.153  19.940  0.00  0.00    +0.000 A 
ATOM     21  H   UNL     1       3.356  12.363  16.675  0.00  0.00    +0.000 HD
ENDBRANCH   6   9
BRANCH   1  27
ATOM     22  C   UNL     1      -6.871  12.593  23.961  0.00  0.00    +0.000 C 
ATOM     23  N   UNL     1      -6.230  13.875  24.149  0.00  0.00    +0.000 NA
ATOM     24  C   UNL     1      -7.004  14.995  23.626  0.00  0.00    +0.000 C 
ATOM     25  C   UNL     1      -6.064  16.168  23.850  0.00  0.00    +0.000 C 
ATOM     26  C   UNL     1      -4.659  15.573  23.847  0.00  0.00    +0.000 C 
ATOM     27  C   UNL     1      -4.852  14.063  23.666  0.00  0.00    +0.000 C 
ENDBRANCH   1  27
TORSDOF 2
ENDMDL
MODEL 8
REMARK VINA RESULT:      -6.3      2.004      8.006
REMARK  Name = 
REMARK  3 active torsions:
REMARK  status: ('A' for Active; 'I' for Inactive)
REMARK    1  A    between atoms: C_1  and  N_2
REMARK    2  A    between atoms: C_6  and  C_7
REMARK    3  A    between atoms: C_12  and  N_13
REMARK                            x       y       z     vdW  Elec       q    Type
REMARK                         _______ _______ _______ _____ _____    ______ ____
ROOT
ATOM      1  C   UNL     1       5.239   6.411  17.194  0.00  0.00    +0.000 C 
ATOM      2  O   UNL     1       6.000   7.184  16.600  0.00  0.00    +0.000 OA
ATOM      3  N   UNL     1       4.177   6.884  17.961  0.00  0.00    +0.000 N 
ATOM      4  C   UNL     1       3.541   6.119  19.018  0.00  0.00    +0.000 C 
ATOM      5  C   UNL     1       2.029   6.129  18.859  0.00  0.00    +0.000 C 
ATOM      6  C   UNL     1       1.441   7.538  18.648  0.00  0.00    +0.000 C 
ATOM      7  C   UNL     1       2.234   8.300  17.568  0.00  0.00    +0.000 C 
ATOM      8  C   UNL     1       3.740   8.273  17.833  0.00  0.00    +0.000 C 
ENDROOT
BRANCH   6   9
ATOM      9  N   UNL     1       1.249   8.340  19.855  0.00  0.00    +0.000 N 
ATOM     10  C   UNL     1       1.846   8.133  21.079  0.00  0.00    +0.000 A 
ATOM     11  N   UNL     1       1.524   9.044  21.971  0.00  0.00    +0.000 NA
ATOM     12  C   UNL     1       0.643   9.865  21.327  0.00  0.00    +0.000 A 
ATOM     13  C   UNL     1      -0.060  11.000  21.763  0.00  0.00    +0.000 A 
ATOM     14  N   UNL     1      -0.926  11.687  20.958  0.00  0.00    +0.000 NA
ATOM     15  C   UNL     1      -1.054  11.194  19.713  0.00  0.00    +0.000 A 
ATOM     16  N   UNL     1      -1.852  11.671  18.714  0.00  0.00    +0.000 N 
ATOM     17  C   UNL     1      -1.697  10.888  17.587  0.00  0.00    +0.000 A 
ATOM     18  C   UNL     1      -0.779   9.887  17.863  0.00  0.00    +0.000 A 
ATOM     19  C   UNL     1      -0.395  10.096  19.209  0.00  0.00    +0.000 A 
ATOM     20  C   UNL     1       0.463   9.426  20.027  0.00  0.00    +0.000 A 
ATOM     21  H   UNL     1      -2.457  12.473  18.812  0.00  0.00    +0.000 HD
ENDBRANCH   6   9
BRANCH   1  27
ATOM     22  C   UNL     1       7.687   4.637  17.840  0.00  0.00    +0.000 C 
ATOM     23  N   UNL     1       6.677   4.314  16.858  0.00  0.00    +0.000 NA
ATOM     24  C   UNL     1       7.085   4.601  15.487  0.00  0.00    +0.000 C 
ATOM     25  C   UNL     1       5.823   4.283  14.702  0.00  0.00    +0.000 C 
ATOM     26  C   UNL     1       4.671   4.488  15.681  0.00  0.00    +0.000 C 
ATOM     27  C   UNL     1       5.325   4.874  17.012  0.00  0.00    +0.000 C 
ENDBRANCH   1  27
TORSDOF 2
ENDMDL
MODEL 9
REMARK VINA RESULT:      -6.2      2.103      3.563
REMARK  Name = 
REMARK  3 active torsions:
REMARK  status: ('A' for Active; 'I' for Inactive)
REMARK    1  A    between atoms: C_1  and  N_2
REMARK    2  A    between atoms: C_6  and  C_7
REMARK    3  A    between atoms: C_12  and  N_13
REMARK                            x       y       z     vdW  Elec       q    Type
REMARK                         _______ _______ _______ _____ _____    ______ ____
ROOT
ATOM      1  C   UNL     1       0.073  10.521  19.075  0.00  0.00    +0.000 C 
ATOM      2  O   UNL     1      -0.302  10.874  17.951  0.00  0.00    +0.000 OA
ATOM      3  N   UNL     1       0.586   9.246  19.303  0.00  0.00    +0.000 N 
ATOM      4  C   UNL     1       0.619   8.609  20.607  0.00  0.00    +0.000 C 
ATOM      5  C   UNL     1       2.002   8.051  20.902  0.00  0.00    +0.000 C 
ATOM      6  C   UNL     1       2.576   7.192  19.758  0.00  0.00    +0.000 C 
ATOM      7  C   UNL     1       2.421   7.917  18.407  0.00  0.00    +0.000 C 
ATOM      8  C   UNL     1       0.989   8.406  18.177  0.00  0.00    +0.000 C 
ENDROOT
BRANCH   6   9
ATOM      9  N   UNL     1       2.108   5.809  19.696  0.00  0.00    +0.000 N 
ATOM     10  C   UNL     1       1.021   5.283  20.360  0.00  0.00    +0.000 A 
ATOM     11  N   UNL     1       0.807   4.017  20.075  0.00  0.00    +0.000 NA
ATOM     12  C   UNL     1       1.818   3.676  19.222  0.00  0.00    +0.000 A 
ATOM     13  C   UNL     1       2.135   2.461  18.594  0.00  0.00    +0.000 A 
ATOM     14  N   UNL     1       3.220   2.313  17.775  0.00  0.00    +0.000 NA
ATOM     15  C   UNL     1       3.962   3.423  17.614  0.00  0.00    +0.000 A 
ATOM     16  N   UNL     1       5.097   3.557  16.867  0.00  0.00    +0.000 N 
ATOM     17  C   UNL     1       5.559   4.855  16.958  0.00  0.00    +0.000 A 
ATOM     18  C   UNL     1       4.704   5.575  17.779  0.00  0.00    +0.000 A 
ATOM     19  C   UNL     1       3.712   4.651  18.185  0.00  0.00    +0.000 A 
ATOM     20  C   UNL     1       2.627   4.776  18.997  0.00  0.00    +0.000 A 
ATOM     21  H   UNL     1       5.515   2.803  16.341  0.00  0.00    +0.000 HD
ENDBRANCH   6   9
BRANCH   1  27
ATOM     22  C   UNL     1      -2.272  12.230  20.143  0.00  0.00    +0.000 C 
ATOM     23  N   UNL     1      -0.876  12.580  20.276  0.00  0.00    +0.000 NA
ATOM     24  C   UNL     1      -0.429  13.570  19.302  0.00  0.00    +0.000 C 
ATOM     25  C   UNL     1       1.061  13.657  19.592  0.00  0.00    +0.000 C 
ATOM     26  C   UNL     1       1.440  12.308  20.194  0.00  0.00    +0.000 C 
ATOM     27  C   UNL     1       0.134  11.509  20.268  0.00  0.00    +0.000 C 
ENDBRANCH   1  27
TORSDOF 2
ENDMDL
