MODEL 1
REMARK VINA RESULT:      -8.6      0.000      0.000
REMARK  Name = 
REMARK  6 active torsions:
REMARK  status: ('A' for Active; 'I' for Inactive)
REMARK    1  A    between atoms: C_1  and  N_2
REMARK    2  A    between atoms: N_2  and  C_3
REMARK    3  A    between atoms: N_2  and  C_12
REMARK    4  A    between atoms: C_3  and  C_4
REMARK    5  A    between atoms: C_29  and  C_30
REMARK    6  A    between atoms: C_30  and  O_31
REMARK                            x       y       z     vdW  Elec       q    Type
REMARK                         _______ _______ _______ _____ _____    ______ ____
ROOT
ATOM      1  C   UNL     1       1.030   9.634  19.530  0.00  0.00    +0.000 C 
ATOM      2  C   UNL     1      -0.161  10.190  18.737  0.00  0.00    +0.000 C 
ATOM      3  C   UNL     1      -0.647  11.527  19.291  0.00  0.00    +0.000 C 
ATOM      4  C   UNL     1      -2.128  11.712  19.135  0.00  0.00    +0.000 A 
ATOM      5  N   UNL     1      -2.882  11.276  18.079  0.00  0.00    +0.000 N 
ATOM      6  C   UNL     1      -4.207  11.592  18.285  0.00  0.00    +0.000 A 
ATOM      7  C   UNL     1      -5.326  11.304  17.496  0.00  0.00    +0.000 A 
ATOM      8  C   UNL     1      -6.569  11.749  17.954  0.00  0.00    +0.000 A 
ATOM      9  C   UNL     1      -6.684  12.454  19.149  0.00  0.00    +0.000 A 
ATOM     10  C   UNL     1      -5.554  12.729  19.930  0.00  0.00    +0.000 A 
ATOM     11  C   UNL     1      -4.289  12.286  19.494  0.00  0.00    +0.000 A 
ATOM     12  C   UNL     1      -2.973  12.361  20.020  0.00  0.00    +0.000 A 
ATOM     13  C   UNL     1      -2.465  12.948  21.299  0.00  0.00    +0.000 C 
ATOM     14  C   UNL     1      -0.923  13.027  21.254  0.00  0.00    +0.000 C 
ATOM     15  N   UNL     1      -0.349  11.781  20.704  0.00  0.00    +0.000 N 
ATOM     16  C   UNL     1       0.131  10.831  21.580  0.00  0.00    +0.000 C 
ATOM     17  O   UNL     1       0.183  11.020  22.793  0.00  0.00    +0.000 OA
ATOM     18  C   UNL     1       0.568   9.498  21.004  0.00  0.00    +0.000 C 
ATOM     19  H   UNL     1      -2.543  10.764  17.277  0.00  0.00    +0.000 HD
ENDROOT
BRANCH   1  21
ATOM     20  C   UNL     1       2.400   8.609  17.762  0.00  0.00    +0.000 C 
ATOM     21  N   UNL     1       1.529   8.348  18.924  0.00  0.00    +0.000 NA
BRANCH  21  22
ATOM     22  C   UNL     1       2.278   7.537  19.922  0.00  0.00    +0.000 C 
BRANCH  22  23
ATOM     23  C   UNL     1       2.148   6.040  19.725  0.00  0.00    +0.000 A 
ATOM     24  C   UNL     1       2.445   5.475  18.477  0.00  0.00    +0.000 A 
ATOM     25  C   UNL     1       2.399   4.090  18.306  0.00  0.00    +0.000 A 
ATOM     26 CL   UNL     1       2.805   3.416  16.776  0.00  0.00    +0.000 Cl
ATOM     27  C   UNL     1       2.045   3.251  19.359  0.00  0.00    +0.000 A 
ATOM     28  C   UNL     1       1.734   3.808  20.595  0.00  0.00    +0.000 A 
ATOM     29 CL   UNL     1       1.284   2.786  21.904  0.00  0.00    +0.000 Cl
ATOM     30  C   UNL     1       1.792   5.189  20.784  0.00  0.00    +0.000 A 
ENDBRANCH  22  23
ENDBRANCH  21  22
ENDBRANCH   1  21
BRANCH  18  31
ATOM     31  C   UNL     1      -0.548   8.473  21.256  0.00  0.00    +0.000 C 
BRANCH  31  32
ATOM     32  O   UNL     1      -0.908   8.393  22.630  0.00  0.00    +0.000 OA
ATOM     33  H   UNL     1      -0.069   8.448  23.136  0.00  0.00    +0.000 HD
ENDBRANCH  31  32
ENDBRANCH  18  31
TORSDOF 5
ENDMDL
MODEL 2
REMARK VINA RESULT:      -8.6      0.047      1.619
REMARK  Name = 
REMARK  6 active torsions:
REMARK  status: ('A' for Active; 'I' for Inactive)
REMARK    1  A    between atoms: C_1  and  N_2
REMARK    2  A    between atoms: N_2  and  C_3
REMARK    3  A    between atoms: N_2  and  C_12
REMARK    4  A    between atoms: C_3  and  C_4
REMARK    5  A    between atoms: C_29  and  C_30
REMARK    6  A    between atoms: C_30  and  O_31
REMARK                            x       y       z     vdW  Elec       q    Type
REMARK                         _______ _______ _______ _____ _____    ______ ____
ROOT
ATOM      1  C   UNL     1       1.037   9.611  19.552  0.00  0.00    +0.000 C 
ATOM      2  C   UNL     1      -0.155  10.165  18.757  0.00  0.00    +0.000 C 
ATOM      3  C   UNL     1      -0.636  11.506  19.304  0.00  0.00    +0.000 C 
ATOM      4  C   UNL     1      -2.117  11.694  19.149  0.00  0.00    +0.000 A 
ATOM      5  N   UNL     1      -2.874  11.254  18.097  0.00  0.00    +0.000 N 
ATOM      6  C   UNL     1      -4.197  11.575  18.303  0.00  0.00    +0.000 A 
ATOM      7  C   UNL     1      -5.319  11.285  17.517  0.00  0.00    +0.000 A 
ATOM      8  C   UNL     1      -6.560  11.737  17.974  0.00  0.00    +0.000 A 
ATOM      9  C   UNL     1      -6.670  12.449  19.165  0.00  0.00    +0.000 A 
ATOM     10  C   UNL     1      -5.539  12.726  19.943  0.00  0.00    +0.000 A 
ATOM     11  C   UNL     1      -4.275  12.277  19.507  0.00  0.00    +0.000 A 
ATOM     12  C   UNL     1      -2.958  12.351  20.031  0.00  0.00    +0.000 A 
ATOM     13  C   UNL     1      -2.447  12.945  21.306  0.00  0.00    +0.000 C 
ATOM     14  C   UNL     1      -0.904  13.019  21.258  0.00  0.00    +0.000 C 
ATOM     15  N   UNL     1      -0.335  11.769  20.714  0.00  0.00    +0.000 N 
ATOM     16  C   UNL     1       0.144  10.823  21.596  0.00  0.00    +0.000 C 
ATOM     17  O   UNL     1       0.198  11.020  22.808  0.00  0.00    +0.000 OA
ATOM     18  C   UNL     1       0.577   9.485  21.028  0.00  0.00    +0.000 C 
ATOM     19  H   UNL     1      -2.537  10.736  17.298  0.00  0.00    +0.000 HD
ENDROOT
BRANCH   1  21
ATOM     20  C   UNL     1       2.371   8.570  17.767  0.00  0.00    +0.000 C 
ATOM     21  N   UNL     1       1.531   8.319  18.954  0.00  0.00    +0.000 NA
BRANCH  21  22
ATOM     22  C   UNL     1       2.311   7.530  19.945  0.00  0.00    +0.000 C 
BRANCH  22  23
ATOM     23  C   UNL     1       2.253   6.031  19.724  0.00  0.00    +0.000 A 
ATOM     24  C   UNL     1       1.847   5.190  20.769  0.00  0.00    +0.000 A 
ATOM     25  C   UNL     1       1.720   3.816  20.554  0.00  0.00    +0.000 A 
ATOM     26 CL   UNL     1       1.184   2.808  21.841  0.00  0.00    +0.000 Cl
ATOM     27  C   UNL     1       2.006   3.258  19.312  0.00  0.00    +0.000 A 
ATOM     28  C   UNL     1       2.424   4.087  18.276  0.00  0.00    +0.000 A 
ATOM     29 CL   UNL     1       2.792   3.411  16.736  0.00  0.00    +0.000 Cl
ATOM     30  C   UNL     1       2.540   5.462  18.472  0.00  0.00    +0.000 A 
ENDBRANCH  22  23
ENDBRANCH  21  22
ENDBRANCH   1  21
BRANCH  18  31
ATOM     31  C   UNL     1      -0.542   8.465  21.288  0.00  0.00    +0.000 C 
BRANCH  31  32
ATOM     32  O   UNL     1      -0.922   8.418  22.657  0.00  0.00    +0.000 OA
ATOM     33  H   UNL     1      -1.336   7.539  22.796  0.00  0.00    +0.000 HD
ENDBRANCH  31  32
ENDBRANCH  18  31
TORSDOF 5
ENDMDL
MODEL 3
REMARK VINA RESULT:      -8.3      1.004      1.059
REMARK  Name = 
REMARK  6 active torsions:
REMARK  status: ('A' for Active; 'I' for Inactive)
REMARK    1  A    between atoms: C_1  and  N_2
REMARK    2  A    between atoms: N_2  and  C_3
REMARK    3  A    between atoms: N_2  and  C_12
REMARK    4  A    between atoms: C_3  and  C_4
REMARK    5  A    between atoms: C_29  and  C_30
REMARK    6  A    between atoms: C_30  and  O_31
REMARK                            x       y       z     vdW  Elec       q    Type
REMARK                         _______ _______ _______ _____ _____    ______ ____
ROOT
ATOM      1  C   UNL     1       0.981   9.655  19.534  0.00  0.00    +0.000 C 
ATOM      2  C   UNL     1      -0.219  10.202  18.747  0.00  0.00    +0.000 C 
ATOM      3  C   UNL     1      -0.696  11.547  19.290  0.00  0.00    +0.000 C 
ATOM      4  C   UNL     1      -2.179  11.732  19.149  0.00  0.00    +0.000 A 
ATOM      5  N   UNL     1      -2.946  11.284  18.107  0.00  0.00    +0.000 N 
ATOM      6  C   UNL     1      -4.268  11.605  18.325  0.00  0.00    +0.000 A 
ATOM      7  C   UNL     1      -5.397  11.309  17.552  0.00  0.00    +0.000 A 
ATOM      8  C   UNL     1      -6.634  11.761  18.018  0.00  0.00    +0.000 A 
ATOM      9  C   UNL     1      -6.733  12.481  19.206  0.00  0.00    +0.000 A 
ATOM     10  C   UNL     1      -5.594  12.765  19.971  0.00  0.00    +0.000 A 
ATOM     11  C   UNL     1      -4.335  12.315  19.525  0.00  0.00    +0.000 A 
ATOM     12  C   UNL     1      -3.013  12.393  20.035  0.00  0.00    +0.000 A 
ATOM     13  C   UNL     1      -2.489  12.996  21.301  0.00  0.00    +0.000 C 
ATOM     14  C   UNL     1      -0.948  13.072  21.237  0.00  0.00    +0.000 C 
ATOM     15  N   UNL     1      -0.382  11.819  20.696  0.00  0.00    +0.000 N 
ATOM     16  C   UNL     1       0.107  10.879  21.579  0.00  0.00    +0.000 C 
ATOM     17  O   UNL     1       0.173  11.083  22.789  0.00  0.00    +0.000 OA
ATOM     18  C   UNL     1       0.536   9.537  21.015  0.00  0.00    +0.000 C 
ATOM     19  H   UNL     1      -2.616  10.761  17.308  0.00  0.00    +0.000 HD
ENDROOT
BRANCH   1  21
ATOM     20  C   UNL     1       2.316   8.605  17.754  0.00  0.00    +0.000 C 
ATOM     21  N   UNL     1       1.471   8.360  18.939  0.00  0.00    +0.000 NA
BRANCH  21  22
ATOM     22  C   UNL     1       2.243   7.568  19.934  0.00  0.00    +0.000 C 
BRANCH  22  23
ATOM     23  C   UNL     1       2.606   6.173  19.466  0.00  0.00    +0.000 A 
ATOM     24  C   UNL     1       3.926   5.884  19.097  0.00  0.00    +0.000 A 
ATOM     25  C   UNL     1       4.285   4.584  18.736  0.00  0.00    +0.000 A 
ATOM     26 CL   UNL     1       5.921   4.244  18.325  0.00  0.00    +0.000 Cl
ATOM     27  C   UNL     1       3.341   3.561  18.719  0.00  0.00    +0.000 A 
ATOM     28  C   UNL     1       2.026   3.846  19.068  0.00  0.00    +0.000 A 
ATOM     29 CL   UNL     1       0.844   2.594  19.042  0.00  0.00    +0.000 Cl
ATOM     30  C   UNL     1       1.658   5.136  19.447  0.00  0.00    +0.000 A 
ENDBRANCH  22  23
ENDBRANCH  21  22
ENDBRANCH   1  21
BRANCH  18  31
ATOM     31  C   UNL     1      -0.579   8.518  21.293  0.00  0.00    +0.000 C 
BRANCH  31  32
ATOM     32  O   UNL     1      -0.929   8.463  22.670  0.00  0.00    +0.000 OA
ATOM     33  H   UNL     1      -0.426   9.181  23.109  0.00  0.00    +0.000 HD
ENDBRANCH  31  32
ENDBRANCH  18  31
TORSDOF 5
ENDMDL
MODEL 4
REMARK VINA RESULT:      -8.2      1.033      1.803
REMARK  Name = 
REMARK  6 active torsions:
REMARK  status: ('A' for Active; 'I' for Inactive)
REMARK    1  A    between atoms: C_1  and  N_2
REMARK    2  A    between atoms: N_2  and  C_3
REMARK    3  A    between atoms: N_2  and  C_12
REMARK    4  A    between atoms: C_3  and  C_4
REMARK    5  A    between atoms: C_29  and  C_30
REMARK    6  A    between atoms: C_30  and  O_31
REMARK                            x       y       z     vdW  Elec       q    Type
REMARK                         _______ _______ _______ _____ _____    ______ ____
ROOT
ATOM      1  C   UNL     1       1.268   9.394  19.574  0.00  0.00    +0.000 C 
ATOM      2  C   UNL     1       0.113  10.160  18.913  0.00  0.00    +0.000 C 
ATOM      3  C   UNL     1      -0.247  11.430  19.680  0.00  0.00    +0.000 C 
ATOM      4  C   UNL     1      -1.710  11.756  19.600  0.00  0.00    +0.000 A 
ATOM      5  N   UNL     1      -2.518  11.552  18.514  0.00  0.00    +0.000 N 
ATOM      6  C   UNL     1      -3.807  11.938  18.808  0.00  0.00    +0.000 A 
ATOM      7  C   UNL     1      -4.961  11.867  18.019  0.00  0.00    +0.000 A 
ATOM      8  C   UNL     1      -6.153  12.336  18.578  0.00  0.00    +0.000 A 
ATOM      9  C   UNL     1      -6.185  12.854  19.870  0.00  0.00    +0.000 A 
ATOM     10  C   UNL     1      -5.022  12.913  20.649  0.00  0.00    +0.000 A 
ATOM     11  C   UNL     1      -3.807  12.442  20.110  0.00  0.00    +0.000 A 
ATOM     12  C   UNL     1      -2.480  12.327  20.600  0.00  0.00    +0.000 A 
ATOM     13  C   UNL     1      -1.900  12.666  21.937  0.00  0.00    +0.000 C 
ATOM     14  C   UNL     1      -0.358  12.626  21.856  0.00  0.00    +0.000 C 
ATOM     15  N   UNL     1       0.098  11.438  21.104  0.00  0.00    +0.000 N 
ATOM     16  C   UNL     1       0.511  10.328  21.811  0.00  0.00    +0.000 C 
ATOM     17  O   UNL     1       0.602  10.323  23.036  0.00  0.00    +0.000 OA
ATOM     18  C   UNL     1       0.823   9.069  21.025  0.00  0.00    +0.000 C 
ATOM     19  H   UNL     1      -2.237  11.144  17.633  0.00  0.00    +0.000 HD
ENDROOT
BRANCH   1  21
ATOM     20  C   UNL     1       2.424   8.559  17.570  0.00  0.00    +0.000 C 
ATOM     21  N   UNL     1       1.644   8.180  18.765  0.00  0.00    +0.000 NA
BRANCH  21  22
ATOM     22  C   UNL     1       2.433   7.214  19.576  0.00  0.00    +0.000 C 
BRANCH  22  23
ATOM     23  C   UNL     1       2.592   5.851  18.932  0.00  0.00    +0.000 A 
ATOM     24  C   UNL     1       1.673   4.834  19.222  0.00  0.00    +0.000 A 
ATOM     25  C   UNL     1       1.767   3.599  18.579  0.00  0.00    +0.000 A 
ATOM     26 CL   UNL     1       0.604   2.379  18.923  0.00  0.00    +0.000 Cl
ATOM     27  C   UNL     1       2.778   3.350  17.655  0.00  0.00    +0.000 A 
ATOM     28  C   UNL     1       3.702   4.351  17.374  0.00  0.00    +0.000 A 
ATOM     29 CL   UNL     1       4.964   4.056  16.242  0.00  0.00    +0.000 Cl
ATOM     30  C   UNL     1       3.609   5.595  17.998  0.00  0.00    +0.000 A 
ENDBRANCH  22  23
ENDBRANCH  21  22
ENDBRANCH   1  21
BRANCH  18  31
ATOM     31  C   UNL     1      -0.371   8.112  21.152  0.00  0.00    +0.000 C 
BRANCH  31  32
ATOM     32  O   UNL     1      -1.038   8.244  22.401  0.00  0.00    +0.000 OA
ATOM     33  H   UNL     1      -1.759   8.894  22.258  0.00  0.00    +0.000 HD
ENDBRANCH  31  32
ENDBRANCH  18  31
TORSDOF 5
ENDMDL
MODEL 5
REMARK VINA RESULT:      -8.0      1.070      1.228
REMARK  Name = 
REMARK  6 active torsions:
REMARK  status: ('A' for Active; 'I' for Inactive)
REMARK    1  A    between atoms: C_1  and  N_2
REMARK    2  A    between atoms: N_2  and  C_3
REMARK    3  A    between atoms: N_2  and  C_12
REMARK    4  A    between atoms: C_3  and  C_4
REMARK    5  A    between atoms: C_29  and  C_30
REMARK    6  A    between atoms: C_30  and  O_31
REMARK                            x       y       z     vdW  Elec       q    Type
REMARK                         _______ _______ _______ _____ _____    ______ ____
ROOT
ATOM      1  C   UNL     1       1.885   8.722  19.430  0.00  0.00    +0.000 C 
ATOM      2  C   UNL     1       0.821   9.465  18.610  0.00  0.00    +0.000 C 
ATOM      3  C   UNL     1       0.453  10.810  19.232  0.00  0.00    +0.000 C 
ATOM      4  C   UNL     1      -0.984  11.178  19.001  0.00  0.00    +0.000 A 
ATOM      5  N   UNL     1      -1.709  10.905  17.872  0.00  0.00    +0.000 N 
ATOM      6  C   UNL     1      -3.001  11.360  18.021  0.00  0.00    +0.000 A 
ATOM      7  C   UNL     1      -4.089  11.259  17.146  0.00  0.00    +0.000 A 
ATOM      8  C   UNL     1      -5.302  11.815  17.560  0.00  0.00    +0.000 A 
ATOM      9  C   UNL     1      -5.417  12.447  18.795  0.00  0.00    +0.000 A 
ATOM     10  C   UNL     1      -4.320  12.536  19.662  0.00  0.00    +0.000 A 
ATOM     11  C   UNL     1      -3.086  11.977  19.270  0.00  0.00    +0.000 A 
ATOM     12  C   UNL     1      -1.809  11.861  19.879  0.00  0.00    +0.000 A 
ATOM     13  C   UNL     1      -1.326  12.298  21.226  0.00  0.00    +0.000 C 
ATOM     14  C   UNL     1       0.214  12.198  21.280  0.00  0.00    +0.000 C 
ATOM     15  N   UNL     1       0.680  10.933  20.674  0.00  0.00    +0.000 N 
ATOM     16  C   UNL     1       0.988   9.877  21.506  0.00  0.00    +0.000 C 
ATOM     17  O   UNL     1       0.978   9.978  22.730  0.00  0.00    +0.000 OA
ATOM     18  C   UNL     1       1.311   8.543  20.860  0.00  0.00    +0.000 C 
ATOM     19  H   UNL     1      -1.375  10.411  17.056  0.00  0.00    +0.000 HD
ENDROOT
BRANCH   1  21
ATOM     20  C   UNL     1       2.934   7.678  17.465  0.00  0.00    +0.000 C 
ATOM     21  N   UNL     1       2.276   7.429  18.763  0.00  0.00    +0.000 NA
BRANCH  21  22
ATOM     22  C   UNL     1       3.186   6.630  19.626  0.00  0.00    +0.000 C 
BRANCH  22  23
ATOM     23  C   UNL     1       2.846   5.154  19.684  0.00  0.00    +0.000 A 
ATOM     24  C   UNL     1       3.248   4.306  18.644  0.00  0.00    +0.000 A 
ATOM     25  C   UNL     1       3.004   2.934  18.724  0.00  0.00    +0.000 A 
ATOM     26 CL   UNL     1       3.542   1.907  17.453  0.00  0.00    +0.000 Cl
ATOM     27  C   UNL     1       2.346   2.388  19.822  0.00  0.00    +0.000 A 
ATOM     28  C   UNL     1       1.931   3.227  20.850  0.00  0.00    +0.000 A 
ATOM     29 CL   UNL     1       1.107   2.570  22.211  0.00  0.00    +0.000 Cl
ATOM     30  C   UNL     1       2.183   4.598  20.791  0.00  0.00    +0.000 A 
ENDBRANCH  22  23
ENDBRANCH  21  22
ENDBRANCH   1  21
BRANCH  18  31
ATOM     31  C   UNL     1       0.072   7.642  20.968  0.00  0.00    +0.000 C 
BRANCH  31  32
ATOM     32  O   UNL     1      -0.895   8.160  21.874  0.00  0.00    +0.000 OA
ATOM     33  H   UNL     1      -1.305   8.930  21.425  0.00  0.00    +0.000 HD
ENDBRANCH  31  32
ENDBRANCH  18  31
TORSDOF 5
ENDMDL
MODEL 6
REMARK VINA RESULT:      -8.0      1.040      1.968
REMARK  Name = 
REMARK  6 active torsions:
REMARK  status: ('A' for Active; 'I' for Inactive)
REMARK    1  A    between atoms: C_1  and  N_2
REMARK    2  A    between atoms: N_2  and  C_3
REMARK    3  A    between atoms: N_2  and  C_12
REMARK    4  A    between atoms: C_3  and  C_4
REMARK    5  A    between atoms: C_29  and  C_30
REMARK    6  A    between atoms: C_30  and  O_31
REMARK                            x       y       z     vdW  Elec       q    Type
REMARK                         _______ _______ _______ _____ _____    ______ ____
ROOT
ATOM      1  C   UNL     1       1.855   8.782  19.455  0.00  0.00    +0.000 C 
ATOM      2  C   UNL     1       0.789   9.500  18.615  0.00  0.00    +0.000 C 
ATOM      3  C   UNL     1       0.401  10.850  19.213  0.00  0.00    +0.000 C 
ATOM      4  C   UNL     1      -1.039  11.198  18.966  0.00  0.00    +0.000 A 
ATOM      5  N   UNL     1      -1.751  10.900  17.835  0.00  0.00    +0.000 N 
ATOM      6  C   UNL     1      -3.049  11.342  17.967  0.00  0.00    +0.000 A 
ATOM      7  C   UNL     1      -4.128  11.215  17.085  0.00  0.00    +0.000 A 
ATOM      8  C   UNL     1      -5.351  11.764  17.481  0.00  0.00    +0.000 A 
ATOM      9  C   UNL     1      -5.483  12.413  18.706  0.00  0.00    +0.000 A 
ATOM     10  C   UNL     1      -4.394  12.527  19.579  0.00  0.00    +0.000 A 
ATOM     11  C   UNL     1      -3.151  11.977  19.206  0.00  0.00    +0.000 A 
ATOM     12  C   UNL     1      -1.878  11.885  19.827  0.00  0.00    +0.000 A 
ATOM     13  C   UNL     1      -1.411  12.348  21.171  0.00  0.00    +0.000 C 
ATOM     14  C   UNL     1       0.130  12.267  21.238  0.00  0.00    +0.000 C 
ATOM     15  N   UNL     1       0.615  10.998  20.656  0.00  0.00    +0.000 N 
ATOM     16  C   UNL     1       0.929   9.958  21.505  0.00  0.00    +0.000 C 
ATOM     17  O   UNL     1       0.908  10.077  22.728  0.00  0.00    +0.000 OA
ATOM     18  C   UNL     1       1.272   8.618  20.883  0.00  0.00    +0.000 C 
ATOM     19  H   UNL     1      -1.405  10.397  17.030  0.00  0.00    +0.000 HD
ENDROOT
BRANCH   1  21
ATOM     20  C   UNL     1       2.884   7.717  17.490  0.00  0.00    +0.000 C 
ATOM     21  N   UNL     1       2.266   7.484  18.810  0.00  0.00    +0.000 NA
BRANCH  21  22
ATOM     22  C   UNL     1       3.220   6.733  19.670  0.00  0.00    +0.000 C 
BRANCH  22  23
ATOM     23  C   UNL     1       2.977   5.237  19.702  0.00  0.00    +0.000 A 
ATOM     24  C   UNL     1       2.298   4.666  20.787  0.00  0.00    +0.000 A 
ATOM     25  C   UNL     1       2.005   3.302  20.791  0.00  0.00    +0.000 A 
ATOM     26 CL   UNL     1       1.135   2.630  22.115  0.00  0.00    +0.000 Cl
ATOM     27  C   UNL     1       2.393   2.484  19.734  0.00  0.00    +0.000 A 
ATOM     28  C   UNL     1       3.082   3.042  18.662  0.00  0.00    +0.000 A 
ATOM     29 CL   UNL     1       3.578   2.043  17.351  0.00  0.00    +0.000 Cl
ATOM     30  C   UNL     1       3.367   4.407  18.638  0.00  0.00    +0.000 A 
ENDBRANCH  22  23
ENDBRANCH  21  22
ENDBRANCH   1  21
BRANCH  18  31
ATOM     31  C   UNL     1       0.042   7.705  20.995  0.00  0.00    +0.000 C 
BRANCH  31  32
ATOM     32  O   UNL     1      -0.928   8.214  21.901  0.00  0.00    +0.000 OA
ATOM     33  H   UNL     1      -0.541   9.028  22.287  0.00  0.00    +0.000 HD
ENDBRANCH  31  32
ENDBRANCH  18  31
TORSDOF 5
ENDMDL
MODEL 7
REMARK VINA RESULT:      -7.7      2.458      3.266
REMARK  Name = 
REMARK  6 active torsions:
REMARK  status: ('A' for Active; 'I' for Inactive)
REMARK    1  A    between atoms: C_1  and  N_2
REMARK    2  A    between atoms: N_2  and  C_3
REMARK    3  A    between atoms: N_2  and  C_12
REMARK    4  A    between atoms: C_3  and  C_4
REMARK    5  A    between atoms: C_29  and  C_30
REMARK    6  A    between atoms: C_30  and  O_31
REMARK                            x       y       z     vdW  Elec       q    Type
REMARK                         _______ _______ _______ _____ _____    ______ ____
ROOT
ATOM      1  C   UNL     1       2.344   7.950  19.905  0.00  0.00    +0.000 C 
ATOM      2  C   UNL     1       1.499   8.475  18.736  0.00  0.00    +0.000 C 
ATOM      3  C   UNL     1       1.113   9.941  18.918  0.00  0.00    +0.000 C 
ATOM      4  C   UNL     1      -0.230  10.261  18.329  0.00  0.00    +0.000 A 
ATOM      5  N   UNL     1      -0.752   9.719  17.185  0.00  0.00    +0.000 N 
ATOM      6  C   UNL     1      -2.016  10.219  16.963  0.00  0.00    +0.000 A 
ATOM      7  C   UNL     1      -2.930   9.914  15.947  0.00  0.00    +0.000 A 
ATOM      8  C   UNL     1      -4.159  10.579  15.966  0.00  0.00    +0.000 A 
ATOM      9  C   UNL     1      -4.456  11.510  16.958  0.00  0.00    +0.000 A 
ATOM     10  C   UNL     1      -3.533  11.800  17.970  0.00  0.00    +0.000 A 
ATOM     11  C   UNL     1      -2.288  11.138  17.978  0.00  0.00    +0.000 A 
ATOM     12  C   UNL     1      -1.154  11.161  18.832  0.00  0.00    +0.000 A 
ATOM     13  C   UNL     1      -0.899  11.922  20.095  0.00  0.00    +0.000 C 
ATOM     14  C   UNL     1       0.596  11.813  20.469  0.00  0.00    +0.000 C 
ATOM     15  N   UNL     1       1.080  10.427  20.301  0.00  0.00    +0.000 N 
ATOM     16  C   UNL     1       1.160   9.616  21.413  0.00  0.00    +0.000 C 
ATOM     17  O   UNL     1       0.933  10.029  22.547  0.00  0.00    +0.000 OA
ATOM     18  C   UNL     1       1.507   8.155  21.196  0.00  0.00    +0.000 C 
ATOM     19  H   UNL     1      -0.308   9.026  16.600  0.00  0.00    +0.000 HD
ENDROOT
BRANCH   1  21
ATOM     20  C   UNL     1       1.776   5.579  20.230  0.00  0.00    +0.000 C 
ATOM     21  N   UNL     1       2.763   6.523  19.671  0.00  0.00    +0.000 NA
BRANCH  21  22
ATOM     22  C   UNL     1       2.938   6.243  18.220  0.00  0.00    +0.000 C 
BRANCH  22  23
ATOM     23  C   UNL     1       4.311   5.716  17.852  0.00  0.00    +0.000 A 
ATOM     24  C   UNL     1       4.506   5.089  16.615  0.00  0.00    +0.000 A 
ATOM     25  C   UNL     1       5.782   4.666  16.237  0.00  0.00    +0.000 A 
ATOM     26 CL   UNL     1       6.005   3.934  14.696  0.00  0.00    +0.000 Cl
ATOM     27  C   UNL     1       6.873   4.844  17.082  0.00  0.00    +0.000 A 
ATOM     28  C   UNL     1       6.682   5.452  18.318  0.00  0.00    +0.000 A 
ATOM     29 CL   UNL     1       8.019   5.669  19.380  0.00  0.00    +0.000 Cl
ATOM     30  C   UNL     1       5.416   5.893  18.701  0.00  0.00    +0.000 A 
ENDBRANCH  22  23
ENDBRANCH  21  22
ENDBRANCH   1  21
BRANCH  18  31
ATOM     31  C   UNL     1       0.212   7.334  21.282  0.00  0.00    +0.000 C 
BRANCH  31  32
ATOM     32  O   UNL     1      -0.880   8.098  21.778  0.00  0.00    +0.000 OA
ATOM     33  H   UNL     1      -0.965   7.869  22.728  0.00  0.00    +0.000 HD
ENDBRANCH  31  32
ENDBRANCH  18  31
TORSDOF 5
ENDMDL
MODEL 8
REMARK VINA RESULT:      -7.7      2.458      3.547
REMARK  Name = 
REMARK  6 active torsions:
REMARK  status: ('A' for Active; 'I' for Inactive)
REMARK    1  A    between atoms: C_1  and  N_2
REMARK    2  A    between atoms: N_2  and  C_3
REMARK    3  A    between atoms: N_2  and  C_12
REMARK    4  A    between atoms: C_3  and  C_4
REMARK    5  A    between atoms: C_29  and  C_30
REMARK    6  A    between atoms: C_30  and  O_31
REMARK                            x       y       z     vdW  Elec       q    Type
REMARK                         _______ _______ _______ _____ _____    ______ ____
ROOT
ATOM      1  C   UNL     1       2.358   7.908  19.899  0.00  0.00    +0.000 C 
ATOM      2  C   UNL     1       1.522   8.439  18.726  0.00  0.00    +0.000 C 
ATOM      3  C   UNL     1       1.143   9.907  18.908  0.00  0.00    +0.000 C 
ATOM      4  C   UNL     1      -0.196  10.235  18.313  0.00  0.00    +0.000 A 
ATOM      5  N   UNL     1      -0.715   9.697  17.166  0.00  0.00    +0.000 N 
ATOM      6  C   UNL     1      -1.975  10.204  16.938  0.00  0.00    +0.000 A 
ATOM      7  C   UNL     1      -2.886   9.906  15.918  0.00  0.00    +0.000 A 
ATOM      8  C   UNL     1      -4.111  10.578  15.931  0.00  0.00    +0.000 A 
ATOM      9  C   UNL     1      -4.408  11.509  16.923  0.00  0.00    +0.000 A 
ATOM     10  C   UNL     1      -3.488  11.792  17.940  0.00  0.00    +0.000 A 
ATOM     11  C   UNL     1      -2.247  11.124  17.953  0.00  0.00    +0.000 A 
ATOM     12  C   UNL     1      -1.117  11.140  18.812  0.00  0.00    +0.000 A 
ATOM     13  C   UNL     1      -0.863  11.898  20.077  0.00  0.00    +0.000 C 
ATOM     14  C   UNL     1       0.629  11.781  20.458  0.00  0.00    +0.000 C 
ATOM     15  N   UNL     1       1.106  10.392  20.291  0.00  0.00    +0.000 N 
ATOM     16  C   UNL     1       1.177   9.579  21.402  0.00  0.00    +0.000 C 
ATOM     17  O   UNL     1       0.946   9.992  22.536  0.00  0.00    +0.000 OA
ATOM     18  C   UNL     1       1.516   8.116  21.185  0.00  0.00    +0.000 C 
ATOM     19  H   UNL     1      -0.272   9.002  16.582  0.00  0.00    +0.000 HD
ENDROOT
BRANCH   1  21
ATOM     20  C   UNL     1       1.800   5.540  20.260  0.00  0.00    +0.000 C 
ATOM     21  N   UNL     1       2.771   6.479  19.664  0.00  0.00    +0.000 NA
BRANCH  21  22
ATOM     22  C   UNL     1       2.903   6.187  18.211  0.00  0.00    +0.000 C 
BRANCH  22  23
ATOM     23  C   UNL     1       4.290   5.742  17.794  0.00  0.00    +0.000 A 
ATOM     24  C   UNL     1       5.372   5.928  18.665  0.00  0.00    +0.000 A 
ATOM     25  C   UNL     1       6.639   5.456  18.320  0.00  0.00    +0.000 A 
ATOM     26 CL   UNL     1       7.944   5.662  19.422  0.00  0.00    +0.000 Cl
ATOM     27  C   UNL     1       6.855   4.810  17.106  0.00  0.00    +0.000 A 
ATOM     28  C   UNL     1       5.789   4.636  16.231  0.00  0.00    +0.000 A 
ATOM     29 CL   UNL     1       6.041   3.847  14.722  0.00  0.00    +0.000 Cl
ATOM     30  C   UNL     1       4.514   5.088  16.570  0.00  0.00    +0.000 A 
ENDBRANCH  22  23
ENDBRANCH  21  22
ENDBRANCH   1  21
BRANCH  18  31
ATOM     31  C   UNL     1       0.216   7.302  21.265  0.00  0.00    +0.000 C 
BRANCH  31  32
ATOM     32  O   UNL     1      -0.862   8.058  21.801  0.00  0.00    +0.000 OA
ATOM     33  H   UNL     1      -1.203   7.544  22.564  0.00  0.00    +0.000 HD
ENDBRANCH  31  32
ENDBRANCH  18  31
TORSDOF 5
ENDMDL
MODEL 9
REMARK VINA RESULT:      -7.7      2.182      3.088
REMARK  Name = 
REMARK  6 active torsions:
REMARK  status: ('A' for Active; 'I' for Inactive)
REMARK    1  A    between atoms: C_1  and  N_2
REMARK    2  A    between atoms: N_2  and  C_3
REMARK    3  A    between atoms: N_2  and  C_12
REMARK    4  A    between atoms: C_3  and  C_4
REMARK    5  A    between atoms: C_29  and  C_30
REMARK    6  A    between atoms: C_30  and  O_31
REMARK                            x       y       z     vdW  Elec       q    Type
REMARK                         _______ _______ _______ _____ _____    ______ ____
ROOT
ATOM      1  C   UNL     1      -0.412  11.555  19.690  0.00  0.00    +0.000 C 
ATOM      2  C   UNL     1      -1.932  11.765  19.658  0.00  0.00    +0.000 C 
ATOM      3  C   UNL     1      -2.337  13.123  20.226  0.00  0.00    +0.000 C 
ATOM      4  C   UNL     1      -3.667  13.084  20.921  0.00  0.00    +0.000 A 
ATOM      5  N   UNL     1      -4.745  12.330  20.545  0.00  0.00    +0.000 N 
ATOM      6  C   UNL     1      -5.784  12.520  21.430  0.00  0.00    +0.000 A 
ATOM      7  C   UNL     1      -7.050  11.924  21.461  0.00  0.00    +0.000 A 
ATOM      8  C   UNL     1      -7.917  12.307  22.488  0.00  0.00    +0.000 A 
ATOM      9  C   UNL     1      -7.531  13.246  23.440  0.00  0.00    +0.000 A 
ATOM     10  C   UNL     1      -6.257  13.829  23.399  0.00  0.00    +0.000 A 
ATOM     11  C   UNL     1      -5.362  13.457  22.375  0.00  0.00    +0.000 A 
ATOM     12  C   UNL     1      -4.028  13.810  22.044  0.00  0.00    +0.000 A 
ATOM     13  C   UNL     1      -3.064  14.731  22.724  0.00  0.00    +0.000 C 
ATOM     14  C   UNL     1      -1.854  14.986  21.798  0.00  0.00    +0.000 C 
ATOM     15  N   UNL     1      -1.397  13.728  21.173  0.00  0.00    +0.000 N 
ATOM     16  C   UNL     1      -0.319  13.069  21.726  0.00  0.00    +0.000 C 
ATOM     17  O   UNL     1       0.330  13.535  22.660  0.00  0.00    +0.000 OA
ATOM     18  C   UNL     1       0.035  11.703  21.169  0.00  0.00    +0.000 C 
ATOM     19  H   UNL     1      -4.781  11.694  19.761  0.00  0.00    +0.000 HD
ENDROOT
BRANCH   1  21
ATOM     20  C   UNL     1      -0.800   9.994  17.829  0.00  0.00    +0.000 C 
ATOM     21  N   UNL     1      -0.035  10.236  19.068  0.00  0.00    +0.000 NA
BRANCH  21  22
ATOM     22  C   UNL     1       1.419  10.179  18.761  0.00  0.00    +0.000 C 
BRANCH  22  23
ATOM     23  C   UNL     1       1.988   8.775  18.720  0.00  0.00    +0.000 A 
ATOM     24  C   UNL     1       2.901   8.423  17.717  0.00  0.00    +0.000 A 
ATOM     25  C   UNL     1       3.487   7.156  17.714  0.00  0.00    +0.000 A 
ATOM     26 CL   UNL     1       4.633   6.761  16.494  0.00  0.00    +0.000 Cl
ATOM     27  C   UNL     1       3.165   6.219  18.692  0.00  0.00    +0.000 A 
ATOM     28  C   UNL     1       2.249   6.557  19.681  0.00  0.00    +0.000 A 
ATOM     29 CL   UNL     1       1.834   5.406  20.891  0.00  0.00    +0.000 Cl
ATOM     30  C   UNL     1       1.669   7.825  19.705  0.00  0.00    +0.000 A 
ENDBRANCH  22  23
ENDBRANCH  21  22
ENDBRANCH   1  21
BRANCH  18  31
ATOM     31  C   UNL     1      -0.502  10.634  22.132  0.00  0.00    +0.000 C 
BRANCH  31  32
ATOM     32  O   UNL     1      -1.417  11.172  23.079  0.00  0.00    +0.000 OA
ATOM     33  H   UNL     1      -1.377  10.583  23.863  0.00  0.00    +0.000 HD
ENDBRANCH  31  32
ENDBRANCH  18  31
TORSDOF 5
ENDMDL
