MODEL 1
REMARK VINA RESULT:      -7.6      0.000      0.000
REMARK  Name = 
REMARK  4 active torsions:
REMARK  status: ('A' for Active; 'I' for Inactive)
REMARK    1  A    between atoms: O_1  and  C_2
REMARK    2  A    between atoms: C_2  and  C_3
REMARK    3  A    between atoms: C_3  and  N_4
REMARK    4  A    between atoms: C_10  and  C_11
REMARK                            x       y       z     vdW  Elec       q    Type
REMARK                         _______ _______ _______ _____ _____    ______ ____
ROOT
ATOM      1  N   UNL     1      -0.511  11.476  19.603  0.00  0.00    +0.000 NA
ATOM      2  C   UNL     1       0.460  11.406  18.476  0.00  0.00    +0.000 C 
ATOM      3  C   UNL     1       1.777  10.647  18.779  0.00  0.00    +0.000 C 
ATOM      4  N   UNL     1       1.485   9.342  19.374  0.00  0.00    +0.000 N 
ATOM      5  C   UNL     1       2.096   8.204  18.923  0.00  0.00    +0.000 A 
ATOM      6  N   UNL     1       1.806   7.028  19.490  0.00  0.00    +0.000 NA
ATOM      7  C   UNL     1       2.419   5.907  19.037  0.00  0.00    +0.000 A 
ATOM      8  C   UNL     1       3.368   5.948  17.994  0.00  0.00    +0.000 A 
ATOM      9  C   UNL     1       4.126   4.865  17.466  0.00  0.00    +0.000 A 
ATOM     10  C   UNL     1       5.021   5.055  16.415  0.00  0.00    +0.000 A 
ATOM     11 CL   UNL     1       5.886   3.715  15.775  0.00  0.00    +0.000 Cl
ATOM     12  C   UNL     1       5.210   6.319  15.888  0.00  0.00    +0.000 A 
ATOM     13  C   UNL     1       4.489   7.389  16.425  0.00  0.00    +0.000 A 
ATOM     14  C   UNL     1       3.580   7.224  17.465  0.00  0.00    +0.000 A 
ATOM     15  N   UNL     1       2.964   8.313  17.913  0.00  0.00    +0.000 NA
ATOM     16  C   UNL     1       0.535   9.312  20.479  0.00  0.00    +0.000 C 
ATOM     17  C   UNL     1      -0.741  10.090  20.082  0.00  0.00    +0.000 C 
ENDROOT
BRANCH   7  18
ATOM     18  C   UNL     1       2.035   4.677  19.780  0.00  0.00    +0.000 A 
ATOM     19  C   UNL     1       1.330   3.611  19.190  0.00  0.00    +0.000 A 
ATOM     20  C   UNL     1       1.107   2.410  19.872  0.00  0.00    +0.000 A 
ATOM     21  C   UNL     1       1.518   2.274  21.194  0.00  0.00    +0.000 A 
ATOM     22  C   UNL     1       2.132   3.343  21.837  0.00  0.00    +0.000 A 
ATOM     23  C   UNL     1       2.388   4.529  21.137  0.00  0.00    +0.000 A 
ENDBRANCH   7  18
BRANCH   1  24
ATOM     24  C   UNL     1      -0.005  12.385  20.648  0.00  0.00    +0.000 C 
BRANCH  24  25
ATOM     25  C   UNL     1      -0.949  12.600  21.840  0.00  0.00    +0.000 C 
BRANCH  25  26
ATOM     26  O   UNL     1      -0.474  11.844  22.954  0.00  0.00    +0.000 OA
ATOM     27  H   UNL     1      -0.102  12.482  23.587  0.00  0.00    +0.000 HD
ENDBRANCH  25  26
ENDBRANCH  24  25
ENDBRANCH   1  24
TORSDOF 4
ENDMDL
MODEL 2
REMARK VINA RESULT:      -7.5      0.853      1.266
REMARK  Name = 
REMARK  4 active torsions:
REMARK  status: ('A' for Active; 'I' for Inactive)
REMARK    1  A    between atoms: O_1  and  C_2
REMARK    2  A    between atoms: C_2  and  C_3
REMARK    3  A    between atoms: C_3  and  N_4
REMARK    4  A    between atoms: C_10  and  C_11
REMARK                            x       y       z     vdW  Elec       q    Type
REMARK                         _______ _______ _______ _____ _____    ______ ____
ROOT
ATOM      1  N   UNL     1      -0.518  11.472  19.445  0.00  0.00    +0.000 NA
ATOM      2  C   UNL     1       0.443  11.387  18.311  0.00  0.00    +0.000 C 
ATOM      3  C   UNL     1       1.776  10.658  18.621  0.00  0.00    +0.000 C 
ATOM      4  N   UNL     1       1.511   9.365  19.255  0.00  0.00    +0.000 N 
ATOM      5  C   UNL     1       2.137   8.226  18.828  0.00  0.00    +0.000 A 
ATOM      6  N   UNL     1       1.872   7.061  19.431  0.00  0.00    +0.000 NA
ATOM      7  C   UNL     1       2.499   5.938  19.001  0.00  0.00    +0.000 A 
ATOM      8  C   UNL     1       3.437   5.966  17.948  0.00  0.00    +0.000 A 
ATOM      9  C   UNL     1       4.208   4.881  17.442  0.00  0.00    +0.000 A 
ATOM     10  C   UNL     1       5.089   5.057  16.377  0.00  0.00    +0.000 A 
ATOM     11 CL   UNL     1       5.970   3.715  15.765  0.00  0.00    +0.000 Cl
ATOM     12  C   UNL     1       5.252   6.310  15.814  0.00  0.00    +0.000 A 
ATOM     13  C   UNL     1       4.519   7.382  16.329  0.00  0.00    +0.000 A 
ATOM     14  C   UNL     1       3.622   7.230  17.383  0.00  0.00    +0.000 A 
ATOM     15  N   UNL     1       2.993   8.321  17.807  0.00  0.00    +0.000 NA
ATOM     16  C   UNL     1       0.573   9.350  20.370  0.00  0.00    +0.000 C 
ATOM     17  C   UNL     1      -0.720  10.096  19.965  0.00  0.00    +0.000 C 
ENDROOT
BRANCH   7  18
ATOM     18  C   UNL     1       2.143   4.722  19.782  0.00  0.00    +0.000 A 
ATOM     19  C   UNL     1       2.637   4.468  21.075  0.00  0.00    +0.000 A 
ATOM     20  C   UNL     1       2.176   3.390  21.839  0.00  0.00    +0.000 A 
ATOM     21  C   UNL     1       1.264   2.492  21.296  0.00  0.00    +0.000 A 
ATOM     22  C   UNL     1       0.829   2.661  19.985  0.00  0.00    +0.000 A 
ATOM     23  C   UNL     1       1.263   3.764  19.240  0.00  0.00    +0.000 A 
ENDBRANCH   7  18
BRANCH   1  24
ATOM     24  C   UNL     1      -0.017  12.417  20.461  0.00  0.00    +0.000 C 
BRANCH  24  25
ATOM     25  C   UNL     1      -0.954  13.590  20.780  0.00  0.00    +0.000 C 
BRANCH  25  26
ATOM     26  O   UNL     1      -1.881  13.753  19.709  0.00  0.00    +0.000 OA
ATOM     27  H   UNL     1      -1.366  13.717  18.884  0.00  0.00    +0.000 HD
ENDBRANCH  25  26
ENDBRANCH  24  25
ENDBRANCH   1  24
TORSDOF 4
ENDMDL
MODEL 3
REMARK VINA RESULT:      -7.2      2.170      4.569
REMARK  Name = 
REMARK  4 active torsions:
REMARK  status: ('A' for Active; 'I' for Inactive)
REMARK    1  A    between atoms: O_1  and  C_2
REMARK    2  A    between atoms: C_2  and  C_3
REMARK    3  A    between atoms: C_3  and  N_4
REMARK    4  A    between atoms: C_10  and  C_11
REMARK                            x       y       z     vdW  Elec       q    Type
REMARK                         _______ _______ _______ _____ _____    ______ ____
ROOT
ATOM      1  N   UNL     1       1.020  11.112  19.522  0.00  0.00    +0.000 NA
ATOM      2  C   UNL     1       0.856  10.049  20.552  0.00  0.00    +0.000 C 
ATOM      3  C   UNL     1       0.663   8.613  20.001  0.00  0.00    +0.000 C 
ATOM      4  N   UNL     1       1.697   8.307  19.012  0.00  0.00    +0.000 N 
ATOM      5  C   UNL     1       2.393   7.129  19.055  0.00  0.00    +0.000 A 
ATOM      6  N   UNL     1       3.331   6.881  18.135  0.00  0.00    +0.000 NA
ATOM      7  C   UNL     1       4.014   5.711  18.186  0.00  0.00    +0.000 A 
ATOM      8  C   UNL     1       3.750   4.739  19.174  0.00  0.00    +0.000 A 
ATOM      9  C   UNL     1       4.344   3.451  19.306  0.00  0.00    +0.000 A 
ATOM     10  C   UNL     1       3.994   2.599  20.352  0.00  0.00    +0.000 A 
ATOM     11 CL   UNL     1       4.764   1.071  20.504  0.00  0.00    +0.000 Cl
ATOM     12  C   UNL     1       3.029   2.985  21.264  0.00  0.00    +0.000 A 
ATOM     13  C   UNL     1       2.423   4.235  21.119  0.00  0.00    +0.000 A 
ATOM     14  C   UNL     1       2.765   5.111  20.092  0.00  0.00    +0.000 A 
ATOM     15  N   UNL     1       2.111   6.266  20.035  0.00  0.00    +0.000 NA
ATOM     16  C   UNL     1       1.935   9.296  17.969  0.00  0.00    +0.000 C 
ATOM     17  C   UNL     1       2.116  10.690  18.614  0.00  0.00    +0.000 C 
ENDROOT
BRANCH   7  18
ATOM     18  C   UNL     1       4.998   5.546  17.082  0.00  0.00    +0.000 A 
ATOM     19  C   UNL     1       6.249   6.191  17.066  0.00  0.00    +0.000 A 
ATOM     20  C   UNL     1       7.208   5.908  16.088  0.00  0.00    +0.000 A 
ATOM     21  C   UNL     1       6.910   5.029  15.054  0.00  0.00    +0.000 A 
ATOM     22  C   UNL     1       5.647   4.448  14.987  0.00  0.00    +0.000 A 
ATOM     23  C   UNL     1       4.705   4.704  15.991  0.00  0.00    +0.000 A 
ENDBRANCH   7  18
BRANCH   1  24
ATOM     24  C   UNL     1      -0.261  11.345  18.829  0.00  0.00    +0.000 C 
BRANCH  24  25
ATOM     25  C   UNL     1      -0.525  12.800  18.415  0.00  0.00    +0.000 C 
BRANCH  25  26
ATOM     26  O   UNL     1      -1.221  12.812  17.170  0.00  0.00    +0.000 OA
ATOM     27  H   UNL     1      -1.886  12.102  17.213  0.00  0.00    +0.000 HD
ENDBRANCH  25  26
ENDBRANCH  24  25
ENDBRANCH   1  24
TORSDOF 4
ENDMDL
MODEL 4
REMARK VINA RESULT:      -6.7      1.992      4.395
REMARK  Name = 
REMARK  4 active torsions:
REMARK  status: ('A' for Active; 'I' for Inactive)
REMARK    1  A    between atoms: O_1  and  C_2
REMARK    2  A    between atoms: C_2  and  C_3
REMARK    3  A    between atoms: C_3  and  N_4
REMARK    4  A    between atoms: C_10  and  C_11
REMARK                            x       y       z     vdW  Elec       q    Type
REMARK                         _______ _______ _______ _____ _____    ______ ____
ROOT
ATOM      1  N   UNL     1       1.047  11.488  19.240  0.00  0.00    +0.000 NA
ATOM      2  C   UNL     1       0.794  10.468  20.295  0.00  0.00    +0.000 C 
ATOM      3  C   UNL     1       0.586   9.019  19.784  0.00  0.00    +0.000 C 
ATOM      4  N   UNL     1       1.662   8.647  18.865  0.00  0.00    +0.000 N 
ATOM      5  C   UNL     1       2.317   7.451  18.987  0.00  0.00    +0.000 A 
ATOM      6  N   UNL     1       3.295   7.142  18.129  0.00  0.00    +0.000 NA
ATOM      7  C   UNL     1       3.936   5.955  18.258  0.00  0.00    +0.000 A 
ATOM      8  C   UNL     1       3.588   5.027  19.262  0.00  0.00    +0.000 A 
ATOM      9  C   UNL     1       4.133   3.728  19.471  0.00  0.00    +0.000 A 
ATOM     10  C   UNL     1       3.700   2.925  20.524  0.00  0.00    +0.000 A 
ATOM     11 CL   UNL     1       4.412   1.381  20.771  0.00  0.00    +0.000 Cl
ATOM     12  C   UNL     1       2.700   3.371  21.368  0.00  0.00    +0.000 A 
ATOM     13  C   UNL     1       2.142   4.634  21.146  0.00  0.00    +0.000 A 
ATOM     14  C   UNL     1       2.567   5.461  20.111  0.00  0.00    +0.000 A 
ATOM     15  N   UNL     1       1.954   6.632  19.979  0.00  0.00    +0.000 NA
ATOM     16  C   UNL     1       1.988   9.591  17.803  0.00  0.00    +0.000 C 
ATOM     17  C   UNL     1       2.177  11.001  18.410  0.00  0.00    +0.000 C 
ENDROOT
BRANCH   7  18
ATOM     18  C   UNL     1       4.973   5.722  17.217  0.00  0.00    +0.000 A 
ATOM     19  C   UNL     1       4.758   4.911  16.086  0.00  0.00    +0.000 A 
ATOM     20  C   UNL     1       5.699   4.824  15.055  0.00  0.00    +0.000 A 
ATOM     21  C   UNL     1       6.917   5.486  15.166  0.00  0.00    +0.000 A 
ATOM     22  C   UNL     1       7.199   6.217  16.315  0.00  0.00    +0.000 A 
ATOM     23  C   UNL     1       6.238   6.334  17.326  0.00  0.00    +0.000 A 
ENDBRANCH   7  18
BRANCH   1  24
ATOM     24  C   UNL     1      -0.186  11.734  18.471  0.00  0.00    +0.000 C 
BRANCH  24  25
ATOM     25  C   UNL     1      -1.120  12.802  19.057  0.00  0.00    +0.000 C 
BRANCH  25  26
ATOM     26  O   UNL     1      -2.473  12.442  18.782  0.00  0.00    +0.000 OA
ATOM     27  H   UNL     1      -2.492  11.473  18.691  0.00  0.00    +0.000 HD
ENDBRANCH  25  26
ENDBRANCH  24  25
ENDBRANCH   1  24
TORSDOF 4
ENDMDL
MODEL 5
REMARK VINA RESULT:      -6.4      4.075      7.024
REMARK  Name = 
REMARK  4 active torsions:
REMARK  status: ('A' for Active; 'I' for Inactive)
REMARK    1  A    between atoms: O_1  and  C_2
REMARK    2  A    between atoms: C_2  and  C_3
REMARK    3  A    between atoms: C_3  and  N_4
REMARK    4  A    between atoms: C_10  and  C_11
REMARK                            x       y       z     vdW  Elec       q    Type
REMARK                         _______ _______ _______ _____ _____    ______ ____
ROOT
ATOM      1  N   UNL     1       7.383   5.021  15.106  0.00  0.00    +0.000 NA
ATOM      2  C   UNL     1       6.927   6.426  15.292  0.00  0.00    +0.000 C 
ATOM      3  C   UNL     1       5.392   6.620  15.389  0.00  0.00    +0.000 C 
ATOM      4  N   UNL     1       4.825   5.693  16.369  0.00  0.00    +0.000 N 
ATOM      5  C   UNL     1       3.941   6.121  17.322  0.00  0.00    +0.000 A 
ATOM      6  N   UNL     1       3.442   5.246  18.202  0.00  0.00    +0.000 NA
ATOM      7  C   UNL     1       2.566   5.681  19.141  0.00  0.00    +0.000 A 
ATOM      8  C   UNL     1       2.152   7.028  19.205  0.00  0.00    +0.000 A 
ATOM      9  C   UNL     1       1.198   7.602  20.094  0.00  0.00    +0.000 A 
ATOM     10  C   UNL     1       0.901   8.963  20.051  0.00  0.00    +0.000 A 
ATOM     11 CL   UNL     1      -0.223   9.628  21.168  0.00  0.00    +0.000 Cl
ATOM     12  C   UNL     1       1.511   9.775  19.113  0.00  0.00    +0.000 A 
ATOM     13  C   UNL     1       2.424   9.207  18.220  0.00  0.00    +0.000 A 
ATOM     14  C   UNL     1       2.749   7.854  18.250  0.00  0.00    +0.000 A 
ATOM     15  N   UNL     1       3.614   7.416  17.343  0.00  0.00    +0.000 NA
ATOM     16  C   UNL     1       5.224   4.294  16.272  0.00  0.00    +0.000 C 
ATOM     17  C   UNL     1       6.765   4.205  16.181  0.00  0.00    +0.000 C 
ENDROOT
BRANCH   7  18
ATOM     18  C   UNL     1       2.059   4.599  20.029  0.00  0.00    +0.000 A 
ATOM     19  C   UNL     1       1.056   3.692  19.639  0.00  0.00    +0.000 A 
ATOM     20  C   UNL     1       0.701   2.601  20.440  0.00  0.00    +0.000 A 
ATOM     21  C   UNL     1       1.287   2.435  21.689  0.00  0.00    +0.000 A 
ATOM     22  C   UNL     1       2.212   3.369  22.145  0.00  0.00    +0.000 A 
ATOM     23  C   UNL     1       2.593   4.436  21.323  0.00  0.00    +0.000 A 
ENDBRANCH   7  18
BRANCH   1  24
ATOM     24  C   UNL     1       7.046   4.557  13.747  0.00  0.00    +0.000 C 
BRANCH  24  25
ATOM     25  C   UNL     1       7.772   5.289  12.609  0.00  0.00    +0.000 C 
BRANCH  25  26
ATOM     26  O   UNL     1       8.930   5.937  13.133  0.00  0.00    +0.000 OA
ATOM     27  H   UNL     1       9.701   5.500  12.732  0.00  0.00    +0.000 HD
ENDBRANCH  25  26
ENDBRANCH  24  25
ENDBRANCH   1  24
TORSDOF 4
ENDMDL
MODEL 6
REMARK VINA RESULT:      -6.3      2.072      4.508
REMARK  Name = 
REMARK  4 active torsions:
REMARK  status: ('A' for Active; 'I' for Inactive)
REMARK    1  A    between atoms: O_1  and  C_2
REMARK    2  A    between atoms: C_2  and  C_3
REMARK    3  A    between atoms: C_3  and  N_4
REMARK    4  A    between atoms: C_10  and  C_11
REMARK                            x       y       z     vdW  Elec       q    Type
REMARK                         _______ _______ _______ _____ _____    ______ ____
ROOT
ATOM      1  N   UNL     1       0.293  10.757  21.232  0.00  0.00    +0.000 NA
ATOM      2  C   UNL     1       0.150   9.491  22.004  0.00  0.00    +0.000 C 
ATOM      3  C   UNL     1       0.098   8.196  21.153  0.00  0.00    +0.000 C 
ATOM      4  N   UNL     1       1.208   8.171  20.200  0.00  0.00    +0.000 N 
ATOM      5  C   UNL     1       1.987   7.056  20.047  0.00  0.00    +0.000 A 
ATOM      6  N   UNL     1       2.992   7.067  19.166  0.00  0.00    +0.000 NA
ATOM      7  C   UNL     1       3.757   5.957  19.022  0.00  0.00    +0.000 A 
ATOM      8  C   UNL     1       3.511   4.783  19.764  0.00  0.00    +0.000 A 
ATOM      9  C   UNL     1       4.191   3.536  19.668  0.00  0.00    +0.000 A 
ATOM     10  C   UNL     1       3.847   2.461  20.486  0.00  0.00    +0.000 A 
ATOM     11 CL   UNL     1       4.720   0.986  20.372  0.00  0.00    +0.000 Cl
ATOM     12  C   UNL     1       2.805   2.584  21.386  0.00  0.00    +0.000 A 
ATOM     13  C   UNL     1       2.115   3.797  21.460  0.00  0.00    +0.000 A 
ATOM     14  C   UNL     1       2.449   4.890  20.665  0.00  0.00    +0.000 A 
ATOM     15  N   UNL     1       1.714   5.988  20.803  0.00  0.00    +0.000 NA
ATOM     16  C   UNL     1       1.431   9.372  19.405  0.00  0.00    +0.000 C 
ATOM     17  C   UNL     1       1.469  10.605  20.338  0.00  0.00    +0.000 C 
ENDROOT
BRANCH   7  18
ATOM     18  C   UNL     1       4.813   6.092  17.982  0.00  0.00    +0.000 A 
ATOM     19  C   UNL     1       6.179   6.237  18.289  0.00  0.00    +0.000 A 
ATOM     20  C   UNL     1       7.161   6.220  17.293  0.00  0.00    +0.000 A 
ATOM     21  C   UNL     1       6.795   6.135  15.955  0.00  0.00    +0.000 A 
ATOM     22  C   UNL     1       5.447   6.087  15.613  0.00  0.00    +0.000 A 
ATOM     23  C   UNL     1       4.470   6.064  16.615  0.00  0.00    +0.000 A 
ENDBRANCH   7  18
BRANCH   1  24
ATOM     24  C   UNL     1      -0.960  11.052  20.512  0.00  0.00    +0.000 C 
BRANCH  24  25
ATOM     25  C   UNL     1      -0.862  12.165  19.459  0.00  0.00    +0.000 C 
BRANCH  25  26
ATOM     26  O   UNL     1      -1.938  12.028  18.532  0.00  0.00    +0.000 OA
ATOM     27  H   UNL     1      -2.637  12.639  18.822  0.00  0.00    +0.000 HD
ENDBRANCH  25  26
ENDBRANCH  24  25
ENDBRANCH   1  24
TORSDOF 4
ENDMDL
MODEL 7
REMARK VINA RESULT:      -6.2      1.864      4.410
REMARK  Name = 
REMARK  4 active torsions:
REMARK  status: ('A' for Active; 'I' for Inactive)
REMARK    1  A    between atoms: O_1  and  C_2
REMARK    2  A    between atoms: C_2  and  C_3
REMARK    3  A    between atoms: C_3  and  N_4
REMARK    4  A    between atoms: C_10  and  C_11
REMARK                            x       y       z     vdW  Elec       q    Type
REMARK                         _______ _______ _______ _____ _____    ______ ____
ROOT
ATOM      1  N   UNL     1       0.330  10.709  21.893  0.00  0.00    +0.000 NA
ATOM      2  C   UNL     1       0.202   9.388  22.567  0.00  0.00    +0.000 C 
ATOM      3  C   UNL     1       0.080   8.167  21.619  0.00  0.00    +0.000 C 
ATOM      4  N   UNL     1       1.139   8.202  20.609  0.00  0.00    +0.000 N 
ATOM      5  C   UNL     1       1.887   7.092  20.326  0.00  0.00    +0.000 A 
ATOM      6  N   UNL     1       2.845   7.159  19.396  0.00  0.00    +0.000 NA
ATOM      7  C   UNL     1       3.580   6.053  19.123  0.00  0.00    +0.000 A 
ATOM      8  C   UNL     1       3.349   4.826  19.780  0.00  0.00    +0.000 A 
ATOM      9  C   UNL     1       3.999   3.580  19.548  0.00  0.00    +0.000 A 
ATOM     10  C   UNL     1       3.676   2.448  20.294  0.00  0.00    +0.000 A 
ATOM     11 CL   UNL     1       4.512   0.973  20.015  0.00  0.00    +0.000 Cl
ATOM     12  C   UNL     1       2.684   2.513  21.255  0.00  0.00    +0.000 A 
ATOM     13  C   UNL     1       2.023   3.727  21.463  0.00  0.00    +0.000 A 
ATOM     14  C   UNL     1       2.337   4.876  20.742  0.00  0.00    +0.000 A 
ATOM     15  N   UNL     1       1.633   5.970  21.007  0.00  0.00    +0.000 NA
ATOM     16  C   UNL     1       1.344   9.461  19.903  0.00  0.00    +0.000 C 
ATOM     17  C   UNL     1       1.454  10.613  20.929  0.00  0.00    +0.000 C 
ENDROOT
BRANCH   7  18
ATOM     18  C   UNL     1       4.583   6.255  18.043  0.00  0.00    +0.000 A 
ATOM     19  C   UNL     1       5.969   6.124  18.248  0.00  0.00    +0.000 A 
ATOM     20  C   UNL     1       6.877   6.181  17.185  0.00  0.00    +0.000 A 
ATOM     21  C   UNL     1       6.427   6.450  15.898  0.00  0.00    +0.000 A 
ATOM     22  C   UNL     1       5.073   6.680  15.677  0.00  0.00    +0.000 A 
ATOM     23  C   UNL     1       4.164   6.582  16.738  0.00  0.00    +0.000 A 
ENDBRANCH   7  18
BRANCH   1  24
ATOM     24  C   UNL     1      -0.953  11.082  21.267  0.00  0.00    +0.000 C 
BRANCH  24  25
ATOM     25  C   UNL     1      -1.906  11.888  22.161  0.00  0.00    +0.000 C 
BRANCH  25  26
ATOM     26  O   UNL     1      -1.143  12.617  23.120  0.00  0.00    +0.000 OA
ATOM     27  H   UNL     1      -0.295  12.836  22.696  0.00  0.00    +0.000 HD
ENDBRANCH  25  26
ENDBRANCH  24  25
ENDBRANCH   1  24
TORSDOF 4
ENDMDL
MODEL 8
REMARK VINA RESULT:      -6.0      1.957      4.306
REMARK  Name = 
REMARK  4 active torsions:
REMARK  status: ('A' for Active; 'I' for Inactive)
REMARK    1  A    between atoms: O_1  and  C_2
REMARK    2  A    between atoms: C_2  and  C_3
REMARK    3  A    between atoms: C_3  and  N_4
REMARK    4  A    between atoms: C_10  and  C_11
REMARK                            x       y       z     vdW  Elec       q    Type
REMARK                         _______ _______ _______ _____ _____    ______ ____
ROOT
ATOM      1  N   UNL     1       0.224  10.431  22.329  0.00  0.00    +0.000 NA
ATOM      2  C   UNL     1      -0.218   9.041  22.628  0.00  0.00    +0.000 C 
ATOM      3  C   UNL     1      -0.265   8.082  21.410  0.00  0.00    +0.000 C 
ATOM      4  N   UNL     1       0.995   8.143  20.668  0.00  0.00    +0.000 N 
ATOM      5  C   UNL     1       1.646   7.003  20.282  0.00  0.00    +0.000 A 
ATOM      6  N   UNL     1       2.796   7.095  19.604  0.00  0.00    +0.000 NA
ATOM      7  C   UNL     1       3.432   5.959  19.225  0.00  0.00    +0.000 A 
ATOM      8  C   UNL     1       2.906   4.681  19.511  0.00  0.00    +0.000 A 
ATOM      9  C   UNL     1       3.434   3.418  19.121  0.00  0.00    +0.000 A 
ATOM     10  C   UNL     1       2.810   2.229  19.494  0.00  0.00    +0.000 A 
ATOM     11 CL   UNL     1       3.501   0.722  19.042  0.00  0.00    +0.000 Cl
ATOM     12  C   UNL     1       1.638   2.264  20.226  0.00  0.00    +0.000 A 
ATOM     13  C   UNL     1       1.101   3.504  20.584  0.00  0.00    +0.000 A 
ATOM     14  C   UNL     1       1.712   4.705  20.236  0.00  0.00    +0.000 A 
ATOM     15  N   UNL     1       1.105   5.826  20.610  0.00  0.00    +0.000 NA
ATOM     16  C   UNL     1       1.512   9.466  20.340  0.00  0.00    +0.000 C 
ATOM     17  C   UNL     1       1.522  10.344  21.612  0.00  0.00    +0.000 C 
ENDROOT
BRANCH   7  18
ATOM     18  C   UNL     1       4.675   6.205  18.446  0.00  0.00    +0.000 A 
ATOM     19  C   UNL     1       4.677   6.796  17.169  0.00  0.00    +0.000 A 
ATOM     20  C   UNL     1       5.868   7.142  16.522  0.00  0.00    +0.000 A 
ATOM     21  C   UNL     1       7.092   6.835  17.104  0.00  0.00    +0.000 A 
ATOM     22  C   UNL     1       7.125   6.164  18.322  0.00  0.00    +0.000 A 
ATOM     23  C   UNL     1       5.930   5.855  18.984  0.00  0.00    +0.000 A 
ENDBRANCH   7  18
BRANCH   1  24
ATOM     24  C   UNL     1      -0.822  11.141  21.569  0.00  0.00    +0.000 C 
BRANCH  24  25
ATOM     25  C   UNL     1      -1.768  12.007  22.412  0.00  0.00    +0.000 C 
BRANCH  25  26
ATOM     26  O   UNL     1      -1.004  12.739  23.369  0.00  0.00    +0.000 OA
ATOM     27  H   UNL     1      -0.849  12.142  24.121  0.00  0.00    +0.000 HD
ENDBRANCH  25  26
ENDBRANCH  24  25
ENDBRANCH   1  24
TORSDOF 4
ENDMDL
MODEL 9
REMARK VINA RESULT:      -5.8      5.933      9.080
REMARK  Name = 
REMARK  4 active torsions:
REMARK  status: ('A' for Active; 'I' for Inactive)
REMARK    1  A    between atoms: O_1  and  C_2
REMARK    2  A    between atoms: C_2  and  C_3
REMARK    3  A    between atoms: C_3  and  N_4
REMARK    4  A    between atoms: C_10  and  C_11
REMARK                            x       y       z     vdW  Elec       q    Type
REMARK                         _______ _______ _______ _____ _____    ______ ____
ROOT
ATOM      1  N   UNL     1       2.346  17.253  18.461  0.00  0.00    +0.000 NA
ATOM      2  C   UNL     1       1.231  17.726  19.327  0.00  0.00    +0.000 C 
ATOM      3  C   UNL     1      -0.043  16.842  19.313  0.00  0.00    +0.000 C 
ATOM      4  N   UNL     1       0.311  15.440  19.538  0.00  0.00    +0.000 N 
ATOM      5  C   UNL     1      -0.370  14.674  20.444  0.00  0.00    +0.000 A 
ATOM      6  N   UNL     1      -0.021  13.395  20.623  0.00  0.00    +0.000 NA
ATOM      7  C   UNL     1      -0.704  12.644  21.522  0.00  0.00    +0.000 A 
ATOM      8  C   UNL     1      -1.785  13.169  22.261  0.00  0.00    +0.000 A 
ATOM      9  C   UNL     1      -2.621  12.480  23.185  0.00  0.00    +0.000 A 
ATOM     10  C   UNL     1      -3.647  13.138  23.859  0.00  0.00    +0.000 A 
ATOM     11 CL   UNL     1      -4.608  12.284  24.999  0.00  0.00    +0.000 Cl
ATOM     12  C   UNL     1      -3.890  14.477  23.611  0.00  0.00    +0.000 A 
ATOM     13  C   UNL     1      -3.090  15.147  22.682  0.00  0.00    +0.000 A 
ATOM     14  C   UNL     1      -2.050  14.516  22.006  0.00  0.00    +0.000 A 
ATOM     15  N   UNL     1      -1.366  15.243  21.130  0.00  0.00    +0.000 NA
ATOM     16  C   UNL     1       1.401  14.892  18.741  0.00  0.00    +0.000 C 
ATOM     17  C   UNL     1       2.621  15.839  18.818  0.00  0.00    +0.000 C 
ENDROOT
BRANCH   7  18
ATOM     18  C   UNL     1      -0.239  11.232  21.594  0.00  0.00    +0.000 A 
ATOM     19  C   UNL     1      -0.556  10.373  22.663  0.00  0.00    +0.000 A 
ATOM     20  C   UNL     1      -0.224   9.014  22.636  0.00  0.00    +0.000 A 
ATOM     21  C   UNL     1       0.504   8.496  21.571  0.00  0.00    +0.000 A 
ATOM     22  C   UNL     1       0.916   9.340  20.544  0.00  0.00    +0.000 A 
ATOM     23  C   UNL     1       0.547  10.691  20.558  0.00  0.00    +0.000 A 
ENDBRANCH   7  18
BRANCH   1  24
ATOM     24  C   UNL     1       1.998  17.445  17.041  0.00  0.00    +0.000 C 
BRANCH  24  25
ATOM     25  C   UNL     1       1.067  18.631  16.751  0.00  0.00    +0.000 C 
BRANCH  25  26
ATOM     26  O   UNL     1       0.421  18.422  15.496  0.00  0.00    +0.000 OA
ATOM     27  H   UNL     1      -0.450  18.852  15.553  0.00  0.00    +0.000 HD
ENDBRANCH  25  26
ENDBRANCH  24  25
ENDBRANCH   1  24
TORSDOF 4
ENDMDL
