MODEL 1
REMARK VINA RESULT:      -7.6      0.000      0.000
REMARK  Name = 
REMARK  6 active torsions:
REMARK  status: ('A' for Active; 'I' for Inactive)
REMARK    1  A    between atoms: C_1  and  C_2
REMARK    2  A    between atoms: C_5  and  N_6
REMARK    3  A    between atoms: N_9  and  C_10
REMARK    4  A    between atoms: C_10  and  C_11
REMARK    5  A    between atoms: N_13  and  S_14
REMARK    6  A    between atoms: S_14  and  C_17
REMARK                            x       y       z     vdW  Elec       q    Type
REMARK                         _______ _______ _______ _____ _____    ______ ____
ROOT
ATOM      1  C   UNL     1       4.526   5.616  18.745  0.00  0.00    +0.000 C 
ATOM      2  O   UNL     1       4.412   6.590  18.011  0.00  0.00    +0.000 OA
ATOM      3  N   UNL     1       5.709   4.863  18.812  0.00  0.00    +0.000 N 
ATOM      4  H   UNL     1       5.805   4.049  19.421  0.00  0.00    +0.000 HD
ENDROOT
BRANCH   3   5
ATOM      5  S   UNL     1       7.096   5.218  17.952  0.00  0.00    +0.000 S 
ATOM      6  O   UNL     1       7.202   6.663  17.947  0.00  0.00    +0.000 OA
ATOM      7  O   UNL     1       8.165   4.389  18.450  0.00  0.00    +0.000 OA
BRANCH   5   8
ATOM      8  C   UNL     1       6.694   4.728  16.289  0.00  0.00    +0.000 A 
ATOM      9  C   UNL     1       5.591   3.894  16.070  0.00  0.00    +0.000 A 
ATOM     10  C   UNL     1       5.285   3.484  14.770  0.00  0.00    +0.000 A 
ATOM     11  C   UNL     1       6.070   3.918  13.700  0.00  0.00    +0.000 A 
ATOM     12 CL   UNL     1       5.697   3.396  12.104  0.00  0.00    +0.000 Cl
ATOM     13  C   UNL     1       7.156   4.768  13.916  0.00  0.00    +0.000 A 
ATOM     14  C   UNL     1       7.470   5.180  15.216  0.00  0.00    +0.000 A 
ENDBRANCH   5   8
ENDBRANCH   3   5
BRANCH   1  15
ATOM     15  C   UNL     1       3.400   5.202  19.662  0.00  0.00    +0.000 C 
BRANCH  15  21
ATOM     16  C   UNL     1       1.269   5.028  17.435  0.00  0.00    +0.000 C 
ATOM     17  C   UNL     1       1.748   3.895  18.272  0.00  0.00    +0.000 A 
ATOM     18  N   UNL     1       1.257   2.673  18.205  0.00  0.00    +0.000 NA
ATOM     19  C   UNL     1       1.937   1.930  19.128  0.00  0.00    +0.000 A 
ATOM     20  C   UNL     1       2.863   2.710  19.770  0.00  0.00    +0.000 A 
ATOM     21  N   UNL     1       2.743   3.975  19.239  0.00  0.00    +0.000 N 
BRANCH  20  22
ATOM     22  N   UNL     1       3.767   2.310  20.791  0.00  0.00    +0.000 N 
ATOM     23  O   UNL     1       3.301   2.182  21.927  0.00  0.00    +0.000 OA
ATOM     24  O   UNL     1       4.946   2.115  20.464  0.00  0.00    +0.000 OA
ENDBRANCH  20  22
ENDBRANCH  15  21
ENDBRANCH   1  15
TORSDOF 5
ENDMDL
MODEL 2
REMARK VINA RESULT:      -7.5      1.124      1.322
REMARK  Name = 
REMARK  6 active torsions:
REMARK  status: ('A' for Active; 'I' for Inactive)
REMARK    1  A    between atoms: C_1  and  C_2
REMARK    2  A    between atoms: C_5  and  N_6
REMARK    3  A    between atoms: N_9  and  C_10
REMARK    4  A    between atoms: C_10  and  C_11
REMARK    5  A    between atoms: N_13  and  S_14
REMARK    6  A    between atoms: S_14  and  C_17
REMARK                            x       y       z     vdW  Elec       q    Type
REMARK                         _______ _______ _______ _____ _____    ______ ____
ROOT
ATOM      1  C   UNL     1       5.597   5.355  19.147  0.00  0.00    +0.000 C 
ATOM      2  O   UNL     1       6.573   5.088  19.838  0.00  0.00    +0.000 OA
ATOM      3  N   UNL     1       5.693   5.559  17.761  0.00  0.00    +0.000 N 
ATOM      4  H   UNL     1       4.881   5.785  17.185  0.00  0.00    +0.000 HD
ENDROOT
BRANCH   3   5
ATOM      5  S   UNL     1       7.112   5.422  16.891  0.00  0.00    +0.000 S 
ATOM      6  O   UNL     1       7.561   6.777  16.646  0.00  0.00    +0.000 OA
ATOM      7  O   UNL     1       7.958   4.458  17.548  0.00  0.00    +0.000 OA
BRANCH   5   8
ATOM      8  C   UNL     1       6.579   4.767  15.323  0.00  0.00    +0.000 A 
ATOM      9  C   UNL     1       5.313   4.178  15.224  0.00  0.00    +0.000 A 
ATOM     10  C   UNL     1       4.899   3.639  14.003  0.00  0.00    +0.000 A 
ATOM     11  C   UNL     1       5.741   3.703  12.891  0.00  0.00    +0.000 A 
ATOM     12 CL   UNL     1       5.230   3.024  11.395  0.00  0.00    +0.000 Cl
ATOM     13  C   UNL     1       6.994   4.313  12.985  0.00  0.00    +0.000 A 
ATOM     14  C   UNL     1       7.417   4.851  14.205  0.00  0.00    +0.000 A 
ENDBRANCH   5   8
ENDBRANCH   3   5
BRANCH   1  15
ATOM     15  C   UNL     1       4.217   5.431  19.754  0.00  0.00    +0.000 C 
BRANCH  15  21
ATOM     16  C   UNL     1       2.138   6.092  17.570  0.00  0.00    +0.000 C 
ATOM     17  C   UNL     1       2.317   4.770  18.232  0.00  0.00    +0.000 A 
ATOM     18  N   UNL     1       1.545   3.726  18.004  0.00  0.00    +0.000 NA
ATOM     19  C   UNL     1       2.012   2.718  18.801  0.00  0.00    +0.000 A 
ATOM     20  C   UNL     1       3.090   3.154  19.525  0.00  0.00    +0.000 A 
ATOM     21  N   UNL     1       3.288   4.471  19.179  0.00  0.00    +0.000 N 
BRANCH  20  22
ATOM     22  N   UNL     1       3.856   2.407  20.461  0.00  0.00    +0.000 N 
ATOM     23  O   UNL     1       4.943   1.972  20.069  0.00  0.00    +0.000 OA
ATOM     24  O   UNL     1       3.381   2.255  21.595  0.00  0.00    +0.000 OA
ENDBRANCH  20  22
ENDBRANCH  15  21
ENDBRANCH   1  15
TORSDOF 5
ENDMDL
MODEL 3
REMARK VINA RESULT:      -7.5      0.194      1.030
REMARK  Name = 
REMARK  6 active torsions:
REMARK  status: ('A' for Active; 'I' for Inactive)
REMARK    1  A    between atoms: C_1  and  C_2
REMARK    2  A    between atoms: C_5  and  N_6
REMARK    3  A    between atoms: N_9  and  C_10
REMARK    4  A    between atoms: C_10  and  C_11
REMARK    5  A    between atoms: N_13  and  S_14
REMARK    6  A    between atoms: S_14  and  C_17
REMARK                            x       y       z     vdW  Elec       q    Type
REMARK                         _______ _______ _______ _____ _____    ______ ____
ROOT
ATOM      1  C   UNL     1       4.731   5.518  18.698  0.00  0.00    +0.000 C 
ATOM      2  O   UNL     1       4.618   6.462  17.924  0.00  0.00    +0.000 OA
ATOM      3  N   UNL     1       5.899   4.743  18.767  0.00  0.00    +0.000 N 
ATOM      4  H   UNL     1       5.994   3.954  19.409  0.00  0.00    +0.000 HD
ENDROOT
BRANCH   3   5
ATOM      5  S   UNL     1       7.269   5.029  17.857  0.00  0.00    +0.000 S 
ATOM      6  O   UNL     1       7.454   6.466  17.856  0.00  0.00    +0.000 OA
ATOM      7  O   UNL     1       8.310   4.139  18.308  0.00  0.00    +0.000 OA
BRANCH   5   8
ATOM      8  C   UNL     1       6.778   4.574  16.207  0.00  0.00    +0.000 A 
ATOM      9  C   UNL     1       7.488   5.091  15.117  0.00  0.00    +0.000 A 
ATOM     10  C   UNL     1       7.093   4.759  13.818  0.00  0.00    +0.000 A 
ATOM     11  C   UNL     1       6.005   3.907  13.618  0.00  0.00    +0.000 A 
ATOM     12 CL   UNL     1       5.514   3.515  12.016  0.00  0.00    +0.000 Cl
ATOM     13  C   UNL     1       5.312   3.373  14.706  0.00  0.00    +0.000 A 
ATOM     14  C   UNL     1       5.701   3.704  16.009  0.00  0.00    +0.000 A 
ENDBRANCH   5   8
ENDBRANCH   3   5
BRANCH   1  15
ATOM     15  C   UNL     1       3.621   5.170  19.661  0.00  0.00    +0.000 C 
BRANCH  15  21
ATOM     16  C   UNL     1       1.394   5.146  17.523  0.00  0.00    +0.000 C 
ATOM     17  C   UNL     1       1.833   3.980  18.337  0.00  0.00    +0.000 A 
ATOM     18  N   UNL     1       1.262   2.792  18.286  0.00  0.00    +0.000 NA
ATOM     19  C   UNL     1       1.931   2.002  19.179  0.00  0.00    +0.000 A 
ATOM     20  C   UNL     1       2.930   2.718  19.783  0.00  0.00    +0.000 A 
ATOM     21  N   UNL     1       2.870   3.991  19.262  0.00  0.00    +0.000 N 
BRANCH  20  22
ATOM     22  N   UNL     1       3.848   2.255  20.765  0.00  0.00    +0.000 N 
ATOM     23  O   UNL     1       3.409   2.103  21.909  0.00  0.00    +0.000 OA
ATOM     24  O   UNL     1       5.011   2.034  20.400  0.00  0.00    +0.000 OA
ENDBRANCH  20  22
ENDBRANCH  15  21
ENDBRANCH   1  15
TORSDOF 5
ENDMDL
MODEL 4
REMARK VINA RESULT:      -7.4      1.163      1.689
REMARK  Name = 
REMARK  6 active torsions:
REMARK  status: ('A' for Active; 'I' for Inactive)
REMARK    1  A    between atoms: C_1  and  C_2
REMARK    2  A    between atoms: C_5  and  N_6
REMARK    3  A    between atoms: N_9  and  C_10
REMARK    4  A    between atoms: C_10  and  C_11
REMARK    5  A    between atoms: N_13  and  S_14
REMARK    6  A    between atoms: S_14  and  C_17
REMARK                            x       y       z     vdW  Elec       q    Type
REMARK                         _______ _______ _______ _____ _____    ______ ____
ROOT
ATOM      1  C   UNL     1       5.681   5.376  19.173  0.00  0.00    +0.000 C 
ATOM      2  O   UNL     1       6.680   5.150  19.847  0.00  0.00    +0.000 OA
ATOM      3  N   UNL     1       5.737   5.525  17.778  0.00  0.00    +0.000 N 
ATOM      4  H   UNL     1       4.906   5.716  17.215  0.00  0.00    +0.000 HD
ENDROOT
BRANCH   3   5
ATOM      5  S   UNL     1       7.133   5.374  16.875  0.00  0.00    +0.000 S 
ATOM      6  O   UNL     1       7.584   6.724  16.609  0.00  0.00    +0.000 OA
ATOM      7  O   UNL     1       7.990   4.410  17.519  0.00  0.00    +0.000 OA
BRANCH   5   8
ATOM      8  C   UNL     1       6.560   4.710  15.325  0.00  0.00    +0.000 A 
ATOM      9  C   UNL     1       7.386   4.797  14.199  0.00  0.00    +0.000 A 
ATOM     10  C   UNL     1       6.933   4.301  12.973  0.00  0.00    +0.000 A 
ATOM     11  C   UNL     1       5.669   3.714  12.884  0.00  0.00    +0.000 A 
ATOM     12 CL   UNL     1       5.111   3.120  11.369  0.00  0.00    +0.000 Cl
ATOM     13  C   UNL     1       4.855   3.607  14.013  0.00  0.00    +0.000 A 
ATOM     14  C   UNL     1       5.302   4.103  15.242  0.00  0.00    +0.000 A 
ENDBRANCH   5   8
ENDBRANCH   3   5
BRANCH   1  15
ATOM     15  C   UNL     1       4.316   5.456  19.814  0.00  0.00    +0.000 C 
BRANCH  15  21
ATOM     16  C   UNL     1       2.238   6.235  17.669  0.00  0.00    +0.000 C 
ATOM     17  C   UNL     1       2.384   4.892  18.294  0.00  0.00    +0.000 A 
ATOM     18  N   UNL     1       1.580   3.876  18.048  0.00  0.00    +0.000 NA
ATOM     19  C   UNL     1       2.024   2.835  18.813  0.00  0.00    +0.000 A 
ATOM     20  C   UNL     1       3.121   3.220  19.538  0.00  0.00    +0.000 A 
ATOM     21  N   UNL     1       3.354   4.540  19.223  0.00  0.00    +0.000 N 
BRANCH  20  22
ATOM     22  N   UNL     1       3.874   2.427  20.446  0.00  0.00    +0.000 N 
ATOM     23  O   UNL     1       4.946   1.975  20.034  0.00  0.00    +0.000 OA
ATOM     24  O   UNL     1       3.403   2.256  21.579  0.00  0.00    +0.000 OA
ENDBRANCH  20  22
ENDBRANCH  15  21
ENDBRANCH   1  15
TORSDOF 5
ENDMDL
MODEL 5
REMARK VINA RESULT:      -7.2      1.766      2.541
REMARK  Name = 
REMARK  6 active torsions:
REMARK  status: ('A' for Active; 'I' for Inactive)
REMARK    1  A    between atoms: C_1  and  C_2
REMARK    2  A    between atoms: C_5  and  N_6
REMARK    3  A    between atoms: N_9  and  C_10
REMARK    4  A    between atoms: C_10  and  C_11
REMARK    5  A    between atoms: N_13  and  S_14
REMARK    6  A    between atoms: S_14  and  C_17
REMARK                            x       y       z     vdW  Elec       q    Type
REMARK                         _______ _______ _______ _____ _____    ______ ____
ROOT
ATOM      1  C   UNL     1       5.713   4.700  19.088  0.00  0.00    +0.000 C 
ATOM      2  O   UNL     1       6.570   5.330  19.698  0.00  0.00    +0.000 OA
ATOM      3  N   UNL     1       5.794   4.471  17.705  0.00  0.00    +0.000 N 
ATOM      4  H   UNL     1       5.079   3.949  17.196  0.00  0.00    +0.000 HD
ENDROOT
BRANCH   3   5
ATOM      5  S   UNL     1       7.062   4.976  16.745  0.00  0.00    +0.000 S 
ATOM      6  O   UNL     1       7.035   6.424  16.779  0.00  0.00    +0.000 OA
ATOM      7  O   UNL     1       8.242   4.238  17.122  0.00  0.00    +0.000 OA
BRANCH   5   8
ATOM      8  C   UNL     1       6.563   4.494  15.105  0.00  0.00    +0.000 A 
ATOM      9  C   UNL     1       5.298   3.926  14.916  0.00  0.00    +0.000 A 
ATOM     10  C   UNL     1       4.910   3.521  13.636  0.00  0.00    +0.000 A 
ATOM     11  C   UNL     1       5.778   3.697  12.557  0.00  0.00    +0.000 A 
ATOM     12 CL   UNL     1       5.299   3.183  10.986  0.00  0.00    +0.000 Cl
ATOM     13  C   UNL     1       7.030   4.286  12.742  0.00  0.00    +0.000 A 
ATOM     14  C   UNL     1       7.426   4.691  14.021  0.00  0.00    +0.000 A 
ENDBRANCH   5   8
ENDBRANCH   3   5
BRANCH   1  15
ATOM     15  C   UNL     1       4.537   4.091  19.814  0.00  0.00    +0.000 C 
BRANCH  15  21
ATOM     16  C   UNL     1       3.478   1.519  18.477  0.00  0.00    +0.000 C 
ATOM     17  C   UNL     1       2.880   2.876  18.350  0.00  0.00    +0.000 A 
ATOM     18  N   UNL     1       1.847   3.155  17.579  0.00  0.00    +0.000 NA
ATOM     19  C   UNL     1       1.608   4.493  17.720  0.00  0.00    +0.000 A 
ATOM     20  C   UNL     1       2.509   5.042  18.594  0.00  0.00    +0.000 A 
ATOM     21  N   UNL     1       3.338   4.018  18.996  0.00  0.00    +0.000 N 
BRANCH  20  22
ATOM     22  N   UNL     1       2.590   6.400  19.007  0.00  0.00    +0.000 N 
ATOM     23  O   UNL     1       2.089   6.679  20.100  0.00  0.00    +0.000 OA
ATOM     24  O   UNL     1       3.159   7.194  18.245  0.00  0.00    +0.000 OA
ENDBRANCH  20  22
ENDBRANCH  15  21
ENDBRANCH   1  15
TORSDOF 5
ENDMDL
MODEL 6
REMARK VINA RESULT:      -7.0      1.224      1.584
REMARK  Name = 
REMARK  6 active torsions:
REMARK  status: ('A' for Active; 'I' for Inactive)
REMARK    1  A    between atoms: C_1  and  C_2
REMARK    2  A    between atoms: C_5  and  N_6
REMARK    3  A    between atoms: N_9  and  C_10
REMARK    4  A    between atoms: C_10  and  C_11
REMARK    5  A    between atoms: N_13  and  S_14
REMARK    6  A    between atoms: S_14  and  C_17
REMARK                            x       y       z     vdW  Elec       q    Type
REMARK                         _______ _______ _______ _____ _____    ______ ____
ROOT
ATOM      1  C   UNL     1       4.791   4.701  19.485  0.00  0.00    +0.000 C 
ATOM      2  O   UNL     1       5.236   3.580  19.268  0.00  0.00    +0.000 OA
ATOM      3  N   UNL     1       5.461   5.865  19.075  0.00  0.00    +0.000 N 
ATOM      4  H   UNL     1       5.093   6.800  19.258  0.00  0.00    +0.000 HD
ENDROOT
BRANCH   3   5
ATOM      5  S   UNL     1       6.894   5.868  18.219  0.00  0.00    +0.000 S 
ATOM      6  O   UNL     1       7.257   7.261  18.054  0.00  0.00    +0.000 OA
ATOM      7  O   UNL     1       7.795   4.926  18.835  0.00  0.00    +0.000 OA
BRANCH   5   8
ATOM      8  C   UNL     1       6.423   5.268  16.610  0.00  0.00    +0.000 A 
ATOM      9  C   UNL     1       6.962   4.063  16.147  0.00  0.00    +0.000 A 
ATOM     10  C   UNL     1       6.617   3.598  14.875  0.00  0.00    +0.000 A 
ATOM     11  C   UNL     1       5.730   4.329  14.084  0.00  0.00    +0.000 A 
ATOM     12 CL   UNL     1       5.321   3.759  12.513  0.00  0.00    +0.000 Cl
ATOM     13  C   UNL     1       5.173   5.519  14.556  0.00  0.00    +0.000 A 
ATOM     14  C   UNL     1       5.517   5.992  15.827  0.00  0.00    +0.000 A 
ENDBRANCH   5   8
ENDBRANCH   3   5
BRANCH   1  15
ATOM     15  C   UNL     1       3.459   4.886  20.171  0.00  0.00    +0.000 C 
BRANCH  15  21
ATOM     16  C   UNL     1       2.177   5.020  17.366  0.00  0.00    +0.000 C 
ATOM     17  C   UNL     1       1.819   4.056  18.443  0.00  0.00    +0.000 A 
ATOM     18  N   UNL     1       0.844   3.174  18.344  0.00  0.00    +0.000 NA
ATOM     19  C   UNL     1       0.817   2.491  19.527  0.00  0.00    +0.000 A 
ATOM     20  C   UNL     1       1.795   2.962  20.363  0.00  0.00    +0.000 A 
ATOM     21  N   UNL     1       2.436   3.974  19.684  0.00  0.00    +0.000 N 
BRANCH  20  22
ATOM     22  N   UNL     1       2.094   2.511  21.678  0.00  0.00    +0.000 N 
ATOM     23  O   UNL     1       3.259   2.167  21.896  0.00  0.00    +0.000 OA
ATOM     24  O   UNL     1       1.169   2.505  22.502  0.00  0.00    +0.000 OA
ENDBRANCH  20  22
ENDBRANCH  15  21
ENDBRANCH   1  15
TORSDOF 5
ENDMDL
MODEL 7
REMARK VINA RESULT:      -7.0      1.822      2.997
REMARK  Name = 
REMARK  6 active torsions:
REMARK  status: ('A' for Active; 'I' for Inactive)
REMARK    1  A    between atoms: C_1  and  C_2
REMARK    2  A    between atoms: C_5  and  N_6
REMARK    3  A    between atoms: N_9  and  C_10
REMARK    4  A    between atoms: C_10  and  C_11
REMARK    5  A    between atoms: N_13  and  S_14
REMARK    6  A    between atoms: S_14  and  C_17
REMARK                            x       y       z     vdW  Elec       q    Type
REMARK                         _______ _______ _______ _____ _____    ______ ____
ROOT
ATOM      1  C   UNL     1       5.949   5.211  19.174  0.00  0.00    +0.000 C 
ATOM      2  O   UNL     1       7.013   5.140  19.780  0.00  0.00    +0.000 OA
ATOM      3  N   UNL     1       5.889   5.282  17.773  0.00  0.00    +0.000 N 
ATOM      4  H   UNL     1       5.004   5.345  17.267  0.00  0.00    +0.000 HD
ENDROOT
BRANCH   3   5
ATOM      5  S   UNL     1       7.226   5.235  16.774  0.00  0.00    +0.000 S 
ATOM      6  O   UNL     1       7.610   6.614  16.556  0.00  0.00    +0.000 OA
ATOM      7  O   UNL     1       8.158   4.272  17.306  0.00  0.00    +0.000 OA
BRANCH   5   8
ATOM      8  C   UNL     1       6.574   4.634  15.230  0.00  0.00    +0.000 A 
ATOM      9  C   UNL     1       7.370   4.702  14.080  0.00  0.00    +0.000 A 
ATOM     10  C   UNL     1       6.856   4.257  12.860  0.00  0.00    +0.000 A 
ATOM     11  C   UNL     1       5.562   3.736  12.798  0.00  0.00    +0.000 A 
ATOM     12 CL   UNL     1       4.930   3.204  11.289  0.00  0.00    +0.000 Cl
ATOM     13  C   UNL     1       4.778   3.646  13.949  0.00  0.00    +0.000 A 
ATOM     14  C   UNL     1       5.285   4.093  15.174  0.00  0.00    +0.000 A 
ENDBRANCH   5   8
ENDBRANCH   3   5
BRANCH   1  15
ATOM     15  C   UNL     1       4.633   5.177  19.913  0.00  0.00    +0.000 C 
BRANCH  15  21
ATOM     16  C   UNL     1       3.710   2.259  19.510  0.00  0.00    +0.000 C 
ATOM     17  C   UNL     1       3.126   3.457  18.847  0.00  0.00    +0.000 A 
ATOM     18  N   UNL     1       2.172   3.402  17.939  0.00  0.00    +0.000 NA
ATOM     19  C   UNL     1       1.919   4.691  17.563  0.00  0.00    +0.000 A 
ATOM     20  C   UNL     1       2.731   5.550  18.256  0.00  0.00    +0.000 A 
ATOM     21  N   UNL     1       3.518   4.771  19.073  0.00  0.00    +0.000 N 
BRANCH  20  22
ATOM     22  N   UNL     1       2.771   6.968  18.154  0.00  0.00    +0.000 N 
ATOM     23  O   UNL     1       2.027   7.600  18.908  0.00  0.00    +0.000 OA
ATOM     24  O   UNL     1       3.550   7.458  17.325  0.00  0.00    +0.000 OA
ENDBRANCH  20  22
ENDBRANCH  15  21
ENDBRANCH   1  15
TORSDOF 5
ENDMDL
MODEL 8
REMARK VINA RESULT:      -6.9      1.242      2.850
REMARK  Name = 
REMARK  6 active torsions:
REMARK  status: ('A' for Active; 'I' for Inactive)
REMARK    1  A    between atoms: C_1  and  C_2
REMARK    2  A    between atoms: C_5  and  N_6
REMARK    3  A    between atoms: N_9  and  C_10
REMARK    4  A    between atoms: C_10  and  C_11
REMARK    5  A    between atoms: N_13  and  S_14
REMARK    6  A    between atoms: S_14  and  C_17
REMARK                            x       y       z     vdW  Elec       q    Type
REMARK                         _______ _______ _______ _____ _____    ______ ____
ROOT
ATOM      1  C   UNL     1       5.101   4.436  19.363  0.00  0.00    +0.000 C 
ATOM      2  O   UNL     1       5.633   3.333  19.325  0.00  0.00    +0.000 OA
ATOM      3  N   UNL     1       5.680   5.568  18.768  0.00  0.00    +0.000 N 
ATOM      4  H   UNL     1       5.239   6.489  18.802  0.00  0.00    +0.000 HD
ENDROOT
BRANCH   3   5
ATOM      5  S   UNL     1       7.114   5.547  17.913  0.00  0.00    +0.000 S 
ATOM      6  O   UNL     1       7.494   6.934  17.738  0.00  0.00    +0.000 OA
ATOM      7  O   UNL     1       8.003   4.599  18.538  0.00  0.00    +0.000 OA
BRANCH   5   8
ATOM      8  C   UNL     1       6.637   4.940  16.309  0.00  0.00    +0.000 A 
ATOM      9  C   UNL     1       7.549   5.019  15.251  0.00  0.00    +0.000 A 
ATOM     10  C   UNL     1       7.173   4.567  13.983  0.00  0.00    +0.000 A 
ATOM     11  C   UNL     1       5.899   4.031  13.784  0.00  0.00    +0.000 A 
ATOM     12 CL   UNL     1       5.437   3.492  12.217  0.00  0.00    +0.000 Cl
ATOM     13  C   UNL     1       4.998   3.931  14.846  0.00  0.00    +0.000 A 
ATOM     14  C   UNL     1       5.367   4.383  16.117  0.00  0.00    +0.000 A 
ENDBRANCH   5   8
ENDBRANCH   3   5
BRANCH   1  15
ATOM     15  C   UNL     1       3.754   4.622  20.019  0.00  0.00    +0.000 C 
BRANCH  15  21
ATOM     16  C   UNL     1       2.065   2.120  19.373  0.00  0.00    +0.000 C 
ATOM     17  C   UNL     1       1.917   3.459  18.739  0.00  0.00    +0.000 A 
ATOM     18  N   UNL     1       1.074   3.718  17.759  0.00  0.00    +0.000 NA
ATOM     19  C   UNL     1       1.241   5.037  17.442  0.00  0.00    +0.000 A 
ATOM     20  C   UNL     1       2.200   5.595  18.245  0.00  0.00    +0.000 A 
ATOM     21  N   UNL     1       2.650   4.591  19.073  0.00  0.00    +0.000 N 
BRANCH  20  22
ATOM     22  N   UNL     1       2.658   6.941  18.231  0.00  0.00    +0.000 N 
ATOM     23  O   UNL     1       2.119   7.720  19.022  0.00  0.00    +0.000 OA
ATOM     24  O   UNL     1       3.563   7.227  17.434  0.00  0.00    +0.000 OA
ENDBRANCH  20  22
ENDBRANCH  15  21
ENDBRANCH   1  15
TORSDOF 5
ENDMDL
MODEL 9
REMARK VINA RESULT:      -6.8      1.715      2.836
REMARK  Name = 
REMARK  6 active torsions:
REMARK  status: ('A' for Active; 'I' for Inactive)
REMARK    1  A    between atoms: C_1  and  C_2
REMARK    2  A    between atoms: C_5  and  N_6
REMARK    3  A    between atoms: N_9  and  C_10
REMARK    4  A    between atoms: C_10  and  C_11
REMARK    5  A    between atoms: N_13  and  S_14
REMARK    6  A    between atoms: S_14  and  C_17
REMARK                            x       y       z     vdW  Elec       q    Type
REMARK                         _______ _______ _______ _____ _____    ______ ____
ROOT
ATOM      1  C   UNL     1       5.612   4.690  18.801  0.00  0.00    +0.000 C 
ATOM      2  O   UNL     1       6.595   3.963  18.716  0.00  0.00    +0.000 OA
ATOM      3  N   UNL     1       5.502   5.889  18.079  0.00  0.00    +0.000 N 
ATOM      4  H   UNL     1       4.685   6.497  18.152  0.00  0.00    +0.000 HD
ENDROOT
BRANCH   3   5
ATOM      5  S   UNL     1       6.651   6.443  17.002  0.00  0.00    +0.000 S 
ATOM      6  O   UNL     1       6.229   7.774  16.618  0.00  0.00    +0.000 OA
ATOM      7  O   UNL     1       7.956   6.204  17.566  0.00  0.00    +0.000 OA
BRANCH   5   8
ATOM      8  C   UNL     1       6.425   5.402  15.576  0.00  0.00    +0.000 A 
ATOM      9  C   UNL     1       7.450   5.313  14.627  0.00  0.00    +0.000 A 
ATOM     10  C   UNL     1       7.270   4.518  13.491  0.00  0.00    +0.000 A 
ATOM     11  C   UNL     1       6.079   3.810  13.319  0.00  0.00    +0.000 A 
ATOM     12 CL   UNL     1       5.857   2.846  11.912  0.00  0.00    +0.000 Cl
ATOM     13  C   UNL     1       5.066   3.881  14.278  0.00  0.00    +0.000 A 
ATOM     14  C   UNL     1       5.239   4.677  15.415  0.00  0.00    +0.000 A 
ENDBRANCH   5   8
ENDBRANCH   3   5
BRANCH   1  15
ATOM     15  C   UNL     1       4.434   4.300  19.662  0.00  0.00    +0.000 C 
BRANCH  15  21
ATOM     16  C   UNL     1       3.457   1.726  18.265  0.00  0.00    +0.000 C 
ATOM     17  C   UNL     1       2.770   3.046  18.239  0.00  0.00    +0.000 A 
ATOM     18  N   UNL     1       1.676   3.291  17.544  0.00  0.00    +0.000 NA
ATOM     19  C   UNL     1       1.363   4.603  17.763  0.00  0.00    +0.000 A 
ATOM     20  C   UNL     1       2.279   5.170  18.609  0.00  0.00    +0.000 A 
ATOM     21  N   UNL     1       3.193   4.186  18.911  0.00  0.00    +0.000 N 
BRANCH  20  22
ATOM     22  N   UNL     1       2.301   6.510  19.081  0.00  0.00    +0.000 N 
ATOM     23  O   UNL     1       2.753   7.363  18.312  0.00  0.00    +0.000 OA
ATOM     24  O   UNL     1       1.862   6.721  20.220  0.00  0.00    +0.000 OA
ENDBRANCH  20  22
ENDBRANCH  15  21
ENDBRANCH   1  15
TORSDOF 5
ENDMDL
