MODEL 1
REMARK VINA RESULT:      -6.4      0.000      0.000
REMARK  Name = 
REMARK  3 active torsions:
REMARK  status: ('A' for Active; 'I' for Inactive)
REMARK    1  A    between atoms: C_1  and  N_2
REMARK    2  A    between atoms: C_5  and  C_6
REMARK    3  A    between atoms: N_9  and  C_10
REMARK                            x       y       z     vdW  Elec       q    Type
REMARK                         _______ _______ _______ _____ _____    ______ ____
ROOT
ATOM      1  C   UNL     1       3.104  14.113  19.512  0.00  0.00    +0.000 C 
ATOM      2  N   UNL     1       1.890  13.377  19.204  0.00  0.00    +0.000 NA
ATOM      3  C   UNL     1       1.034  14.081  18.268  0.00  0.00    +0.000 C 
ATOM      4  C   UNL     1      -0.401  13.791  18.661  0.00  0.00    +0.000 C 
ATOM      5  C   UNL     1      -0.380  12.761  19.819  0.00  0.00    +0.000 C 
ATOM      6  C   UNL     1      -1.154  13.369  20.977  0.00  0.00    +0.000 A 
ATOM      7  C   UNL     1      -2.520  13.551  21.141  0.00  0.00    +0.000 A 
ATOM      8  C   UNL     1      -2.991  14.178  22.299  0.00  0.00    +0.000 A 
ATOM      9  C   UNL     1      -2.098  14.661  23.260  0.00  0.00    +0.000 A 
ATOM     10  C   UNL     1      -0.728  14.522  23.069  0.00  0.00    +0.000 A 
ATOM     11  C   UNL     1      -0.274  13.874  21.927  0.00  0.00    +0.000 A 
ATOM     12  N   UNL     1       1.083  13.735  21.597  0.00  0.00    +0.000 N 
ATOM     13  C   UNL     1       1.106  12.934  20.363  0.00  0.00    +0.000 C 
ATOM     14  H   UNL     1       1.473  14.661  21.446  0.00  0.00    +0.000 HD
ENDROOT
BRANCH   5  15
ATOM     15  C   UNL     1      -0.760  11.250  19.421  0.00  0.00    +0.000 C 
ATOM     16  C   UNL     1      -0.993  10.277  20.606  0.00  0.00    +0.000 C 
ATOM     17  C   UNL     1       0.239   9.404  20.742  0.00  0.00    +0.000 C 
ATOM     18  N   UNL     1       1.112   9.709  19.624  0.00  0.00    +0.000 NA
ATOM     19  C   UNL     1       1.816   8.541  19.128  0.00  0.00    +0.000 C 
ATOM     20  C   UNL     1       0.380  10.485  18.615  0.00  0.00    +0.000 C 
ATOM     21  N   UNL     1      -0.216   9.812  17.450  0.00  0.00    +0.000 N 
ATOM     22  C   UNL     1      -1.542  10.271  17.387  0.00  0.00    +0.000 A 
ATOM     23  C   UNL     1      -2.436   9.911  16.392  0.00  0.00    +0.000 A 
ATOM     24  C   UNL     1      -3.744  10.382  16.462  0.00  0.00    +0.000 A 
ATOM     25  C   UNL     1      -4.144  11.176  17.543  0.00  0.00    +0.000 A 
ATOM     26  C   UNL     1      -3.240  11.505  18.559  0.00  0.00    +0.000 A 
ATOM     27  C   UNL     1      -1.923  11.074  18.459  0.00  0.00    +0.000 A 
ATOM     28  H   UNL     1      -0.225   8.803  17.561  0.00  0.00    +0.000 HD
ENDBRANCH   5  15
TORSDOF 1
ENDMDL
MODEL 2
REMARK VINA RESULT:      -6.4      0.078      5.305
REMARK  Name = 
REMARK  3 active torsions:
REMARK  status: ('A' for Active; 'I' for Inactive)
REMARK    1  A    between atoms: C_1  and  N_2
REMARK    2  A    between atoms: C_5  and  C_6
REMARK    3  A    between atoms: N_9  and  C_10
REMARK                            x       y       z     vdW  Elec       q    Type
REMARK                         _______ _______ _______ _____ _____    ______ ____
ROOT
ATOM      1  C   UNL     1       1.818   8.572  19.092  0.00  0.00    +0.000 C 
ATOM      2  N   UNL     1       1.102   9.722  19.618  0.00  0.00    +0.000 NA
ATOM      3  C   UNL     1       0.225   9.376  20.720  0.00  0.00    +0.000 C 
ATOM      4  C   UNL     1      -1.006  10.255  20.613  0.00  0.00    +0.000 C 
ATOM      5  C   UNL     1      -0.778  11.255  19.450  0.00  0.00    +0.000 C 
ATOM      6  C   UNL     1      -1.939  11.092  18.483  0.00  0.00    +0.000 A 
ATOM      7  C   UNL     1      -3.261  11.499  18.597  0.00  0.00    +0.000 A 
ATOM      8  C   UNL     1      -4.159  11.194  17.570  0.00  0.00    +0.000 A 
ATOM      9  C   UNL     1      -3.747  10.447  16.462  0.00  0.00    +0.000 A 
ATOM     10  C   UNL     1      -2.434   9.997  16.375  0.00  0.00    +0.000 A 
ATOM     11  C   UNL     1      -1.545  10.329  17.389  0.00  0.00    +0.000 A 
ATOM     12  N   UNL     1      -0.218   9.876  17.441  0.00  0.00    +0.000 N 
ATOM     13  C   UNL     1       0.369  10.519  18.627  0.00  0.00    +0.000 C 
ATOM     14  H   UNL     1      -0.227   8.865  17.533  0.00  0.00    +0.000 HD
ENDROOT
BRANCH   5  15
ATOM     15  C   UNL     1      -0.413  12.760  19.881  0.00  0.00    +0.000 C 
ATOM     16  C   UNL     1      -0.425  13.811  18.741  0.00  0.00    +0.000 C 
ATOM     17  C   UNL     1       1.012  14.101  18.358  0.00  0.00    +0.000 C 
ATOM     18  N   UNL     1       1.862  13.395  19.297  0.00  0.00    +0.000 NA
ATOM     19  C   UNL     1       3.067  14.134  19.628  0.00  0.00    +0.000 C 
ATOM     20  C   UNL     1       1.067  12.933  20.442  0.00  0.00    +0.000 C 
ATOM     21  N   UNL     1       1.027  13.722  21.684  0.00  0.00    +0.000 N 
ATOM     22  C   UNL     1      -0.334  13.852  22.005  0.00  0.00    +0.000 A 
ATOM     23  C   UNL     1      -0.802  14.489  23.142  0.00  0.00    +0.000 A 
ATOM     24  C   UNL     1      -2.176  14.608  23.329  0.00  0.00    +0.000 A 
ATOM     25  C   UNL     1      -3.058  14.118  22.359  0.00  0.00    +0.000 A 
ATOM     26  C   UNL     1      -2.573  13.505  21.199  0.00  0.00    +0.000 A 
ATOM     27  C   UNL     1      -1.202  13.344  21.041  0.00  0.00    +0.000 A 
ATOM     28  H   UNL     1       1.421  14.648  21.556  0.00  0.00    +0.000 HD
ENDBRANCH   5  15
TORSDOF 1
ENDMDL
MODEL 3
REMARK VINA RESULT:      -6.3      7.479     10.570
REMARK  Name = 
REMARK  3 active torsions:
REMARK  status: ('A' for Active; 'I' for Inactive)
REMARK    1  A    between atoms: C_1  and  N_2
REMARK    2  A    between atoms: C_5  and  C_6
REMARK    3  A    between atoms: N_9  and  C_10
REMARK                            x       y       z     vdW  Elec       q    Type
REMARK                         _______ _______ _______ _____ _____    ______ ____
ROOT
ATOM      1  C   UNL     1      10.226  16.102  24.448  0.00  0.00    +0.000 C 
ATOM      2  N   UNL     1      10.212  15.923  23.006  0.00  0.00    +0.000 NA
ATOM      3  C   UNL     1      10.014  17.170  22.292  0.00  0.00    +0.000 C 
ATOM      4  C   UNL     1       9.177  16.862  21.066  0.00  0.00    +0.000 C 
ATOM      5  C   UNL     1       8.977  15.326  20.998  0.00  0.00    +0.000 C 
ATOM      6  C   UNL     1       7.480  15.069  20.952  0.00  0.00    +0.000 A 
ATOM      7  C   UNL     1       6.574  15.250  19.917  0.00  0.00    +0.000 A 
ATOM      8  C   UNL     1       5.222  14.970  20.136  0.00  0.00    +0.000 A 
ATOM      9  C   UNL     1       4.775  14.560  21.396  0.00  0.00    +0.000 A 
ATOM     10  C   UNL     1       5.678  14.428  22.446  0.00  0.00    +0.000 A 
ATOM     11  C   UNL     1       7.023  14.683  22.207  0.00  0.00    +0.000 A 
ATOM     12  N   UNL     1       8.011  14.648  23.202  0.00  0.00    +0.000 N 
ATOM     13  C   UNL     1       9.280  14.906  22.503  0.00  0.00    +0.000 C 
ATOM     14  H   UNL     1       7.808  15.374  23.883  0.00  0.00    +0.000 HD
ENDROOT
BRANCH   5  15
ATOM     15  C   UNL     1       9.870  14.550  19.909  0.00  0.00    +0.000 C 
ATOM     16  C   UNL     1      11.403  14.754  20.023  0.00  0.00    +0.000 C 
ATOM     17  C   UNL     1      11.826  15.730  18.944  0.00  0.00    +0.000 C 
ATOM     18  N   UNL     1      10.663  15.997  18.120  0.00  0.00    +0.000 NA
ATOM     19  C   UNL     1      10.996  16.166  16.717  0.00  0.00    +0.000 C 
ATOM     20  C   UNL     1       9.610  15.015  18.408  0.00  0.00    +0.000 C 
ATOM     21  N   UNL     1       9.448  13.828  17.553  0.00  0.00    +0.000 N 
ATOM     22  C   UNL     1       9.388  12.735  18.433  0.00  0.00    +0.000 A 
ATOM     23  C   UNL     1       9.187  11.426  18.025  0.00  0.00    +0.000 A 
ATOM     24  C   UNL     1       9.203  10.414  18.981  0.00  0.00    +0.000 A 
ATOM     25  C   UNL     1       9.455  10.725  20.323  0.00  0.00    +0.000 A 
ATOM     26  C   UNL     1       9.689  12.046  20.717  0.00  0.00    +0.000 A 
ATOM     27  C   UNL     1       9.622  13.058  19.768  0.00  0.00    +0.000 A 
ATOM     28  H   UNL     1      10.238  13.702  16.930  0.00  0.00    +0.000 HD
ENDBRANCH   5  15
TORSDOF 1
ENDMDL
MODEL 4
REMARK VINA RESULT:      -6.3      9.174     11.811
REMARK  Name = 
REMARK  3 active torsions:
REMARK  status: ('A' for Active; 'I' for Inactive)
REMARK    1  A    between atoms: C_1  and  N_2
REMARK    2  A    between atoms: C_5  and  C_6
REMARK    3  A    between atoms: N_9  and  C_10
REMARK                            x       y       z     vdW  Elec       q    Type
REMARK                         _______ _______ _______ _____ _____    ______ ____
ROOT
ATOM      1  C   UNL     1       8.330  12.376  24.502  0.00  0.00    +0.000 C 
ATOM      2  N   UNL     1       8.435  13.384  23.462  0.00  0.00    +0.000 NA
ATOM      3  C   UNL     1       7.142  13.778  22.935  0.00  0.00    +0.000 C 
ATOM      4  C   UNL     1       7.320  14.051  21.455  0.00  0.00    +0.000 C 
ATOM      5  C   UNL     1       8.829  13.926  21.124  0.00  0.00    +0.000 C 
ATOM      6  C   UNL     1       8.962  12.898  20.012  0.00  0.00    +0.000 A 
ATOM      7  C   UNL     1       8.657  12.998  18.662  0.00  0.00    +0.000 A 
ATOM      8  C   UNL     1       8.838  11.884  17.838  0.00  0.00    +0.000 A 
ATOM      9  C   UNL     1       9.274  10.667  18.371  0.00  0.00    +0.000 A 
ATOM     10  C   UNL     1       9.530  10.556  19.733  0.00  0.00    +0.000 A 
ATOM     11  C   UNL     1       9.372  11.678  20.537  0.00  0.00    +0.000 A 
ATOM     12  N   UNL     1       9.537  11.667  21.931  0.00  0.00    +0.000 N 
ATOM     13  C   UNL     1       9.347  13.063  22.357  0.00  0.00    +0.000 C 
ATOM     14  H   UNL     1       8.832  11.057  22.333  0.00  0.00    +0.000 HD
ENDROOT
BRANCH   5  15
ATOM     15  C   UNL     1       9.619  15.311  20.916  0.00  0.00    +0.000 C 
ATOM     16  C   UNL     1      10.423  15.820  22.140  0.00  0.00    +0.000 C 
ATOM     17  C   UNL     1       9.633  16.943  22.783  0.00  0.00    +0.000 C 
ATOM     18  N   UNL     1       8.492  17.214  21.930  0.00  0.00    +0.000 NA
ATOM     19  C   UNL     1       8.151  18.624  21.881  0.00  0.00    +0.000 C 
ATOM     20  C   UNL     1       8.674  16.559  20.628  0.00  0.00    +0.000 C 
ATOM     21  N   UNL     1       9.205  17.318  19.484  0.00  0.00    +0.000 N 
ATOM     22  C   UNL     1      10.241  16.529  18.958  0.00  0.00    +0.000 A 
ATOM     23  C   UNL     1      10.971  16.867  17.830  0.00  0.00    +0.000 A 
ATOM     24  C   UNL     1      12.016  16.037  17.431  0.00  0.00    +0.000 A 
ATOM     25  C   UNL     1      12.333  14.902  18.187  0.00  0.00    +0.000 A 
ATOM     26  C   UNL     1      11.609  14.589  19.342  0.00  0.00    +0.000 A 
ATOM     27  C   UNL     1      10.537  15.394  19.708  0.00  0.00    +0.000 A 
ATOM     28  H   UNL     1       9.589  18.212  19.770  0.00  0.00    +0.000 HD
ENDBRANCH   5  15
TORSDOF 1
ENDMDL
MODEL 5
REMARK VINA RESULT:      -6.3      1.340      5.451
REMARK  Name = 
REMARK  3 active torsions:
REMARK  status: ('A' for Active; 'I' for Inactive)
REMARK    1  A    between atoms: C_1  and  N_2
REMARK    2  A    between atoms: C_5  and  C_6
REMARK    3  A    between atoms: N_9  and  C_10
REMARK                            x       y       z     vdW  Elec       q    Type
REMARK                         _______ _______ _______ _____ _____    ______ ____
ROOT
ATOM      1  C   UNL     1       1.402   9.218  22.023  0.00  0.00    +0.000 C 
ATOM      2  N   UNL     1       0.801  10.523  21.812  0.00  0.00    +0.000 NA
ATOM      3  C   UNL     1      -0.431  10.696  22.558  0.00  0.00    +0.000 C 
ATOM      4  C   UNL     1      -1.363  11.534  21.705  0.00  0.00    +0.000 C 
ATOM      5  C   UNL     1      -0.584  11.977  20.440  0.00  0.00    +0.000 C 
ATOM      6  C   UNL     1      -1.384  11.517  19.234  0.00  0.00    +0.000 A 
ATOM      7  C   UNL     1      -2.565  12.016  18.701  0.00  0.00    +0.000 A 
ATOM      8  C   UNL     1      -3.132  11.386  17.589  0.00  0.00    +0.000 A 
ATOM      9  C   UNL     1      -2.547  10.238  17.046  0.00  0.00    +0.000 A 
ATOM     10  C   UNL     1      -1.392   9.711  17.613  0.00  0.00    +0.000 A 
ATOM     11  C   UNL     1      -0.824  10.362  18.701  0.00  0.00    +0.000 A 
ATOM     12  N   UNL     1       0.300   9.886  19.394  0.00  0.00    +0.000 N 
ATOM     13  C   UNL     1       0.595  10.908  20.410  0.00  0.00    +0.000 C 
ATOM     14  H   UNL     1       0.061   8.996  19.821  0.00  0.00    +0.000 HD
ENDROOT
BRANCH   5  15
ATOM     15  C   UNL     1      -0.083  13.505  20.425  0.00  0.00    +0.000 C 
ATOM     16  C   UNL     1       0.207  14.107  19.026  0.00  0.00    +0.000 C 
ATOM     17  C   UNL     1       1.710  14.134  18.830  0.00  0.00    +0.000 C 
ATOM     18  N   UNL     1       2.317  13.719  20.081  0.00  0.00    +0.000 NA
ATOM     19  C   UNL     1       3.552  14.426  20.365  0.00  0.00    +0.000 C 
ATOM     20  C   UNL     1       1.314  13.737  21.153  0.00  0.00    +0.000 C 
ATOM     21  N   UNL     1       1.207  14.899  22.050  0.00  0.00    +0.000 N 
ATOM     22  C   UNL     1      -0.155  15.239  22.067  0.00  0.00    +0.000 A 
ATOM     23  C   UNL     1      -0.687  16.259  22.839  0.00  0.00    +0.000 A 
ATOM     24  C   UNL     1      -2.045  16.545  22.732  0.00  0.00    +0.000 A 
ATOM     25  C   UNL     1      -2.841  15.829  21.830  0.00  0.00    +0.000 A 
ATOM     26  C   UNL     1      -2.286  14.823  21.032  0.00  0.00    +0.000 A 
ATOM     27  C   UNL     1      -0.940  14.508  21.178  0.00  0.00    +0.000 A 
ATOM     28  H   UNL     1       1.737  15.692  21.705  0.00  0.00    +0.000 HD
ENDBRANCH   5  15
TORSDOF 1
ENDMDL
MODEL 6
REMARK VINA RESULT:      -6.3      1.811      3.886
REMARK  Name = 
REMARK  3 active torsions:
REMARK  status: ('A' for Active; 'I' for Inactive)
REMARK    1  A    between atoms: C_1  and  N_2
REMARK    2  A    between atoms: C_5  and  C_6
REMARK    3  A    between atoms: N_9  and  C_10
REMARK                            x       y       z     vdW  Elec       q    Type
REMARK                         _______ _______ _______ _____ _____    ______ ____
ROOT
ATOM      1  C   UNL     1      -2.246  16.846  21.632  0.00  0.00    +0.000 C 
ATOM      2  N   UNL     1      -1.770  15.477  21.722  0.00  0.00    +0.000 NA
ATOM      3  C   UNL     1      -0.834  15.284  22.814  0.00  0.00    +0.000 C 
ATOM      4  C   UNL     1       0.197  14.273  22.353  0.00  0.00    +0.000 C 
ATOM      5  C   UNL     1      -0.231  13.757  20.956  0.00  0.00    +0.000 C 
ATOM      6  C   UNL     1       0.932  14.001  20.010  0.00  0.00    +0.000 A 
ATOM      7  C   UNL     1       2.148  13.342  19.899  0.00  0.00    +0.000 A 
ATOM      8  C   UNL     1       3.082  13.785  18.958  0.00  0.00    +0.000 A 
ATOM      9  C   UNL     1       2.820  14.909  18.170  0.00  0.00    +0.000 A 
ATOM     10  C   UNL     1       1.621  15.599  18.318  0.00  0.00    +0.000 A 
ATOM     11  C   UNL     1       0.690  15.132  19.238  0.00  0.00    +0.000 A 
ATOM     12  N   UNL     1      -0.520  15.783  19.520  0.00  0.00    +0.000 N 
ATOM     13  C   UNL     1      -1.215  14.916  20.484  0.00  0.00    +0.000 C 
ATOM     14  H   UNL     1      -0.310  16.692  19.922  0.00  0.00    +0.000 HD
ENDROOT
BRANCH   5  15
ATOM     15  C   UNL     1      -0.885  12.288  20.921  0.00  0.00    +0.000 C 
ATOM     16  C   UNL     1      -2.117  12.075  21.838  0.00  0.00    +0.000 C 
ATOM     17  C   UNL     1      -1.661  11.301  23.060  0.00  0.00    +0.000 C 
ATOM     18  N   UNL     1      -0.276  10.927  22.844  0.00  0.00    +0.000 NA
ATOM     19  C   UNL     1       0.042   9.619  23.387  0.00  0.00    +0.000 C 
ATOM     20  C   UNL     1       0.084  11.135  21.436  0.00  0.00    +0.000 C 
ATOM     21  N   UNL     1       0.049  10.010  20.487  0.00  0.00    +0.000 N 
ATOM     22  C   UNL     1      -0.682  10.473  19.381  0.00  0.00    +0.000 A 
ATOM     23  C   UNL     1      -0.903   9.727  18.235  0.00  0.00    +0.000 A 
ATOM     24  C   UNL     1      -1.692  10.267  17.223  0.00  0.00    +0.000 A 
ATOM     25  C   UNL     1      -2.275  11.529  17.389  0.00  0.00    +0.000 A 
ATOM     26  C   UNL     1      -2.071  12.259  18.565  0.00  0.00    +0.000 A 
ATOM     27  C   UNL     1      -1.243  11.737  19.551  0.00  0.00    +0.000 A 
ATOM     28  H   UNL     1      -0.426   9.203  20.877  0.00  0.00    +0.000 HD
ENDBRANCH   5  15
TORSDOF 1
ENDMDL
MODEL 7
REMARK VINA RESULT:      -6.2      1.641      5.609
REMARK  Name = 
REMARK  3 active torsions:
REMARK  status: ('A' for Active; 'I' for Inactive)
REMARK    1  A    between atoms: C_1  and  N_2
REMARK    2  A    between atoms: C_5  and  C_6
REMARK    3  A    between atoms: N_9  and  C_10
REMARK                            x       y       z     vdW  Elec       q    Type
REMARK                         _______ _______ _______ _____ _____    ______ ____
ROOT
ATOM      1  C   UNL     1       1.409   9.220  22.175  0.00  0.00    +0.000 C 
ATOM      2  N   UNL     1       0.713  10.489  22.053  0.00  0.00    +0.000 NA
ATOM      3  C   UNL     1      -0.559  10.495  22.751  0.00  0.00    +0.000 C 
ATOM      4  C   UNL     1      -1.520  11.335  21.932  0.00  0.00    +0.000 C 
ATOM      5  C   UNL     1      -0.728  11.953  20.752  0.00  0.00    +0.000 C 
ATOM      6  C   UNL     1      -1.438  11.546  19.471  0.00  0.00    +0.000 A 
ATOM      7  C   UNL     1      -2.632  12.000  18.929  0.00  0.00    +0.000 A 
ATOM      8  C   UNL     1      -3.100  11.435  17.739  0.00  0.00    +0.000 A 
ATOM      9  C   UNL     1      -2.401  10.391  17.124  0.00  0.00    +0.000 A 
ATOM     10  C   UNL     1      -1.231   9.904  17.697  0.00  0.00    +0.000 A 
ATOM     11  C   UNL     1      -0.763  10.493  18.865  0.00  0.00    +0.000 A 
ATOM     12  N   UNL     1       0.366  10.042  19.567  0.00  0.00    +0.000 N 
ATOM     13  C   UNL     1       0.534  10.985  20.683  0.00  0.00    +0.000 C 
ATOM     14  H   UNL     1       0.182   9.101  19.900  0.00  0.00    +0.000 HD
ENDROOT
BRANCH   5  15
ATOM     15  C   UNL     1      -0.352  13.509  20.898  0.00  0.00    +0.000 C 
ATOM     16  C   UNL     1      -0.111  14.013  22.344  0.00  0.00    +0.000 C 
ATOM     17  C   UNL     1      -1.343  14.781  22.783  0.00  0.00    +0.000 C 
ATOM     18  N   UNL     1      -2.225  14.877  21.636  0.00  0.00    +0.000 NA
ATOM     19  C   UNL     1      -2.935  16.142  21.579  0.00  0.00    +0.000 C 
ATOM     20  C   UNL     1      -1.500  14.501  20.415  0.00  0.00    +0.000 C 
ATOM     21  N   UNL     1      -0.914  15.539  19.550  0.00  0.00    +0.000 N 
ATOM     22  C   UNL     1       0.411  15.135  19.323  0.00  0.00    +0.000 A 
ATOM     23  C   UNL     1       1.297  15.820  18.507  0.00  0.00    +0.000 A 
ATOM     24  C   UNL     1       2.607  15.359  18.401  0.00  0.00    +0.000 A 
ATOM     25  C   UNL     1       3.016  14.242  19.138  0.00  0.00    +0.000 A 
ATOM     26  C   UNL     1       2.121  13.578  19.983  0.00  0.00    +0.000 A 
ATOM     27  C   UNL     1       0.803  14.012  20.048  0.00  0.00    +0.000 A 
ATOM     28  H   UNL     1      -0.906  16.446  20.003  0.00  0.00    +0.000 HD
ENDBRANCH   5  15
TORSDOF 1
ENDMDL
MODEL 8
REMARK VINA RESULT:      -6.2      1.390      1.640
REMARK  Name = 
REMARK  3 active torsions:
REMARK  status: ('A' for Active; 'I' for Inactive)
REMARK    1  A    between atoms: C_1  and  N_2
REMARK    2  A    between atoms: C_5  and  C_6
REMARK    3  A    between atoms: N_9  and  C_10
REMARK                            x       y       z     vdW  Elec       q    Type
REMARK                         _______ _______ _______ _____ _____    ______ ____
ROOT
ATOM      1  C   UNL     1       3.378  14.609  20.693  0.00  0.00    +0.000 C 
ATOM      2  N   UNL     1       2.191  13.861  20.317  0.00  0.00    +0.000 NA
ATOM      3  C   UNL     1       1.664  14.264  19.027  0.00  0.00    +0.000 C 
ATOM      4  C   UNL     1       0.153  14.171  19.105  0.00  0.00    +0.000 C 
ATOM      5  C   UNL     1      -0.217  13.563  20.482  0.00  0.00    +0.000 C 
ATOM      6  C   UNL     1      -1.161  14.538  21.165  0.00  0.00    +0.000 A 
ATOM      7  C   UNL     1      -2.496  14.817  20.910  0.00  0.00    +0.000 A 
ATOM      8  C   UNL     1      -3.146  15.797  21.666  0.00  0.00    +0.000 A 
ATOM      9  C   UNL     1      -2.450  16.525  22.636  0.00  0.00    +0.000 A 
ATOM     10  C   UNL     1      -1.098  16.279  22.854  0.00  0.00    +0.000 A 
ATOM     11  C   UNL     1      -0.472  15.284  22.115  0.00  0.00    +0.000 A 
ATOM     12  N   UNL     1       0.898  14.994  22.202  0.00  0.00    +0.000 N 
ATOM     13  C   UNL     1       1.112  13.842  21.313  0.00  0.00    +0.000 C 
ATOM     14  H   UNL     1       1.419  15.807  21.887  0.00  0.00    +0.000 HD
ENDROOT
BRANCH   5  15
ATOM     15  C   UNL     1      -0.670  12.020  20.468  0.00  0.00    +0.000 C 
ATOM     16  C   UNL     1      -1.483  11.544  21.699  0.00  0.00    +0.000 C 
ATOM     17  C   UNL     1      -0.554  10.747  22.593  0.00  0.00    +0.000 C 
ATOM     18  N   UNL     1       0.708  10.608  21.892  0.00  0.00    +0.000 NA
ATOM     19  C   UNL     1       1.340   9.322  22.124  0.00  0.00    +0.000 C 
ATOM     20  C   UNL     1       0.542  10.988  20.483  0.00  0.00    +0.000 C 
ATOM     21  N   UNL     1       0.315   9.957  19.458  0.00  0.00    +0.000 N 
ATOM     22  C   UNL     1      -0.796  10.396  18.721  0.00  0.00    +0.000 A 
ATOM     23  C   UNL     1      -1.307   9.726  17.620  0.00  0.00    +0.000 A 
ATOM     24  C   UNL     1      -2.449  10.224  17.001  0.00  0.00    +0.000 A 
ATOM     25  C   UNL     1      -3.081  11.364  17.512  0.00  0.00    +0.000 A 
ATOM     26  C   UNL     1      -2.575  12.012  18.644  0.00  0.00    +0.000 A 
ATOM     27  C   UNL     1      -1.407  11.540  19.229  0.00  0.00    +0.000 A 
ATOM     28  H   UNL     1       0.098   9.056  19.871  0.00  0.00    +0.000 HD
ENDBRANCH   5  15
TORSDOF 1
ENDMDL
MODEL 9
REMARK VINA RESULT:      -6.2      1.799      3.666
REMARK  Name = 
REMARK  3 active torsions:
REMARK  status: ('A' for Active; 'I' for Inactive)
REMARK    1  A    between atoms: C_1  and  N_2
REMARK    2  A    between atoms: C_5  and  C_6
REMARK    3  A    between atoms: N_9  and  C_10
REMARK                            x       y       z     vdW  Elec       q    Type
REMARK                         _______ _______ _______ _____ _____    ______ ____
ROOT
ATOM      1  C   UNL     1      -3.454  15.828  22.527  0.00  0.00    +0.000 C 
ATOM      2  N   UNL     1      -2.604  14.667  22.332  0.00  0.00    +0.000 NA
ATOM      3  C   UNL     1      -1.504  14.615  23.276  0.00  0.00    +0.000 C 
ATOM      4  C   UNL     1      -0.309  14.033  22.548  0.00  0.00    +0.000 C 
ATOM      5  C   UNL     1      -0.773  13.608  21.132  0.00  0.00    +0.000 C 
ATOM      6  C   UNL     1       0.125  14.317  20.132  0.00  0.00    +0.000 A 
ATOM      7  C   UNL     1       1.448  14.074  19.790  0.00  0.00    +0.000 A 
ATOM      8  C   UNL     1       2.074  14.901  18.853  0.00  0.00    +0.000 A 
ATOM      9  C   UNL     1       1.395  15.992  18.300  0.00  0.00    +0.000 A 
ATOM     10  C   UNL     1       0.086  16.263  18.683  0.00  0.00    +0.000 A 
ATOM     11  C   UNL     1      -0.533  15.418  19.595  0.00  0.00    +0.000 A 
ATOM     12  N   UNL     1      -1.824  15.631  20.104  0.00  0.00    +0.000 N 
ATOM     13  C   UNL     1      -2.100  14.472  20.967  0.00  0.00    +0.000 C 
ATOM     14  H   UNL     1      -1.821  16.497  20.634  0.00  0.00    +0.000 HD
ENDROOT
BRANCH   5  15
ATOM     15  C   UNL     1      -0.986  12.030  20.908  0.00  0.00    +0.000 C 
ATOM     16  C   UNL     1      -1.777  11.291  22.018  0.00  0.00    +0.000 C 
ATOM     17  C   UNL     1      -0.782  10.531  22.873  0.00  0.00    +0.000 C 
ATOM     18  N   UNL     1       0.519  10.665  22.246  0.00  0.00    +0.000 NA
ATOM     19  C   UNL     1       1.326   9.465  22.368  0.00  0.00    +0.000 C 
ATOM     20  C   UNL     1       0.366  11.191  20.884  0.00  0.00    +0.000 C 
ATOM     21  N   UNL     1       0.348  10.274  19.732  0.00  0.00    +0.000 N 
ATOM     22  C   UNL     1      -0.780  10.637  18.978  0.00  0.00    +0.000 A 
ATOM     23  C   UNL     1      -1.128  10.043  17.776  0.00  0.00    +0.000 A 
ATOM     24  C   UNL     1      -2.302  10.445  17.144  0.00  0.00    +0.000 A 
ATOM     25  C   UNL     1      -3.124  11.408  17.741  0.00  0.00    +0.000 A 
ATOM     26  C   UNL     1      -2.777  11.976  18.972  0.00  0.00    +0.000 A 
ATOM     27  C   UNL     1      -1.581  11.608  19.575  0.00  0.00    +0.000 A 
ATOM     28  H   UNL     1       0.249   9.307  20.022  0.00  0.00    +0.000 HD
ENDBRANCH   5  15
TORSDOF 1
ENDMDL
