MODEL 1
REMARK VINA RESULT:      -6.4      0.000      0.000
REMARK  Name = 
REMARK  6 active torsions:
REMARK  status: ('A' for Active; 'I' for Inactive)
REMARK    1  A    between atoms: C_1  and  N_2
REMARK    2  A    between atoms: N_2  and  C_3
REMARK    3  A    between atoms: N_2  and  C_13
REMARK    4  A    between atoms: N_25  and  C_26
REMARK    5  A    between atoms: C_26  and  C_27
REMARK    6  A    between atoms: C_27  and  O_29
REMARK                            x       y       z     vdW  Elec       q    Type
REMARK                         _______ _______ _______ _____ _____    ______ ____
ROOT
ATOM      1  C   UNL     1      -1.777  13.585  22.976  0.00  0.00    +0.000 C 
ATOM      2  C   UNL     1      -1.693  12.033  22.942  0.00  0.00    +0.000 C 
ATOM      3  C   UNL     1      -1.369  11.480  21.538  0.00  0.00    +0.000 C 
ATOM      4  C   UNL     1      -0.334  12.328  20.863  0.00  0.00    +0.000 A 
ATOM      5  C   UNL     1       0.129  13.538  21.340  0.00  0.00    +0.000 A 
ATOM      6  C   UNL     1       1.076  14.039  20.420  0.00  0.00    +0.000 A 
ATOM      7  C   UNL     1       1.884  15.191  20.405  0.00  0.00    +0.000 A 
ATOM      8  C   UNL     1       2.707  15.418  19.309  0.00  0.00    +0.000 A 
ATOM      9  F   UNL     1       3.491  16.505  19.298  0.00  0.00    +0.000 F 
ATOM     10  C   UNL     1       2.730  14.548  18.230  0.00  0.00    +0.000 A 
ATOM     11  C   UNL     1       1.933  13.395  18.221  0.00  0.00    +0.000 A 
ATOM     12  C   UNL     1       1.117  13.145  19.341  0.00  0.00    +0.000 A 
ATOM     13  N   UNL     1       0.253  12.100  19.640  0.00  0.00    +0.000 N 
ATOM     14  C   UNL     1      -0.371  14.145  22.608  0.00  0.00    +0.000 C 
ENDROOT
BRANCH   1  16
ATOM     15  C   UNL     1      -2.911  15.402  21.578  0.00  0.00    +0.000 C 
ATOM     16  N   UNL     1      -2.905  14.040  22.101  0.00  0.00    +0.000 N 
BRANCH  16  17
ATOM     17  C   UNL     1      -4.141  13.393  22.283  0.00  0.00    +0.000 A 
ATOM     18  N   UNL     1      -4.655  13.413  23.529  0.00  0.00    +0.000 NA
ATOM     19  C   UNL     1      -5.872  12.895  23.713  0.00  0.00    +0.000 A 
ATOM     20  N   UNL     1      -6.652  12.361  22.773  0.00  0.00    +0.000 NA
ATOM     21  C   UNL     1      -6.139  12.294  21.543  0.00  0.00    +0.000 A 
ATOM     22  C   UNL     1      -6.934  11.750  20.537  0.00  0.00    +0.000 A 
ATOM     23  C   UNL     1      -6.486  11.626  19.222  0.00  0.00    +0.000 A 
ATOM     24  C   UNL     1      -5.191  11.996  18.907  0.00  0.00    +0.000 A 
ATOM     25  C   UNL     1      -4.371  12.512  19.907  0.00  0.00    +0.000 A 
ATOM     26  C   UNL     1      -4.846  12.749  21.227  0.00  0.00    +0.000 A 
ENDBRANCH  16  17
ENDBRANCH   1  16
BRANCH  13  27
ATOM     27  C   UNL     1      -0.007  10.943  18.789  0.00  0.00    +0.000 C 
BRANCH  27  28
ATOM     28  C   UNL     1      -1.306  10.970  18.018  0.00  0.00    +0.000 C 
ATOM     29  O   UNL     1      -2.104  10.039  18.071  0.00  0.00    +0.000 OA
BRANCH  28  30
ATOM     30  O   UNL     1      -1.570  12.053  17.260  0.00  0.00    +0.000 OA
ATOM     31  H   UNL     1      -1.084  12.099  16.409  0.00  0.00    +0.000 HD
ENDBRANCH  28  30
ENDBRANCH  27  28
ENDBRANCH  13  27
TORSDOF 5
ENDMDL
MODEL 2
REMARK VINA RESULT:      -6.4      1.136      1.216
REMARK  Name = 
REMARK  6 active torsions:
REMARK  status: ('A' for Active; 'I' for Inactive)
REMARK    1  A    between atoms: C_1  and  N_2
REMARK    2  A    between atoms: N_2  and  C_3
REMARK    3  A    between atoms: N_2  and  C_13
REMARK    4  A    between atoms: N_25  and  C_26
REMARK    5  A    between atoms: C_26  and  C_27
REMARK    6  A    between atoms: C_27  and  O_29
REMARK                            x       y       z     vdW  Elec       q    Type
REMARK                         _______ _______ _______ _____ _____    ______ ____
ROOT
ATOM      1  C   UNL     1      -1.637  13.328  22.768  0.00  0.00    +0.000 C 
ATOM      2  C   UNL     1      -1.553  11.777  22.693  0.00  0.00    +0.000 C 
ATOM      3  C   UNL     1      -1.217  11.262  21.278  0.00  0.00    +0.000 C 
ATOM      4  C   UNL     1      -0.176  12.127  20.634  0.00  0.00    +0.000 A 
ATOM      5  C   UNL     1       0.283  13.324  21.147  0.00  0.00    +0.000 A 
ATOM      6  C   UNL     1       1.238  13.850  20.249  0.00  0.00    +0.000 A 
ATOM      7  C   UNL     1       2.046  15.001  20.272  0.00  0.00    +0.000 A 
ATOM      8  C   UNL     1       2.878  15.257  19.190  0.00  0.00    +0.000 A 
ATOM      9  F   UNL     1       3.662  16.344  19.215  0.00  0.00    +0.000 F 
ATOM     10  C   UNL     1       2.910  14.416  18.088  0.00  0.00    +0.000 A 
ATOM     11  C   UNL     1       2.113  13.265  18.041  0.00  0.00    +0.000 A 
ATOM     12  C   UNL     1       1.287  12.985  19.147  0.00  0.00    +0.000 A 
ATOM     13  N   UNL     1       0.421  11.933  19.411  0.00  0.00    +0.000 N 
ATOM     14  C   UNL     1      -0.228  13.897  22.428  0.00  0.00    +0.000 C 
ENDROOT
BRANCH   1  16
ATOM     15  C   UNL     1      -2.670  15.117  21.260  0.00  0.00    +0.000 C 
ATOM     16  N   UNL     1      -2.758  13.806  21.897  0.00  0.00    +0.000 N 
BRANCH  16  17
ATOM     17  C   UNL     1      -4.035  13.287  22.174  0.00  0.00    +0.000 A 
ATOM     18  N   UNL     1      -4.459  13.379  23.451  0.00  0.00    +0.000 NA
ATOM     19  C   UNL     1      -5.705  12.985  23.727  0.00  0.00    +0.000 A 
ATOM     20  N   UNL     1      -6.595  12.515  22.852  0.00  0.00    +0.000 NA
ATOM     21  C   UNL     1      -6.175  12.377  21.593  0.00  0.00    +0.000 A 
ATOM     22  C   UNL     1      -7.086  11.896  20.654  0.00  0.00    +0.000 A 
ATOM     23  C   UNL     1      -6.742  11.707  19.316  0.00  0.00    +0.000 A 
ATOM     24  C   UNL     1      -5.441  11.943  18.908  0.00  0.00    +0.000 A 
ATOM     25  C   UNL     1      -4.510  12.393  19.839  0.00  0.00    +0.000 A 
ATOM     26  C   UNL     1      -4.869  12.698  21.183  0.00  0.00    +0.000 A 
ENDBRANCH  16  17
ENDBRANCH   1  16
BRANCH  13  27
ATOM     27  C   UNL     1       0.168  10.799  18.527  0.00  0.00    +0.000 C 
BRANCH  27  28
ATOM     28  C   UNL     1       1.268   9.767  18.446  0.00  0.00    +0.000 C 
ATOM     29  O   UNL     1       1.444   8.944  19.339  0.00  0.00    +0.000 OA
BRANCH  28  30
ATOM     30  O   UNL     1       2.062   9.773  17.357  0.00  0.00    +0.000 OA
ATOM     31  H   UNL     1       1.595   9.842  16.497  0.00  0.00    +0.000 HD
ENDBRANCH  28  30
ENDBRANCH  27  28
ENDBRANCH  13  27
TORSDOF 5
ENDMDL
MODEL 3
REMARK VINA RESULT:      -6.4      0.888      1.020
REMARK  Name = 
REMARK  6 active torsions:
REMARK  status: ('A' for Active; 'I' for Inactive)
REMARK    1  A    between atoms: C_1  and  N_2
REMARK    2  A    between atoms: N_2  and  C_3
REMARK    3  A    between atoms: N_2  and  C_13
REMARK    4  A    between atoms: N_25  and  C_26
REMARK    5  A    between atoms: C_26  and  C_27
REMARK    6  A    between atoms: C_27  and  O_29
REMARK                            x       y       z     vdW  Elec       q    Type
REMARK                         _______ _______ _______ _____ _____    ______ ____
ROOT
ATOM      1  C   UNL     1      -2.477  13.435  23.484  0.00  0.00    +0.000 C 
ATOM      2  C   UNL     1      -2.213  11.926  23.221  0.00  0.00    +0.000 C 
ATOM      3  C   UNL     1      -1.662  11.649  21.806  0.00  0.00    +0.000 C 
ATOM      4  C   UNL     1      -0.656  12.692  21.419  0.00  0.00    +0.000 A 
ATOM      5  C   UNL     1      -0.396  13.842  22.136  0.00  0.00    +0.000 A 
ATOM      6  C   UNL     1       0.592  14.577  21.444  0.00  0.00    +0.000 A 
ATOM      7  C   UNL     1       1.258  15.785  21.718  0.00  0.00    +0.000 A 
ATOM      8  C   UNL     1       2.176  16.269  20.794  0.00  0.00    +0.000 A 
ATOM      9  F   UNL     1       2.825  17.411  21.059  0.00  0.00    +0.000 F 
ATOM     10  C   UNL     1       2.427  15.599  19.607  0.00  0.00    +0.000 A 
ATOM     11  C   UNL     1       1.773  14.395  19.310  0.00  0.00    +0.000 A 
ATOM     12  C   UNL     1       0.863  13.885  20.255  0.00  0.00    +0.000 A 
ATOM     13  N   UNL     1       0.094  12.729  20.268  0.00  0.00    +0.000 N 
ATOM     14  C   UNL     1      -1.111  14.178  23.403  0.00  0.00    +0.000 C 
ENDROOT
BRANCH   1  16
ATOM     15  C   UNL     1      -3.528  15.316  22.105  0.00  0.00    +0.000 C 
ATOM     16  N   UNL     1      -3.537  13.924  22.544  0.00  0.00    +0.000 N 
BRANCH  16  17
ATOM     17  C   UNL     1      -4.769  13.245  22.578  0.00  0.00    +0.000 A 
ATOM     18  N   UNL     1      -5.389  13.182  23.774  0.00  0.00    +0.000 NA
ATOM     19  C   UNL     1      -6.605  12.632  23.821  0.00  0.00    +0.000 A 
ATOM     20  N   UNL     1      -7.288  12.142  22.786  0.00  0.00    +0.000 NA
ATOM     21  C   UNL     1      -6.669  12.157  21.604  0.00  0.00    +0.000 A 
ATOM     22  C   UNL     1      -7.362  11.660  20.502  0.00  0.00    +0.000 A 
ATOM     23  C   UNL     1      -6.800  11.623  19.227  0.00  0.00    +0.000 A 
ATOM     24  C   UNL     1      -5.491  12.035  19.048  0.00  0.00    +0.000 A 
ATOM     25  C   UNL     1      -4.772  12.505  20.144  0.00  0.00    +0.000 A 
ATOM     26  C   UNL     1      -5.365  12.654  21.430  0.00  0.00    +0.000 A 
ENDBRANCH  16  17
ENDBRANCH   1  16
BRANCH  13  27
ATOM     27  C   UNL     1       0.072  11.713  19.221  0.00  0.00    +0.000 C 
BRANCH  27  28
ATOM     28  C   UNL     1      -1.082  11.791  18.249  0.00  0.00    +0.000 C 
ATOM     29  O   UNL     1      -1.967  10.942  18.233  0.00  0.00    +0.000 OA
BRANCH  28  30
ATOM     30  O   UNL     1      -1.116  12.829  17.389  0.00  0.00    +0.000 OA
ATOM     31  H   UNL     1      -0.333  12.914  16.803  0.00  0.00    +0.000 HD
ENDBRANCH  28  30
ENDBRANCH  27  28
ENDBRANCH  13  27
TORSDOF 5
ENDMDL
MODEL 4
REMARK VINA RESULT:      -6.3      3.201      6.694
REMARK  Name = 
REMARK  6 active torsions:
REMARK  status: ('A' for Active; 'I' for Inactive)
REMARK    1  A    between atoms: C_1  and  N_2
REMARK    2  A    between atoms: N_2  and  C_3
REMARK    3  A    between atoms: N_2  and  C_13
REMARK    4  A    between atoms: N_25  and  C_26
REMARK    5  A    between atoms: C_26  and  C_27
REMARK    6  A    between atoms: C_27  and  O_29
REMARK                            x       y       z     vdW  Elec       q    Type
REMARK                         _______ _______ _______ _____ _____    ______ ____
ROOT
ATOM      1  C   UNL     1       0.554  11.819  20.730  0.00  0.00    +0.000 C 
ATOM      2  C   UNL     1      -0.430  11.889  21.932  0.00  0.00    +0.000 C 
ATOM      3  C   UNL     1      -1.797  12.497  21.554  0.00  0.00    +0.000 C 
ATOM      4  C   UNL     1      -2.245  11.996  20.214  0.00  0.00    +0.000 A 
ATOM      5  C   UNL     1      -1.468  11.252  19.350  0.00  0.00    +0.000 A 
ATOM      6  C   UNL     1      -2.227  10.993  18.187  0.00  0.00    +0.000 A 
ATOM      7  C   UNL     1      -1.967  10.264  17.013  0.00  0.00    +0.000 A 
ATOM      8  C   UNL     1      -2.936  10.229  16.018  0.00  0.00    +0.000 A 
ATOM      9  F   UNL     1      -2.699   9.522  14.904  0.00  0.00    +0.000 F 
ATOM     10  C   UNL     1      -4.134  10.912  16.152  0.00  0.00    +0.000 A 
ATOM     11  C   UNL     1      -4.416  11.647  17.312  0.00  0.00    +0.000 A 
ATOM     12  C   UNL     1      -3.449  11.663  18.336  0.00  0.00    +0.000 A 
ATOM     13  N   UNL     1      -3.440  12.262  19.589  0.00  0.00    +0.000 N 
ATOM     14  C   UNL     1      -0.062  10.861  19.668  0.00  0.00    +0.000 C 
ENDROOT
BRANCH   1  16
ATOM     15  C   UNL     1       0.883  13.491  18.823  0.00  0.00    +0.000 C 
ATOM     16  N   UNL     1       0.855  13.207  20.255  0.00  0.00    +0.000 N 
BRANCH  16  17
ATOM     17  C   UNL     1       1.641  14.006  21.105  0.00  0.00    +0.000 A 
ATOM     18  N   UNL     1       2.909  13.599  21.314  0.00  0.00    +0.000 NA
ATOM     19  C   UNL     1       3.709  14.387  22.037  0.00  0.00    +0.000 A 
ATOM     20  N   UNL     1       3.381  15.564  22.571  0.00  0.00    +0.000 NA
ATOM     21  C   UNL     1       2.118  15.959  22.411  0.00  0.00    +0.000 A 
ATOM     22  C   UNL     1       1.748  17.190  22.950  0.00  0.00    +0.000 A 
ATOM     23  C   UNL     1       0.449  17.687  22.845  0.00  0.00    +0.000 A 
ATOM     24  C   UNL     1      -0.527  16.916  22.239  0.00  0.00    +0.000 A 
ATOM     25  C   UNL     1      -0.183  15.669  21.723  0.00  0.00    +0.000 A 
ATOM     26  C   UNL     1       1.158  15.194  21.722  0.00  0.00    +0.000 A 
ENDBRANCH  16  17
ENDBRANCH   1  16
BRANCH  13  27
ATOM     27  C   UNL     1      -4.523  13.060  20.157  0.00  0.00    +0.000 C 
BRANCH  27  28
ATOM     28  C   UNL     1      -5.535  12.304  20.985  0.00  0.00    +0.000 C 
ATOM     29  O   UNL     1      -5.508  12.327  22.211  0.00  0.00    +0.000 OA
BRANCH  28  30
ATOM     30  O   UNL     1      -6.481  11.595  20.336  0.00  0.00    +0.000 OA
ATOM     31  H   UNL     1      -7.407  11.801  20.588  0.00  0.00    +0.000 HD
ENDBRANCH  28  30
ENDBRANCH  27  28
ENDBRANCH  13  27
TORSDOF 5
ENDMDL
MODEL 5
REMARK VINA RESULT:      -6.3      6.808      9.330
REMARK  Name = 
REMARK  6 active torsions:
REMARK  status: ('A' for Active; 'I' for Inactive)
REMARK    1  A    between atoms: C_1  and  N_2
REMARK    2  A    between atoms: N_2  and  C_3
REMARK    3  A    between atoms: N_2  and  C_13
REMARK    4  A    between atoms: N_25  and  C_26
REMARK    5  A    between atoms: C_26  and  C_27
REMARK    6  A    between atoms: C_27  and  O_29
REMARK                            x       y       z     vdW  Elec       q    Type
REMARK                         _______ _______ _______ _____ _____    ______ ____
ROOT
ATOM      1  C   UNL     1       1.792   8.001  17.938  0.00  0.00    +0.000 C 
ATOM      2  C   UNL     1       3.131   8.387  17.249  0.00  0.00    +0.000 C 
ATOM      3  C   UNL     1       4.353   7.678  17.869  0.00  0.00    +0.000 C 
ATOM      4  C   UNL     1       4.028   6.249  18.187  0.00  0.00    +0.000 A 
ATOM      5  C   UNL     1       2.767   5.692  18.117  0.00  0.00    +0.000 A 
ATOM      6  C   UNL     1       2.862   4.339  18.511  0.00  0.00    +0.000 A 
ATOM      7  C   UNL     1       1.923   3.295  18.595  0.00  0.00    +0.000 A 
ATOM      8  C   UNL     1       2.338   2.056  19.064  0.00  0.00    +0.000 A 
ATOM      9  F   UNL     1       1.451   1.054  19.130  0.00  0.00    +0.000 F 
ATOM     10  C   UNL     1       3.647   1.838  19.468  0.00  0.00    +0.000 A 
ATOM     11  C   UNL     1       4.600   2.863  19.395  0.00  0.00    +0.000 A 
ATOM     12  C   UNL     1       4.191   4.114  18.894  0.00  0.00    +0.000 A 
ATOM     13  N   UNL     1       4.888   5.295  18.677  0.00  0.00    +0.000 N 
ATOM     14  C   UNL     1       1.564   6.477  17.711  0.00  0.00    +0.000 C 
ENDROOT
BRANCH   1  16
ATOM     15  C   UNL     1       1.871   7.450  20.434  0.00  0.00    +0.000 C 
ATOM     16  N   UNL     1       1.825   8.446  19.368  0.00  0.00    +0.000 N 
BRANCH  16  17
ATOM     17  C   UNL     1       1.244   9.696  19.651  0.00  0.00    +0.000 A 
ATOM     18  N   UNL     1       1.345  10.639  18.692  0.00  0.00    +0.000 NA
ATOM     19  C   UNL     1       0.720  11.802  18.889  0.00  0.00    +0.000 A 
ATOM     20  N   UNL     1      -0.020  12.129  19.949  0.00  0.00    +0.000 NA
ATOM     21  C   UNL     1      -0.092  11.223  20.926  0.00  0.00    +0.000 A 
ATOM     22  C   UNL     1      -0.866  11.533  22.043  0.00  0.00    +0.000 A 
ATOM     23  C   UNL     1      -0.998  10.658  23.121  0.00  0.00    +0.000 A 
ATOM     24  C   UNL     1      -0.295   9.467  23.120  0.00  0.00    +0.000 A 
ATOM     25  C   UNL     1       0.509   9.155  22.026  0.00  0.00    +0.000 A 
ATOM     26  C   UNL     1       0.568   9.983  20.870  0.00  0.00    +0.000 A 
ENDBRANCH  16  17
ENDBRANCH   1  16
BRANCH  13  27
ATOM     27  C   UNL     1       6.309   5.503  18.938  0.00  0.00    +0.000 C 
BRANCH  27  28
ATOM     28  C   UNL     1       7.244   5.174  17.798  0.00  0.00    +0.000 C 
ATOM     29  O   UNL     1       7.385   5.931  16.844  0.00  0.00    +0.000 OA
BRANCH  28  30
ATOM     30  O   UNL     1       7.927   4.013  17.855  0.00  0.00    +0.000 OA
ATOM     31  H   UNL     1       8.543   3.851  17.108  0.00  0.00    +0.000 HD
ENDBRANCH  28  30
ENDBRANCH  27  28
ENDBRANCH  13  27
TORSDOF 5
ENDMDL
MODEL 6
REMARK VINA RESULT:      -6.2      3.663      5.678
REMARK  Name = 
REMARK  6 active torsions:
REMARK  status: ('A' for Active; 'I' for Inactive)
REMARK    1  A    between atoms: C_1  and  N_2
REMARK    2  A    between atoms: N_2  and  C_3
REMARK    3  A    between atoms: N_2  and  C_13
REMARK    4  A    between atoms: N_25  and  C_26
REMARK    5  A    between atoms: C_26  and  C_27
REMARK    6  A    between atoms: C_27  and  O_29
REMARK                            x       y       z     vdW  Elec       q    Type
REMARK                         _______ _______ _______ _____ _____    ______ ____
ROOT
ATOM      1  C   UNL     1      -0.946  13.026  20.948  0.00  0.00    +0.000 C 
ATOM      2  C   UNL     1       0.276  13.095  21.907  0.00  0.00    +0.000 C 
ATOM      3  C   UNL     1       1.573  13.535  21.197  0.00  0.00    +0.000 C 
ATOM      4  C   UNL     1       1.291  14.636  20.219  0.00  0.00    +0.000 A 
ATOM      5  C   UNL     1       0.031  15.068  19.859  0.00  0.00    +0.000 A 
ATOM      6  C   UNL     1       0.176  16.099  18.903  0.00  0.00    +0.000 A 
ATOM      7  C   UNL     1      -0.745  16.918  18.227  0.00  0.00    +0.000 A 
ATOM      8  C   UNL     1      -0.271  17.837  17.300  0.00  0.00    +0.000 A 
ATOM      9  F   UNL     1      -1.144  18.631  16.664  0.00  0.00    +0.000 F 
ATOM     10  C   UNL     1       1.082  17.945  17.017  0.00  0.00    +0.000 A 
ATOM     11  C   UNL     1       2.020  17.139  17.677  0.00  0.00    +0.000 A 
ATOM     12  C   UNL     1       1.547  16.224  18.638  0.00  0.00    +0.000 A 
ATOM     13  N   UNL     1       2.210  15.325  19.463  0.00  0.00    +0.000 N 
ATOM     14  C   UNL     1      -1.215  14.465  20.417  0.00  0.00    +0.000 C 
ENDROOT
BRANCH   1  16
ATOM     15  C   UNL     1      -1.482  11.992  18.671  0.00  0.00    +0.000 C 
ATOM     16  N   UNL     1      -0.695  11.985  19.900  0.00  0.00    +0.000 N 
BRANCH  16  17
ATOM     17  C   UNL     1      -0.171  10.758  20.346  0.00  0.00    +0.000 A 
ATOM     18  N   UNL     1      -0.623  10.304  21.533  0.00  0.00    +0.000 NA
ATOM     19  C   UNL     1      -0.220   9.097  21.937  0.00  0.00    +0.000 A 
ATOM     20  N   UNL     1       0.589   8.273  21.270  0.00  0.00    +0.000 NA
ATOM     21  C   UNL     1       1.080   8.726  20.116  0.00  0.00    +0.000 A 
ATOM     22  C   UNL     1       1.920   7.883  19.392  0.00  0.00    +0.000 A 
ATOM     23  C   UNL     1       2.492   8.267  18.180  0.00  0.00    +0.000 A 
ATOM     24  C   UNL     1       2.274   9.546  17.699  0.00  0.00    +0.000 A 
ATOM     25  C   UNL     1       1.462  10.414  18.426  0.00  0.00    +0.000 A 
ATOM     26  C   UNL     1       0.782  10.003  19.606  0.00  0.00    +0.000 A 
ENDBRANCH  16  17
ENDBRANCH   1  16
BRANCH  13  27
ATOM     27  C   UNL     1       3.655  15.128  19.516  0.00  0.00    +0.000 C 
BRANCH  27  28
ATOM     28  C   UNL     1       4.276  14.470  18.307  0.00  0.00    +0.000 C 
ATOM     29  O   UNL     1       5.357  14.840  17.859  0.00  0.00    +0.000 OA
BRANCH  28  30
ATOM     30  O   UNL     1       3.607  13.456  17.723  0.00  0.00    +0.000 OA
ATOM     31  H   UNL     1       3.584  13.477  16.742  0.00  0.00    +0.000 HD
ENDBRANCH  28  30
ENDBRANCH  27  28
ENDBRANCH  13  27
TORSDOF 5
ENDMDL
MODEL 7
REMARK VINA RESULT:      -6.0      2.159      2.685
REMARK  Name = 
REMARK  6 active torsions:
REMARK  status: ('A' for Active; 'I' for Inactive)
REMARK    1  A    between atoms: C_1  and  N_2
REMARK    2  A    between atoms: N_2  and  C_3
REMARK    3  A    between atoms: N_2  and  C_13
REMARK    4  A    between atoms: N_25  and  C_26
REMARK    5  A    between atoms: C_26  and  C_27
REMARK    6  A    between atoms: C_27  and  O_29
REMARK                            x       y       z     vdW  Elec       q    Type
REMARK                         _______ _______ _______ _____ _____    ______ ____
ROOT
ATOM      1  C   UNL     1      -1.448  15.443  22.832  0.00  0.00    +0.000 C 
ATOM      2  C   UNL     1      -1.432  14.253  23.832  0.00  0.00    +0.000 C 
ATOM      3  C   UNL     1      -1.339  12.881  23.131  0.00  0.00    +0.000 C 
ATOM      4  C   UNL     1      -0.381  12.940  21.979  0.00  0.00    +0.000 A 
ATOM      5  C   UNL     1       0.194  14.096  21.490  0.00  0.00    +0.000 A 
ATOM      6  C   UNL     1       1.015  13.748  20.395  0.00  0.00    +0.000 A 
ATOM      7  C   UNL     1       1.857  14.494  19.551  0.00  0.00    +0.000 A 
ATOM      8  C   UNL     1       2.519  13.843  18.518  0.00  0.00    +0.000 A 
ATOM      9  F   UNL     1       3.334  14.547  17.721  0.00  0.00    +0.000 F 
ATOM     10  C   UNL     1       2.348  12.485  18.294  0.00  0.00    +0.000 A 
ATOM     11  C   UNL     1       1.513  11.721  19.120  0.00  0.00    +0.000 A 
ATOM     12  C   UNL     1       0.861  12.370  20.186  0.00  0.00    +0.000 A 
ATOM     13  N   UNL     1       0.010  11.897  21.175  0.00  0.00    +0.000 N 
ATOM     14  C   UNL     1      -0.091  15.442  22.070  0.00  0.00    +0.000 C 
ENDROOT
BRANCH   1  16
ATOM     15  C   UNL     1      -2.659  15.921  20.630  0.00  0.00    +0.000 C 
ATOM     16  N   UNL     1      -2.674  15.353  21.975  0.00  0.00    +0.000 N 
BRANCH  16  17
ATOM     17  C   UNL     1      -3.907  15.271  22.647  0.00  0.00    +0.000 A 
ATOM     18  N   UNL     1      -4.140  16.202  23.594  0.00  0.00    +0.000 NA
ATOM     19  C   UNL     1      -5.340  16.210  24.181  0.00  0.00    +0.000 A 
ATOM     20  N   UNL     1      -6.354  15.388  23.913  0.00  0.00    +0.000 NA
ATOM     21  C   UNL     1      -6.123  14.434  23.010  0.00  0.00    +0.000 A 
ATOM     22  C   UNL     1      -7.168  13.564  22.702  0.00  0.00    +0.000 A 
ATOM     23  C   UNL     1      -7.024  12.528  21.780  0.00  0.00    +0.000 A 
ATOM     24  C   UNL     1      -5.792  12.309  21.189  0.00  0.00    +0.000 A 
ATOM     25  C   UNL     1      -4.728  13.148  21.510  0.00  0.00    +0.000 A 
ATOM     26  C   UNL     1      -4.884  14.277  22.362  0.00  0.00    +0.000 A 
ENDBRANCH  16  17
ENDBRANCH   1  16
BRANCH  13  27
ATOM     27  C   UNL     1      -0.418  10.510  21.335  0.00  0.00    +0.000 C 
BRANCH  27  28
ATOM     28  C   UNL     1       0.411   9.669  22.276  0.00  0.00    +0.000 C 
ATOM     29  O   UNL     1       0.346   9.813  23.493  0.00  0.00    +0.000 OA
BRANCH  28  30
ATOM     30  O   UNL     1       1.233   8.744  21.742  0.00  0.00    +0.000 OA
ATOM     31  H   UNL     1       0.922   7.816  21.810  0.00  0.00    +0.000 HD
ENDBRANCH  28  30
ENDBRANCH  27  28
ENDBRANCH  13  27
TORSDOF 5
ENDMDL
MODEL 8
REMARK VINA RESULT:      -5.9      1.456      1.646
REMARK  Name = 
REMARK  6 active torsions:
REMARK  status: ('A' for Active; 'I' for Inactive)
REMARK    1  A    between atoms: C_1  and  N_2
REMARK    2  A    between atoms: N_2  and  C_3
REMARK    3  A    between atoms: N_2  and  C_13
REMARK    4  A    between atoms: N_25  and  C_26
REMARK    5  A    between atoms: C_26  and  C_27
REMARK    6  A    between atoms: C_27  and  O_29
REMARK                            x       y       z     vdW  Elec       q    Type
REMARK                         _______ _______ _______ _____ _____    ______ ____
ROOT
ATOM      1  C   UNL     1      -3.372  14.395  23.347  0.00  0.00    +0.000 C 
ATOM      2  C   UNL     1      -2.959  12.918  23.599  0.00  0.00    +0.000 C 
ATOM      3  C   UNL     1      -2.390  12.229  22.341  0.00  0.00    +0.000 C 
ATOM      4  C   UNL     1      -1.496  13.167  21.586  0.00  0.00    +0.000 A 
ATOM      5  C   UNL     1      -1.348  14.511  21.863  0.00  0.00    +0.000 A 
ATOM      6  C   UNL     1      -0.442  15.055  20.925  0.00  0.00    +0.000 A 
ATOM      7  C   UNL     1       0.102  16.340  20.750  0.00  0.00    +0.000 A 
ATOM      8  C   UNL     1       0.962  16.564  19.683  0.00  0.00    +0.000 A 
ATOM      9  F   UNL     1       1.496  17.783  19.522  0.00  0.00    +0.000 F 
ATOM     10  C   UNL     1       1.273  15.557  18.783  0.00  0.00    +0.000 A 
ATOM     11  C   UNL     1       0.742  14.269  18.935  0.00  0.00    +0.000 A 
ATOM     12  C   UNL     1      -0.108  14.028  20.031  0.00  0.00    +0.000 A 
ATOM     13  N   UNL     1      -0.758  12.880  20.463  0.00  0.00    +0.000 N 
ATOM     14  C   UNL     1      -2.087  15.189  22.968  0.00  0.00    +0.000 C 
ENDROOT
BRANCH   1  16
ATOM     15  C   UNL     1      -4.678  15.633  21.529  0.00  0.00    +0.000 C 
ATOM     16  N   UNL     1      -4.479  14.435  22.338  0.00  0.00    +0.000 N 
BRANCH  16  17
ATOM     17  C   UNL     1      -5.594  13.615  22.595  0.00  0.00    +0.000 A 
ATOM     18  N   UNL     1      -6.196  13.774  23.791  0.00  0.00    +0.000 NA
ATOM     19  C   UNL     1      -7.313  13.082  24.026  0.00  0.00    +0.000 A 
ATOM     20  N   UNL     1      -7.914  12.245  23.180  0.00  0.00    +0.000 NA
ATOM     21  C   UNL     1      -7.306  12.044  22.010  0.00  0.00    +0.000 A 
ATOM     22  C   UNL     1      -7.916  11.182  21.101  0.00  0.00    +0.000 A 
ATOM     23  C   UNL     1      -7.355  10.898  19.856  0.00  0.00    +0.000 A 
ATOM     24  C   UNL     1      -6.125  11.437  19.525  0.00  0.00    +0.000 A 
ATOM     25  C   UNL     1      -5.486  12.276  20.435  0.00  0.00    +0.000 A 
ATOM     26  C   UNL     1      -6.093  12.665  21.662  0.00  0.00    +0.000 A 
ENDBRANCH  16  17
ENDBRANCH   1  16
BRANCH  13  27
ATOM     27  C   UNL     1      -0.683  11.570  19.822  0.00  0.00    +0.000 C 
BRANCH  27  28
ATOM     28  C   UNL     1      -1.492  11.408  18.557  0.00  0.00    +0.000 C 
ATOM     29  O   UNL     1      -2.603  11.914  18.436  0.00  0.00    +0.000 OA
BRANCH  28  30
ATOM     30  O   UNL     1      -0.959  10.683  17.553  0.00  0.00    +0.000 OA
ATOM     31  H   UNL     1      -1.569  10.481  16.811  0.00  0.00    +0.000 HD
ENDBRANCH  28  30
ENDBRANCH  27  28
ENDBRANCH  13  27
TORSDOF 5
ENDMDL
MODEL 9
REMARK VINA RESULT:      -5.9      6.550      8.879
REMARK  Name = 
REMARK  6 active torsions:
REMARK  status: ('A' for Active; 'I' for Inactive)
REMARK    1  A    between atoms: C_1  and  N_2
REMARK    2  A    between atoms: N_2  and  C_3
REMARK    3  A    between atoms: N_2  and  C_13
REMARK    4  A    between atoms: N_25  and  C_26
REMARK    5  A    between atoms: C_26  and  C_27
REMARK    6  A    between atoms: C_27  and  O_29
REMARK                            x       y       z     vdW  Elec       q    Type
REMARK                         _______ _______ _______ _____ _____    ______ ____
ROOT
ATOM      1  C   UNL     1       5.754  16.311  18.937  0.00  0.00    +0.000 C 
ATOM      2  C   UNL     1       6.005  16.918  20.346  0.00  0.00    +0.000 C 
ATOM      3  C   UNL     1       6.408  15.858  21.393  0.00  0.00    +0.000 C 
ATOM      4  C   UNL     1       7.357  14.862  20.797  0.00  0.00    +0.000 A 
ATOM      5  C   UNL     1       7.679  14.782  19.458  0.00  0.00    +0.000 A 
ATOM      6  C   UNL     1       8.581  13.709  19.285  0.00  0.00    +0.000 A 
ATOM      7  C   UNL     1       9.260  13.196  18.166  0.00  0.00    +0.000 A 
ATOM      8  C   UNL     1      10.071  12.079  18.327  0.00  0.00    +0.000 A 
ATOM      9  F   UNL     1      10.732  11.596  17.267  0.00  0.00    +0.000 F 
ATOM     10  C   UNL     1      10.203  11.455  19.558  0.00  0.00    +0.000 A 
ATOM     11  C   UNL     1       9.535  11.947  20.688  0.00  0.00    +0.000 A 
ATOM     12  C   UNL     1       8.734  13.095  20.536  0.00  0.00    +0.000 A 
ATOM     13  N   UNL     1       7.983  13.825  21.447  0.00  0.00    +0.000 N 
ATOM     14  C   UNL     1       7.097  15.702  18.436  0.00  0.00    +0.000 C 
ENDROOT
BRANCH   1  16
ATOM     15  C   UNL     1       4.605  14.153  18.187  0.00  0.00    +0.000 C 
ATOM     16  N   UNL     1       4.597  15.362  19.005  0.00  0.00    +0.000 N 
BRANCH  16  17
ATOM     17  C   UNL     1       3.353  15.911  19.367  0.00  0.00    +0.000 A 
ATOM     18  N   UNL     1       2.923  15.656  20.619  0.00  0.00    +0.000 NA
ATOM     19  C   UNL     1       1.795  16.244  21.025  0.00  0.00    +0.000 A 
ATOM     20  N   UNL     1       1.043  17.084  20.312  0.00  0.00    +0.000 NA
ATOM     21  C   UNL     1       1.433  17.311  19.057  0.00  0.00    +0.000 A 
ATOM     22  C   UNL     1       0.672  18.192  18.291  0.00  0.00    +0.000 A 
ATOM     23  C   UNL     1       0.990  18.488  16.965  0.00  0.00    +0.000 A 
ATOM     24  C   UNL     1       2.058  17.846  16.362  0.00  0.00    +0.000 A 
ATOM     25  C   UNL     1       2.809  16.938  17.103  0.00  0.00    +0.000 A 
ATOM     26  C   UNL     1       2.569  16.708  18.487  0.00  0.00    +0.000 A 
ENDBRANCH  16  17
ENDBRANCH   1  16
BRANCH  13  27
ATOM     27  C   UNL     1       7.862  13.536  22.873  0.00  0.00    +0.000 C 
BRANCH  27  28
ATOM     28  C   UNL     1       6.907  12.425  23.242  0.00  0.00    +0.000 C 
ATOM     29  O   UNL     1       7.311  11.326  23.610  0.00  0.00    +0.000 OA
BRANCH  28  30
ATOM     30  O   UNL     1       5.584  12.672  23.157  0.00  0.00    +0.000 OA
ATOM     31  H   UNL     1       5.087  12.592  23.999  0.00  0.00    +0.000 HD
ENDBRANCH  28  30
ENDBRANCH  27  28
ENDBRANCH  13  27
TORSDOF 5
ENDMDL
