MODEL 1
REMARK VINA RESULT:      -7.9      0.000      0.000
REMARK  Name = 
REMARK  6 active torsions:
REMARK  status: ('A' for Active; 'I' for Inactive)
REMARK    1  A    between atoms: C_1  and  C_2
REMARK    2  A    between atoms: C_4  and  C_5
REMARK    3  A    between atoms: N_7  and  C_8
REMARK    4  A    between atoms: C_8  and  C_9
REMARK    5  A    between atoms: C_8  and  C_10
REMARK    6  A    between atoms: C_19  and  C_20
REMARK                            x       y       z     vdW  Elec       q    Type
REMARK                         _______ _______ _______ _____ _____    ______ ____
ROOT
ATOM      1  C   UNL     1       3.185   8.067  17.870  0.00  0.00    +0.000 C 
ATOM      2  C   UNL     1       3.377   6.587  17.717  0.00  0.00    +0.000 A 
ATOM      3  C   UNL     1       4.317   6.073  16.841  0.00  0.00    +0.000 A 
ATOM      4  C   UNL     1       4.507   4.688  16.803  0.00  0.00    +0.000 A 
ATOM      5  C   UNL     1       3.743   3.839  17.659  0.00  0.00    +0.000 A 
ATOM      6  C   UNL     1       3.883   2.428  17.756  0.00  0.00    +0.000 A 
ATOM      7  C   UNL     1       3.151   1.673  18.670  0.00  0.00    +0.000 A 
ATOM      8  C   UNL     1       2.221   2.299  19.480  0.00  0.00    +0.000 A 
ATOM      9  C   UNL     1       2.016   3.681  19.373  0.00  0.00    +0.000 A 
ATOM     10  C   UNL     1       0.931   4.316  20.205  0.00  0.00    +0.000 C 
ATOM     11  C   UNL     1       2.791   4.466  18.500  0.00  0.00    +0.000 A 
ATOM     12  N   UNL     1       2.619   5.800  18.510  0.00  0.00    +0.000 NA
ENDROOT
BRANCH   4  13
ATOM     13  C   UNL     1       5.512   4.127  15.832  0.00  0.00    +0.000 C 
ATOM     14  O   UNL     1       6.563   3.641  16.223  0.00  0.00    +0.000 OA
ATOM     15  N   UNL     1       5.214   4.188  14.482  0.00  0.00    +0.000 N 
ATOM     16  H   UNL     1       4.349   4.583  14.140  0.00  0.00    +0.000 HD
BRANCH  15  17
ATOM     17  C   UNL     1       6.149   3.662  13.493  0.00  0.00    +0.000 C 
ATOM     18  C   UNL     1       5.434   3.224  12.216  0.00  0.00    +0.000 C 
BRANCH  17  19
ATOM     19  C   UNL     1       7.159   4.712  13.199  0.00  0.00    +0.000 A 
ATOM     20  N   UNL     1       7.480   5.245  12.037  0.00  0.00    +0.000 NA
ATOM     21  N   UNL     1       8.479   6.149  12.299  0.00  0.00    +0.000 NA
ATOM     22  N   UNL     1       8.763   6.186  13.594  0.00  0.00    +0.000 NA
ATOM     23  N   UNL     1       7.938   5.293  14.157  0.00  0.00    +0.000 N 
ATOM     24  H   UNL     1       7.966   5.148  15.159  0.00  0.00    +0.000 HD
ENDBRANCH  17  19
ENDBRANCH  15  17
ENDBRANCH   4  13
TORSDOF 3
ENDMDL
MODEL 2
REMARK VINA RESULT:      -7.8      3.635      7.105
REMARK  Name = 
REMARK  6 active torsions:
REMARK  status: ('A' for Active; 'I' for Inactive)
REMARK    1  A    between atoms: C_1  and  C_2
REMARK    2  A    between atoms: C_4  and  C_5
REMARK    3  A    between atoms: N_7  and  C_8
REMARK    4  A    between atoms: C_8  and  C_9
REMARK    5  A    between atoms: C_8  and  C_10
REMARK    6  A    between atoms: C_19  and  C_20
REMARK                            x       y       z     vdW  Elec       q    Type
REMARK                         _______ _______ _______ _____ _____    ______ ____
ROOT
ATOM      1  C   UNL     1       5.294   5.605  15.968  0.00  0.00    +0.000 C 
ATOM      2  C   UNL     1       4.308   5.537  17.096  0.00  0.00    +0.000 A 
ATOM      3  C   UNL     1       3.736   6.685  17.618  0.00  0.00    +0.000 A 
ATOM      4  C   UNL     1       2.763   6.552  18.613  0.00  0.00    +0.000 A 
ATOM      5  C   UNL     1       2.377   5.254  19.066  0.00  0.00    +0.000 A 
ATOM      6  C   UNL     1       1.363   4.985  20.025  0.00  0.00    +0.000 A 
ATOM      7  C   UNL     1       0.990   3.687  20.364  0.00  0.00    +0.000 A 
ATOM      8  C   UNL     1       1.654   2.617  19.791  0.00  0.00    +0.000 A 
ATOM      9  C   UNL     1       2.697   2.845  18.883  0.00  0.00    +0.000 A 
ATOM     10  C   UNL     1       3.459   1.659  18.348  0.00  0.00    +0.000 C 
ATOM     11  C   UNL     1       3.042   4.148  18.484  0.00  0.00    +0.000 A 
ATOM     12  N   UNL     1       3.984   4.303  17.535  0.00  0.00    +0.000 NA
ENDROOT
BRANCH   4  13
ATOM     13  C   UNL     1       2.157   7.801  19.198  0.00  0.00    +0.000 C 
ATOM     14  O   UNL     1       1.892   7.876  20.389  0.00  0.00    +0.000 OA
ATOM     15  N   UNL     1       1.901   8.859  18.344  0.00  0.00    +0.000 N 
ATOM     16  H   UNL     1       2.116   8.816  17.356  0.00  0.00    +0.000 HD
BRANCH  15  17
ATOM     17  C   UNL     1       1.314  10.095  18.850  0.00  0.00    +0.000 C 
ATOM     18  C   UNL     1       2.046  11.327  18.321  0.00  0.00    +0.000 C 
BRANCH  17  19
ATOM     19  C   UNL     1      -0.120  10.126  18.461  0.00  0.00    +0.000 A 
ATOM     20  N   UNL     1      -1.161  10.499  19.178  0.00  0.00    +0.000 NA
ATOM     21  N   UNL     1      -2.259  10.321  18.374  0.00  0.00    +0.000 NA
ATOM     22  N   UNL     1      -1.907   9.860  17.180  0.00  0.00    +0.000 NA
ATOM     23  N   UNL     1      -0.574   9.741  17.232  0.00  0.00    +0.000 N 
ATOM     24  H   UNL     1      -0.069   9.408  16.420  0.00  0.00    +0.000 HD
ENDBRANCH  17  19
ENDBRANCH  15  17
ENDBRANCH   4  13
TORSDOF 3
ENDMDL
MODEL 3
REMARK VINA RESULT:      -7.7      2.508      6.725
REMARK  Name = 
REMARK  6 active torsions:
REMARK  status: ('A' for Active; 'I' for Inactive)
REMARK    1  A    between atoms: C_1  and  C_2
REMARK    2  A    between atoms: C_4  and  C_5
REMARK    3  A    between atoms: N_7  and  C_8
REMARK    4  A    between atoms: C_8  and  C_9
REMARK    5  A    between atoms: C_8  and  C_10
REMARK    6  A    between atoms: C_19  and  C_20
REMARK                            x       y       z     vdW  Elec       q    Type
REMARK                         _______ _______ _______ _____ _____    ______ ____
ROOT
ATOM      1  C   UNL     1       8.163   8.285  17.765  0.00  0.00    +0.000 C 
ATOM      2  C   UNL     1       7.391   7.037  17.456  0.00  0.00    +0.000 A 
ATOM      3  C   UNL     1       6.530   6.478  18.385  0.00  0.00    +0.000 A 
ATOM      4  C   UNL     1       5.776   5.362  18.009  0.00  0.00    +0.000 A 
ATOM      5  C   UNL     1       5.900   4.828  16.691  0.00  0.00    +0.000 A 
ATOM      6  C   UNL     1       5.149   3.739  16.171  0.00  0.00    +0.000 A 
ATOM      7  C   UNL     1       5.272   3.319  14.848  0.00  0.00    +0.000 A 
ATOM      8  C   UNL     1       6.185   3.944  14.019  0.00  0.00    +0.000 A 
ATOM      9  C   UNL     1       6.983   4.985  14.513  0.00  0.00    +0.000 A 
ATOM     10  C   UNL     1       8.032   5.581  13.609  0.00  0.00    +0.000 C 
ATOM     11  C   UNL     1       6.826   5.461  15.827  0.00  0.00    +0.000 A 
ATOM     12  N   UNL     1       7.549   6.526  16.216  0.00  0.00    +0.000 NA
ENDROOT
BRANCH   4  13
ATOM     13  C   UNL     1       4.858   4.739  19.028  0.00  0.00    +0.000 C 
ATOM     14  O   UNL     1       5.210   3.769  19.684  0.00  0.00    +0.000 OA
ATOM     15  N   UNL     1       3.600   5.291  19.191  0.00  0.00    +0.000 N 
ATOM     16  H   UNL     1       3.293   6.094  18.660  0.00  0.00    +0.000 HD
BRANCH  15  17
ATOM     17  C   UNL     1       2.665   4.731  20.161  0.00  0.00    +0.000 C 
ATOM     18  C   UNL     1       1.782   5.810  20.783  0.00  0.00    +0.000 C 
BRANCH  17  19
ATOM     19  C   UNL     1       1.840   3.702  19.476  0.00  0.00    +0.000 A 
ATOM     20  N   UNL     1       1.982   3.204  18.264  0.00  0.00    +0.000 NA
ATOM     21  N   UNL     1       0.957   2.307  18.101  0.00  0.00    +0.000 NA
ATOM     22  N   UNL     1       0.202   2.239  19.190  0.00  0.00    +0.000 NA
ATOM     23  N   UNL     1       0.754   3.106  20.050  0.00  0.00    +0.000 N 
ATOM     24  H   UNL     1       0.349   3.224  20.970  0.00  0.00    +0.000 HD
ENDBRANCH  17  19
ENDBRANCH  15  17
ENDBRANCH   4  13
TORSDOF 3
ENDMDL
MODEL 4
REMARK VINA RESULT:      -7.7      3.765      7.781
REMARK  Name = 
REMARK  6 active torsions:
REMARK  status: ('A' for Active; 'I' for Inactive)
REMARK    1  A    between atoms: C_1  and  C_2
REMARK    2  A    between atoms: C_4  and  C_5
REMARK    3  A    between atoms: N_7  and  C_8
REMARK    4  A    between atoms: C_8  and  C_9
REMARK    5  A    between atoms: C_8  and  C_10
REMARK    6  A    between atoms: C_19  and  C_20
REMARK                            x       y       z     vdW  Elec       q    Type
REMARK                         _______ _______ _______ _____ _____    ______ ____
ROOT
ATOM      1  C   UNL     1       5.707   5.659  16.025  0.00  0.00    +0.000 C 
ATOM      2  C   UNL     1       4.703   5.837  17.125  0.00  0.00    +0.000 A 
ATOM      3  C   UNL     1       3.983   7.012  17.255  0.00  0.00    +0.000 A 
ATOM      4  C   UNL     1       3.003   7.088  18.250  0.00  0.00    +0.000 A 
ATOM      5  C   UNL     1       2.762   5.967  19.101  0.00  0.00    +0.000 A 
ATOM      6  C   UNL     1       1.759   5.898  20.106  0.00  0.00    +0.000 A 
ATOM      7  C   UNL     1       1.534   4.742  20.849  0.00  0.00    +0.000 A 
ATOM      8  C   UNL     1       2.337   3.635  20.644  0.00  0.00    +0.000 A 
ATOM      9  C   UNL     1       3.372   3.685  19.700  0.00  0.00    +0.000 A 
ATOM     10  C   UNL     1       4.286   2.493  19.568  0.00  0.00    +0.000 C 
ATOM     11  C   UNL     1       3.571   4.823  18.899  0.00  0.00    +0.000 A 
ATOM     12  N   UNL     1       4.515   4.779  17.942  0.00  0.00    +0.000 NA
ENDROOT
BRANCH   4  13
ATOM     13  C   UNL     1       2.236   8.375  18.407  0.00  0.00    +0.000 C 
ATOM     14  O   UNL     1       2.136   9.166  17.481  0.00  0.00    +0.000 OA
ATOM     15  N   UNL     1       1.658   8.639  19.636  0.00  0.00    +0.000 N 
ATOM     16  H   UNL     1       1.728   7.995  20.413  0.00  0.00    +0.000 HD
BRANCH  15  17
ATOM     17  C   UNL     1       0.903   9.869  19.850  0.00  0.00    +0.000 C 
ATOM     18  C   UNL     1      -0.385   9.893  19.030  0.00  0.00    +0.000 C 
BRANCH  17  19
ATOM     19  C   UNL     1       0.607   9.989  21.302  0.00  0.00    +0.000 A 
ATOM     20  N   UNL     1       1.148   9.335  22.311  0.00  0.00    +0.000 NA
ATOM     21  N   UNL     1       0.518   9.794  23.440  0.00  0.00    +0.000 NA
ATOM     22  N   UNL     1      -0.385  10.720  23.142  0.00  0.00    +0.000 NA
ATOM     23  N   UNL     1      -0.327  10.846  21.810  0.00  0.00    +0.000 N 
ATOM     24  H   UNL     1      -0.930  11.513  21.344  0.00  0.00    +0.000 HD
ENDBRANCH  17  19
ENDBRANCH  15  17
ENDBRANCH   4  13
TORSDOF 3
ENDMDL
MODEL 5
REMARK VINA RESULT:      -7.5      2.278      6.868
REMARK  Name = 
REMARK  6 active torsions:
REMARK  status: ('A' for Active; 'I' for Inactive)
REMARK    1  A    between atoms: C_1  and  C_2
REMARK    2  A    between atoms: C_4  and  C_5
REMARK    3  A    between atoms: N_7  and  C_8
REMARK    4  A    between atoms: C_8  and  C_9
REMARK    5  A    between atoms: C_8  and  C_10
REMARK    6  A    between atoms: C_19  and  C_20
REMARK                            x       y       z     vdW  Elec       q    Type
REMARK                         _______ _______ _______ _____ _____    ______ ____
ROOT
ATOM      1  C   UNL     1       7.706   7.364  17.639  0.00  0.00    +0.000 C 
ATOM      2  C   UNL     1       7.045   6.282  16.838  0.00  0.00    +0.000 A 
ATOM      3  C   UNL     1       5.970   5.572  17.343  0.00  0.00    +0.000 A 
ATOM      4  C   UNL     1       5.344   4.632  16.518  0.00  0.00    +0.000 A 
ATOM      5  C   UNL     1       5.814   4.427  15.186  0.00  0.00    +0.000 A 
ATOM      6  C   UNL     1       5.230   3.547  14.234  0.00  0.00    +0.000 A 
ATOM      7  C   UNL     1       5.700   3.454  12.926  0.00  0.00    +0.000 A 
ATOM      8  C   UNL     1       6.800   4.200  12.544  0.00  0.00    +0.000 A 
ATOM      9  C   UNL     1       7.436   5.036  13.472  0.00  0.00    +0.000 A 
ATOM     10  C   UNL     1       8.687   5.764  13.048  0.00  0.00    +0.000 C 
ATOM     11  C   UNL     1       6.935   5.188  14.777  0.00  0.00    +0.000 A 
ATOM     12  N   UNL     1       7.527   6.078  15.594  0.00  0.00    +0.000 NA
ENDROOT
BRANCH   4  13
ATOM     13  C   UNL     1       4.190   3.841  17.076  0.00  0.00    +0.000 C 
ATOM     14  O   UNL     1       3.062   3.964  16.620  0.00  0.00    +0.000 OA
ATOM     15  N   UNL     1       4.442   2.979  18.128  0.00  0.00    +0.000 N 
ATOM     16  H   UNL     1       5.368   2.863  18.517  0.00  0.00    +0.000 HD
BRANCH  15  17
ATOM     17  C   UNL     1       3.365   2.187  18.712  0.00  0.00    +0.000 C 
ATOM     18  C   UNL     1       3.826   0.773  19.057  0.00  0.00    +0.000 C 
BRANCH  17  19
ATOM     19  C   UNL     1       2.870   2.892  19.924  0.00  0.00    +0.000 A 
ATOM     20  N   UNL     1       2.891   2.489  21.179  0.00  0.00    +0.000 NA
ATOM     21  N   UNL     1       2.298   3.489  21.907  0.00  0.00    +0.000 NA
ATOM     22  N   UNL     1       1.928   4.495  21.125  0.00  0.00    +0.000 NA
ATOM     23  N   UNL     1       2.288   4.126  19.889  0.00  0.00    +0.000 N 
ATOM     24  H   UNL     1       2.111   4.748  19.110  0.00  0.00    +0.000 HD
ENDBRANCH  17  19
ENDBRANCH  15  17
ENDBRANCH   4  13
TORSDOF 3
ENDMDL
MODEL 6
REMARK VINA RESULT:      -7.4      4.623      8.037
REMARK  Name = 
REMARK  6 active torsions:
REMARK  status: ('A' for Active; 'I' for Inactive)
REMARK    1  A    between atoms: C_1  and  C_2
REMARK    2  A    between atoms: C_4  and  C_5
REMARK    3  A    between atoms: N_7  and  C_8
REMARK    4  A    between atoms: C_8  and  C_9
REMARK    5  A    between atoms: C_8  and  C_10
REMARK    6  A    between atoms: C_19  and  C_20
REMARK                            x       y       z     vdW  Elec       q    Type
REMARK                         _______ _______ _______ _____ _____    ______ ____
ROOT
ATOM      1  C   UNL     1       1.382   3.147  21.648  0.00  0.00    +0.000 C 
ATOM      2  C   UNL     1       1.948   3.945  20.512  0.00  0.00    +0.000 A 
ATOM      3  C   UNL     1       1.784   5.317  20.447  0.00  0.00    +0.000 A 
ATOM      4  C   UNL     1       2.404   6.015  19.406  0.00  0.00    +0.000 A 
ATOM      5  C   UNL     1       3.190   5.312  18.444  0.00  0.00    +0.000 A 
ATOM      6  C   UNL     1       3.916   5.911  17.379  0.00  0.00    +0.000 A 
ATOM      7  C   UNL     1       4.722   5.166  16.521  0.00  0.00    +0.000 A 
ATOM      8  C   UNL     1       4.789   3.793  16.672  0.00  0.00    +0.000 A 
ATOM      9  C   UNL     1       4.042   3.162  17.676  0.00  0.00    +0.000 A 
ATOM     10  C   UNL     1       4.066   1.656  17.754  0.00  0.00    +0.000 C 
ATOM     11  C   UNL     1       3.273   3.906  18.588  0.00  0.00    +0.000 A 
ATOM     12  N   UNL     1       2.658   3.256  19.592  0.00  0.00    +0.000 NA
ENDROOT
BRANCH   4  13
ATOM     13  C   UNL     1       2.205   7.506  19.322  0.00  0.00    +0.000 C 
ATOM     14  O   UNL     1       2.770   8.170  18.465  0.00  0.00    +0.000 OA
ATOM     15  N   UNL     1       1.371   8.103  20.250  0.00  0.00    +0.000 N 
ATOM     16  H   UNL     1       0.893   7.570  20.964  0.00  0.00    +0.000 HD
BRANCH  15  17
ATOM     17  C   UNL     1       1.139   9.543  20.220  0.00  0.00    +0.000 C 
ATOM     18  C   UNL     1       0.194   9.941  19.089  0.00  0.00    +0.000 C 
BRANCH  17  19
ATOM     19  C   UNL     1       0.588   9.956  21.538  0.00  0.00    +0.000 A 
ATOM     20  N   UNL     1       0.004  11.090  21.869  0.00  0.00    +0.000 NA
ATOM     21  N   UNL     1      -0.302  10.982  23.203  0.00  0.00    +0.000 NA
ATOM     22  N   UNL     1       0.073   9.805  23.686  0.00  0.00    +0.000 NA
ATOM     23  N   UNL     1       0.624   9.162  22.648  0.00  0.00    +0.000 N 
ATOM     24  H   UNL     1       0.983   8.224  22.774  0.00  0.00    +0.000 HD
ENDBRANCH  17  19
ENDBRANCH  15  17
ENDBRANCH   4  13
TORSDOF 3
ENDMDL
MODEL 7
REMARK VINA RESULT:      -7.2      4.669      7.886
REMARK  Name = 
REMARK  6 active torsions:
REMARK  status: ('A' for Active; 'I' for Inactive)
REMARK    1  A    between atoms: C_1  and  C_2
REMARK    2  A    between atoms: C_4  and  C_5
REMARK    3  A    between atoms: N_7  and  C_8
REMARK    4  A    between atoms: C_8  and  C_9
REMARK    5  A    between atoms: C_8  and  C_10
REMARK    6  A    between atoms: C_19  and  C_20
REMARK                            x       y       z     vdW  Elec       q    Type
REMARK                         _______ _______ _______ _____ _____    ______ ____
ROOT
ATOM      1  C   UNL     1       1.660   3.394  21.300  0.00  0.00    +0.000 C 
ATOM      2  C   UNL     1       2.043   4.523  20.391  0.00  0.00    +0.000 A 
ATOM      3  C   UNL     1       1.647   5.823  20.656  0.00  0.00    +0.000 A 
ATOM      4  C   UNL     1       2.104   6.844  19.817  0.00  0.00    +0.000 A 
ATOM      5  C   UNL     1       2.963   6.535  18.720  0.00  0.00    +0.000 A 
ATOM      6  C   UNL     1       3.539   7.486  17.834  0.00  0.00    +0.000 A 
ATOM      7  C   UNL     1       4.429   7.117  16.828  0.00  0.00    +0.000 A 
ATOM      8  C   UNL     1       4.732   5.779  16.645  0.00  0.00    +0.000 A 
ATOM      9  C   UNL     1       4.139   4.809  17.464  0.00  0.00    +0.000 A 
ATOM     10  C   UNL     1       4.419   3.355  17.178  0.00  0.00    +0.000 C 
ATOM     11  C   UNL     1       3.288   5.171  18.523  0.00  0.00    +0.000 A 
ATOM     12  N   UNL     1       2.826   4.206  19.338  0.00  0.00    +0.000 NA
ENDROOT
BRANCH   4  13
ATOM     13  C   UNL     1       1.653   8.255  20.091  0.00  0.00    +0.000 C 
ATOM     14  O   UNL     1       1.647   8.706  21.228  0.00  0.00    +0.000 OA
ATOM     15  N   UNL     1       1.236   9.022  19.019  0.00  0.00    +0.000 N 
ATOM     16  H   UNL     1       1.236   8.668  18.072  0.00  0.00    +0.000 HD
BRANCH  15  17
ATOM     17  C   UNL     1       0.787  10.396  19.220  0.00  0.00    +0.000 C 
ATOM     18  C   UNL     1       1.756  11.404  18.607  0.00  0.00    +0.000 C 
BRANCH  17  19
ATOM     19  C   UNL     1      -0.569  10.537  18.626  0.00  0.00    +0.000 A 
ATOM     20  N   UNL     1      -1.626  11.151  19.119  0.00  0.00    +0.000 NA
ATOM     21  N   UNL     1      -2.628  10.976  18.198  0.00  0.00    +0.000 NA
ATOM     22  N   UNL     1      -2.201  10.281  17.152  0.00  0.00    +0.000 NA
ATOM     23  N   UNL     1      -0.916  10.010  17.415  0.00  0.00    +0.000 N 
ATOM     24  H   UNL     1      -0.368   9.485  16.745  0.00  0.00    +0.000 HD
ENDBRANCH  17  19
ENDBRANCH  15  17
ENDBRANCH   4  13
TORSDOF 3
ENDMDL
MODEL 8
REMARK VINA RESULT:      -7.2      2.412      3.072
REMARK  Name = 
REMARK  6 active torsions:
REMARK  status: ('A' for Active; 'I' for Inactive)
REMARK    1  A    between atoms: C_1  and  C_2
REMARK    2  A    between atoms: C_4  and  C_5
REMARK    3  A    between atoms: N_7  and  C_8
REMARK    4  A    between atoms: C_8  and  C_9
REMARK    5  A    between atoms: C_8  and  C_10
REMARK    6  A    between atoms: C_19  and  C_20
REMARK                            x       y       z     vdW  Elec       q    Type
REMARK                         _______ _______ _______ _____ _____    ______ ____
ROOT
ATOM      1  C   UNL     1       7.876   5.521  19.916  0.00  0.00    +0.000 C 
ATOM      2  C   UNL     1       6.768   5.151  18.977  0.00  0.00    +0.000 A 
ATOM      3  C   UNL     1       6.843   5.447  17.627  0.00  0.00    +0.000 A 
ATOM      4  C   UNL     1       5.816   5.004  16.788  0.00  0.00    +0.000 A 
ATOM      5  C   UNL     1       4.724   4.260  17.328  0.00  0.00    +0.000 A 
ATOM      6  C   UNL     1       3.653   3.706  16.575  0.00  0.00    +0.000 A 
ATOM      7  C   UNL     1       2.659   2.927  17.163  0.00  0.00    +0.000 A 
ATOM      8  C   UNL     1       2.679   2.718  18.530  0.00  0.00    +0.000 A 
ATOM      9  C   UNL     1       3.688   3.296  19.313  0.00  0.00    +0.000 A 
ATOM     10  C   UNL     1       3.626   3.125  20.810  0.00  0.00    +0.000 C 
ATOM     11  C   UNL     1       4.732   4.032  18.726  0.00  0.00    +0.000 A 
ATOM     12  N   UNL     1       5.727   4.479  19.513  0.00  0.00    +0.000 NA
ENDROOT
BRANCH   4  13
ATOM     13  C   UNL     1       5.885   5.348  15.323  0.00  0.00    +0.000 C 
ATOM     14  O   UNL     1       5.318   6.336  14.880  0.00  0.00    +0.000 OA
ATOM     15  N   UNL     1       6.603   4.506  14.493  0.00  0.00    +0.000 N 
ATOM     16  H   UNL     1       7.081   3.686  14.842  0.00  0.00    +0.000 HD
BRANCH  15  17
ATOM     17  C   UNL     1       6.706   4.785  13.064  0.00  0.00    +0.000 C 
ATOM     18  C   UNL     1       8.105   5.262  12.681  0.00  0.00    +0.000 C 
BRANCH  17  19
ATOM     19  C   UNL     1       6.346   3.550  12.319  0.00  0.00    +0.000 A 
ATOM     20  N   UNL     1       5.150   3.107  11.987  0.00  0.00    +0.000 NA
ATOM     21  N   UNL     1       5.357   1.920  11.329  0.00  0.00    +0.000 NA
ATOM     22  N   UNL     1       6.651   1.639  11.244  0.00  0.00    +0.000 NA
ATOM     23  N   UNL     1       7.269   2.656  11.857  0.00  0.00    +0.000 N 
ATOM     24  H   UNL     1       8.280   2.667  11.912  0.00  0.00    +0.000 HD
ENDBRANCH  17  19
ENDBRANCH  15  17
ENDBRANCH   4  13
TORSDOF 3
ENDMDL
MODEL 9
REMARK VINA RESULT:      -7.2      2.294      3.386
REMARK  Name = 
REMARK  6 active torsions:
REMARK  status: ('A' for Active; 'I' for Inactive)
REMARK    1  A    between atoms: C_1  and  C_2
REMARK    2  A    between atoms: C_4  and  C_5
REMARK    3  A    between atoms: N_7  and  C_8
REMARK    4  A    between atoms: C_8  and  C_9
REMARK    5  A    between atoms: C_8  and  C_10
REMARK    6  A    between atoms: C_19  and  C_20
REMARK                            x       y       z     vdW  Elec       q    Type
REMARK                         _______ _______ _______ _____ _____    ______ ____
ROOT
ATOM      1  C   UNL     1       0.695   7.692  21.379  0.00  0.00    +0.000 C 
ATOM      2  C   UNL     1       1.551   6.745  20.591  0.00  0.00    +0.000 A 
ATOM      3  C   UNL     1       2.380   7.200  19.580  0.00  0.00    +0.000 A 
ATOM      4  C   UNL     1       3.214   6.281  18.937  0.00  0.00    +0.000 A 
ATOM      5  C   UNL     1       3.203   4.909  19.331  0.00  0.00    +0.000 A 
ATOM      6  C   UNL     1       4.041   3.892  18.798  0.00  0.00    +0.000 A 
ATOM      7  C   UNL     1       4.024   2.587  19.284  0.00  0.00    +0.000 A 
ATOM      8  C   UNL     1       3.133   2.246  20.285  0.00  0.00    +0.000 A 
ATOM      9  C   UNL     1       2.252   3.209  20.796  0.00  0.00    +0.000 A 
ATOM     10  C   UNL     1       1.231   2.781  21.820  0.00  0.00    +0.000 C 
ATOM     11  C   UNL     1       2.300   4.545  20.359  0.00  0.00    +0.000 A 
ATOM     12  N   UNL     1       1.499   5.446  20.955  0.00  0.00    +0.000 NA
ENDROOT
BRANCH   4  13
ATOM     13  C   UNL     1       4.098   6.771  17.821  0.00  0.00    +0.000 C 
ATOM     14  O   UNL     1       3.640   7.421  16.892  0.00  0.00    +0.000 OA
ATOM     15  N   UNL     1       5.444   6.455  17.872  0.00  0.00    +0.000 N 
ATOM     16  H   UNL     1       5.842   5.921  18.633  0.00  0.00    +0.000 HD
BRANCH  15  17
ATOM     17  C   UNL     1       6.351   6.900  16.819  0.00  0.00    +0.000 C 
ATOM     18  C   UNL     1       7.729   7.258  17.373  0.00  0.00    +0.000 C 
BRANCH  17  19
ATOM     19  C   UNL     1       6.455   5.820  15.803  0.00  0.00    +0.000 A 
ATOM     20  N   UNL     1       7.505   5.447  15.100  0.00  0.00    +0.000 NA
ATOM     21  N   UNL     1       7.076   4.425  14.291  0.00  0.00    +0.000 NA
ATOM     22  N   UNL     1       5.792   4.160  14.496  0.00  0.00    +0.000 NA
ATOM     23  N   UNL     1       5.404   5.027  15.441  0.00  0.00    +0.000 N 
ATOM     24  H   UNL     1       4.448   5.010  15.773  0.00  0.00    +0.000 HD
ENDBRANCH  17  19
ENDBRANCH  15  17
ENDBRANCH   4  13
TORSDOF 3
ENDMDL
