MODEL 1
REMARK VINA RESULT:      -8.4      0.000      0.000
REMARK  Name = 
REMARK  6 active torsions:
REMARK  status: ('A' for Active; 'I' for Inactive)
REMARK    1  A    between atoms: C_1  and  C_2
REMARK    2  A    between atoms: N_4  and  C_5
REMARK    3  A    between atoms: C_5  and  C_6
REMARK    4  A    between atoms: C_5  and  C_20
REMARK    5  A    between atoms: C_6  and  C_7
REMARK    6  A    between atoms: N_9  and  C_10
REMARK                            x       y       z     vdW  Elec       q    Type
REMARK                         _______ _______ _______ _____ _____    ______ ____
ROOT
ATOM      1  C   UNL     1       4.407   5.955  17.132  0.00  0.00    +0.000 C 
ATOM      2  O   UNL     1       4.345   6.854  16.282  0.00  0.00    +0.000 OA
ATOM      3  N   UNL     1       3.690   5.953  18.319  0.00  0.00    +0.000 N 
ATOM      4  H   UNL     1       4.164   5.504  19.091  0.00  0.00    +0.000 HD
ENDROOT
BRANCH   3   5
ATOM      5  C   UNL     1       2.862   7.045  18.650  0.00  0.00    +0.000 A 
ATOM      6  C   UNL     1       2.663   8.064  17.718  0.00  0.00    +0.000 A 
ATOM      7  C   UNL     1       1.843   9.149  18.039  0.00  0.00    +0.000 A 
ATOM      8  C   UNL     1       1.285   9.246  19.315  0.00  0.00    +0.000 A 
ATOM      9  C   UNL     1       1.492   8.225  20.247  0.00  0.00    +0.000 A 
ATOM     10  C   UNL     1       2.264   7.117  19.910  0.00  0.00    +0.000 A 
ATOM     11  O   UNL     1       1.001   8.261  21.527  0.00  0.00    +0.000 OA
ATOM     12  C   UNL     1      -0.016   9.257  21.675  0.00  0.00    +0.000 C 
ATOM     13  C   UNL     1       0.388  10.556  20.995  0.00  0.00    +0.000 C 
ATOM     14  O   UNL     1       0.546  10.369  19.585  0.00  0.00    +0.000 OA
ENDBRANCH   3   5
BRANCH   1  15
ATOM     15  C   UNL     1       5.359   4.790  17.015  0.00  0.00    +0.000 C 
BRANCH  15  16
ATOM     16  C   UNL     1       6.714   5.154  16.351  0.00  0.00    +0.000 C 
BRANCH  16  17
ATOM     17  C   UNL     1       6.761   4.824  14.854  0.00  0.00    +0.000 A 
ATOM     18  C   UNL     1       5.940   3.843  14.268  0.00  0.00    +0.000 A 
ATOM     19  C   UNL     1       6.065   3.531  12.902  0.00  0.00    +0.000 A 
ATOM     20  C   UNL     1       6.999   4.190  12.110  0.00  0.00    +0.000 A 
ATOM     21  C   UNL     1       7.823   5.148  12.672  0.00  0.00    +0.000 A 
ATOM     22  C   UNL     1       7.706   5.454  14.029  0.00  0.00    +0.000 A 
ENDBRANCH  16  17
BRANCH  16  26
ATOM     23  C   UNL     1       8.019   8.474  17.710  0.00  0.00    +0.000 C 
ATOM     24  C   UNL     1       7.666   7.018  17.720  0.00  0.00    +0.000 C 
ATOM     25  O   UNL     1       7.918   6.323  18.705  0.00  0.00    +0.000 OA
ATOM     26  N   UNL     1       7.088   6.556  16.559  0.00  0.00    +0.000 N 
ATOM     27  H   UNL     1       7.190   7.129  15.726  0.00  0.00    +0.000 HD
ENDBRANCH  16  26
ENDBRANCH  15  16
ENDBRANCH   1  15
TORSDOF 5
ENDMDL
MODEL 2
REMARK VINA RESULT:      -8.3      3.620      8.432
REMARK  Name = 
REMARK  6 active torsions:
REMARK  status: ('A' for Active; 'I' for Inactive)
REMARK    1  A    between atoms: C_1  and  C_2
REMARK    2  A    between atoms: N_4  and  C_5
REMARK    3  A    between atoms: C_5  and  C_6
REMARK    4  A    between atoms: C_5  and  C_20
REMARK    5  A    between atoms: C_6  and  C_7
REMARK    6  A    between atoms: N_9  and  C_10
REMARK                            x       y       z     vdW  Elec       q    Type
REMARK                         _______ _______ _______ _____ _____    ______ ____
ROOT
ATOM      1  C   UNL     1       1.703   8.743  18.950  0.00  0.00    +0.000 C 
ATOM      2  O   UNL     1       1.756   8.337  20.119  0.00  0.00    +0.000 OA
ATOM      3  N   UNL     1       2.079   7.993  17.846  0.00  0.00    +0.000 N 
ATOM      4  H   UNL     1       2.464   8.536  17.085  0.00  0.00    +0.000 HD
ENDROOT
BRANCH   3   5
ATOM      5  C   UNL     1       2.609   6.698  18.014  0.00  0.00    +0.000 A 
ATOM      6  C   UNL     1       3.993   6.515  17.999  0.00  0.00    +0.000 A 
ATOM      7  C   UNL     1       4.525   5.233  18.166  0.00  0.00    +0.000 A 
ATOM      8  C   UNL     1       3.673   4.134  18.275  0.00  0.00    +0.000 A 
ATOM      9  C   UNL     1       2.288   4.322  18.283  0.00  0.00    +0.000 A 
ATOM     10  C   UNL     1       1.756   5.604  18.171  0.00  0.00    +0.000 A 
ATOM     11  O   UNL     1       1.387   3.290  18.357  0.00  0.00    +0.000 OA
ATOM     12  C   UNL     1       2.011   2.074  18.778  0.00  0.00    +0.000 C 
ATOM     13  C   UNL     1       3.331   1.858  18.056  0.00  0.00    +0.000 C 
ATOM     14  O   UNL     1       4.262   2.899  18.368  0.00  0.00    +0.000 OA
ENDBRANCH   3   5
BRANCH   1  15
ATOM     15  C   UNL     1       1.310  10.157  18.598  0.00  0.00    +0.000 C 
BRANCH  15  16
ATOM     16  C   UNL     1       0.068  10.672  19.374  0.00  0.00    +0.000 C 
BRANCH  16  17
ATOM     17  C   UNL     1      -1.220  10.638  18.542  0.00  0.00    +0.000 A 
ATOM     18  C   UNL     1      -1.353   9.852  17.382  0.00  0.00    +0.000 A 
ATOM     19  C   UNL     1      -2.532   9.904  16.617  0.00  0.00    +0.000 A 
ATOM     20  C   UNL     1      -3.585  10.729  16.996  0.00  0.00    +0.000 A 
ATOM     21  C   UNL     1      -3.467  11.517  18.128  0.00  0.00    +0.000 A 
ATOM     22  C   UNL     1      -2.296  11.474  18.884  0.00  0.00    +0.000 A 
ENDBRANCH  16  17
BRANCH  16  26
ATOM     23  C   UNL     1      -0.402   9.692  23.033  0.00  0.00    +0.000 C 
ATOM     24  C   UNL     1      -0.109  10.586  21.867  0.00  0.00    +0.000 C 
ATOM     25  O   UNL     1       0.115  11.785  22.042  0.00  0.00    +0.000 OA
ATOM     26  N   UNL     1      -0.144   9.963  20.639  0.00  0.00    +0.000 N 
ATOM     27  H   UNL     1      -0.612   9.064  20.585  0.00  0.00    +0.000 HD
ENDBRANCH  16  26
ENDBRANCH  15  16
ENDBRANCH   1  15
TORSDOF 5
ENDMDL
MODEL 3
REMARK VINA RESULT:      -8.3      2.888      3.976
REMARK  Name = 
REMARK  6 active torsions:
REMARK  status: ('A' for Active; 'I' for Inactive)
REMARK    1  A    between atoms: C_1  and  C_2
REMARK    2  A    between atoms: N_4  and  C_5
REMARK    3  A    between atoms: C_5  and  C_6
REMARK    4  A    between atoms: C_5  and  C_20
REMARK    5  A    between atoms: C_6  and  C_7
REMARK    6  A    between atoms: N_9  and  C_10
REMARK                            x       y       z     vdW  Elec       q    Type
REMARK                         _______ _______ _______ _____ _____    ______ ____
ROOT
ATOM      1  C   UNL     1       2.714   5.720  17.996  0.00  0.00    +0.000 C 
ATOM      2  O   UNL     1       1.674   5.210  18.437  0.00  0.00    +0.000 OA
ATOM      3  N   UNL     1       3.040   7.062  18.125  0.00  0.00    +0.000 N 
ATOM      4  H   UNL     1       3.579   7.434  17.355  0.00  0.00    +0.000 HD
ENDROOT
BRANCH   3   5
ATOM      5  C   UNL     1       2.142   7.955  18.742  0.00  0.00    +0.000 A 
ATOM      6  C   UNL     1       1.505   8.931  17.974  0.00  0.00    +0.000 A 
ATOM      7  C   UNL     1       0.612   9.819  18.580  0.00  0.00    +0.000 A 
ATOM      8  C   UNL     1       0.416   9.775  19.960  0.00  0.00    +0.000 A 
ATOM      9  C   UNL     1       1.060   8.800  20.727  0.00  0.00    +0.000 A 
ATOM     10  C   UNL     1       1.908   7.879  20.117  0.00  0.00    +0.000 A 
ATOM     11  O   UNL     1       0.941   8.710  22.090  0.00  0.00    +0.000 OA
ATOM     12  C   UNL     1      -0.168   9.475  22.574  0.00  0.00    +0.000 C 
ATOM     13  C   UNL     1      -0.221  10.841  21.911  0.00  0.00    +0.000 C 
ATOM     14  O   UNL     1      -0.421  10.718  20.498  0.00  0.00    +0.000 OA
ENDBRANCH   3   5
BRANCH   1  15
ATOM     15  C   UNL     1       3.713   4.945  17.172  0.00  0.00    +0.000 C 
BRANCH  15  16
ATOM     16  C   UNL     1       4.900   4.380  17.998  0.00  0.00    +0.000 C 
BRANCH  16  17
ATOM     17  C   UNL     1       6.046   5.384  18.172  0.00  0.00    +0.000 A 
ATOM     18  C   UNL     1       6.317   6.397  17.234  0.00  0.00    +0.000 A 
ATOM     19  C   UNL     1       7.419   7.254  17.406  0.00  0.00    +0.000 A 
ATOM     20  C   UNL     1       8.255   7.115  18.508  0.00  0.00    +0.000 A 
ATOM     21  C   UNL     1       8.011   6.117  19.435  0.00  0.00    +0.000 A 
ATOM     22  C   UNL     1       6.923   5.261  19.262  0.00  0.00    +0.000 A 
ENDBRANCH  16  17
BRANCH  16  26
ATOM     23  C   UNL     1       3.647   2.269  20.921  0.00  0.00    +0.000 C 
ATOM     24  C   UNL     1       3.956   2.615  19.496  0.00  0.00    +0.000 C 
ATOM     25  O   UNL     1       3.756   1.794  18.599  0.00  0.00    +0.000 OA
ATOM     26  N   UNL     1       4.487   3.871  19.309  0.00  0.00    +0.000 N 
ATOM     27  H   UNL     1       4.871   4.341  20.123  0.00  0.00    +0.000 HD
ENDBRANCH  16  26
ENDBRANCH  15  16
ENDBRANCH   1  15
TORSDOF 5
ENDMDL
MODEL 4
REMARK VINA RESULT:      -8.3      2.920      5.393
REMARK  Name = 
REMARK  6 active torsions:
REMARK  status: ('A' for Active; 'I' for Inactive)
REMARK    1  A    between atoms: C_1  and  C_2
REMARK    2  A    between atoms: N_4  and  C_5
REMARK    3  A    between atoms: C_5  and  C_6
REMARK    4  A    between atoms: C_5  and  C_20
REMARK    5  A    between atoms: C_6  and  C_7
REMARK    6  A    between atoms: N_9  and  C_10
REMARK                            x       y       z     vdW  Elec       q    Type
REMARK                         _______ _______ _______ _____ _____    ______ ____
ROOT
ATOM      1  C   UNL     1       1.928   8.506  18.487  0.00  0.00    +0.000 C 
ATOM      2  O   UNL     1       1.779   8.386  19.711  0.00  0.00    +0.000 OA
ATOM      3  N   UNL     1       1.322   9.489  17.720  0.00  0.00    +0.000 N 
ATOM      4  H   UNL     1       1.102   9.204  16.775  0.00  0.00    +0.000 HD
ENDROOT
BRANCH   3   5
ATOM      5  C   UNL     1       0.430  10.404  18.315  0.00  0.00    +0.000 A 
ATOM      6  C   UNL     1       0.928  11.405  19.150  0.00  0.00    +0.000 A 
ATOM      7  C   UNL     1       0.049  12.317  19.742  0.00  0.00    +0.000 A 
ATOM      8  C   UNL     1      -1.326  12.179  19.555  0.00  0.00    +0.000 A 
ATOM      9  C   UNL     1      -1.821  11.172  18.723  0.00  0.00    +0.000 A 
ATOM     10  C   UNL     1      -0.944  10.296  18.088  0.00  0.00    +0.000 A 
ATOM     11  O   UNL     1      -3.159  10.955  18.512  0.00  0.00    +0.000 OA
ATOM     12  C   UNL     1      -3.947  12.070  18.939  0.00  0.00    +0.000 C 
ATOM     13  C   UNL     1      -3.480  12.585  20.291  0.00  0.00    +0.000 C 
ATOM     14  O   UNL     1      -2.134  13.067  20.219  0.00  0.00    +0.000 OA
ENDBRANCH   3   5
BRANCH   1  15
ATOM     15  C   UNL     1       2.721   7.520  17.664  0.00  0.00    +0.000 C 
BRANCH  15  16
ATOM     16  C   UNL     1       3.423   6.422  18.508  0.00  0.00    +0.000 C 
BRANCH  16  17
ATOM     17  C   UNL     1       2.478   5.292  18.935  0.00  0.00    +0.000 A 
ATOM     18  C   UNL     1       2.085   5.096  20.272  0.00  0.00    +0.000 A 
ATOM     19  C   UNL     1       1.268   4.007  20.623  0.00  0.00    +0.000 A 
ATOM     20  C   UNL     1       0.832   3.109  19.654  0.00  0.00    +0.000 A 
ATOM     21  C   UNL     1       1.219   3.280  18.336  0.00  0.00    +0.000 A 
ATOM     22  C   UNL     1       2.036   4.355  17.987  0.00  0.00    +0.000 A 
ENDBRANCH  16  17
BRANCH  16  26
ATOM     23  C   UNL     1       6.766   4.793  17.645  0.00  0.00    +0.000 C 
ATOM     24  C   UNL     1       5.695   5.378  18.515  0.00  0.00    +0.000 C 
ATOM     25  O   UNL     1       5.824   5.385  19.741  0.00  0.00    +0.000 OA
ATOM     26  N   UNL     1       4.597   5.856  17.837  0.00  0.00    +0.000 N 
ATOM     27  H   UNL     1       4.469   5.545  16.878  0.00  0.00    +0.000 HD
ENDBRANCH  16  26
ENDBRANCH  15  16
ENDBRANCH   1  15
TORSDOF 5
ENDMDL
MODEL 5
REMARK VINA RESULT:      -8.3      1.011      1.695
REMARK  Name = 
REMARK  6 active torsions:
REMARK  status: ('A' for Active; 'I' for Inactive)
REMARK    1  A    between atoms: C_1  and  C_2
REMARK    2  A    between atoms: N_4  and  C_5
REMARK    3  A    between atoms: C_5  and  C_6
REMARK    4  A    between atoms: C_5  and  C_20
REMARK    5  A    between atoms: C_6  and  C_7
REMARK    6  A    between atoms: N_9  and  C_10
REMARK                            x       y       z     vdW  Elec       q    Type
REMARK                         _______ _______ _______ _____ _____    ______ ____
ROOT
ATOM      1  C   UNL     1       4.155   5.575  17.065  0.00  0.00    +0.000 C 
ATOM      2  O   UNL     1       4.512   6.689  16.656  0.00  0.00    +0.000 OA
ATOM      3  N   UNL     1       3.211   5.376  18.061  0.00  0.00    +0.000 N 
ATOM      4  H   UNL     1       3.372   4.554  18.628  0.00  0.00    +0.000 HD
ENDROOT
BRANCH   3   5
ATOM      5  C   UNL     1       2.629   6.478  18.719  0.00  0.00    +0.000 A 
ATOM      6  C   UNL     1       2.249   6.358  20.057  0.00  0.00    +0.000 A 
ATOM      7  C   UNL     1       1.672   7.447  20.715  0.00  0.00    +0.000 A 
ATOM      8  C   UNL     1       1.410   8.625  20.014  0.00  0.00    +0.000 A 
ATOM      9  C   UNL     1       1.787   8.738  18.673  0.00  0.00    +0.000 A 
ATOM     10  C   UNL     1       2.412   7.673  18.030  0.00  0.00    +0.000 A 
ATOM     11  O   UNL     1       1.538   9.851  17.910  0.00  0.00    +0.000 OA
ATOM     12  C   UNL     1       1.190  10.978  18.719  0.00  0.00    +0.000 C 
ATOM     13  C   UNL     1       0.204  10.587  19.807  0.00  0.00    +0.000 C 
ATOM     14  O   UNL     1       0.781   9.630  20.703  0.00  0.00    +0.000 OA
ENDBRANCH   3   5
BRANCH   1  15
ATOM     15  C   UNL     1       4.788   4.292  16.585  0.00  0.00    +0.000 C 
BRANCH  15  16
ATOM     16  C   UNL     1       6.293   4.431  16.229  0.00  0.00    +0.000 C 
BRANCH  16  17
ATOM     17  C   UNL     1       6.558   4.435  14.719  0.00  0.00    +0.000 A 
ATOM     18  C   UNL     1       5.878   3.584  13.828  0.00  0.00    +0.000 A 
ATOM     19  C   UNL     1       6.202   3.578  12.459  0.00  0.00    +0.000 A 
ATOM     20  C   UNL     1       7.196   4.416  11.965  0.00  0.00    +0.000 A 
ATOM     21  C   UNL     1       7.882   5.251  12.828  0.00  0.00    +0.000 A 
ATOM     22  C   UNL     1       7.569   5.253  14.188  0.00  0.00    +0.000 A 
ENDBRANCH  16  17
BRANCH  16  26
ATOM     23  C   UNL     1       8.116   6.892  18.508  0.00  0.00    +0.000 C 
ATOM     24  C   UNL     1       7.494   5.595  18.088  0.00  0.00    +0.000 C 
ATOM     25  O   UNL     1       7.547   4.611  18.828  0.00  0.00    +0.000 OA
ATOM     26  N   UNL     1       6.912   5.611  16.841  0.00  0.00    +0.000 N 
ATOM     27  H   UNL     1       7.173   6.366  16.213  0.00  0.00    +0.000 HD
ENDBRANCH  16  26
ENDBRANCH  15  16
ENDBRANCH   1  15
TORSDOF 5
ENDMDL
MODEL 6
REMARK VINA RESULT:      -8.2      1.125      1.997
REMARK  Name = 
REMARK  6 active torsions:
REMARK  status: ('A' for Active; 'I' for Inactive)
REMARK    1  A    between atoms: C_1  and  C_2
REMARK    2  A    between atoms: N_4  and  C_5
REMARK    3  A    between atoms: C_5  and  C_6
REMARK    4  A    between atoms: C_5  and  C_20
REMARK    5  A    between atoms: C_6  and  C_7
REMARK    6  A    between atoms: N_9  and  C_10
REMARK                            x       y       z     vdW  Elec       q    Type
REMARK                         _______ _______ _______ _____ _____    ______ ____
ROOT
ATOM      1  C   UNL     1       4.199   4.888  17.772  0.00  0.00    +0.000 C 
ATOM      2  O   UNL     1       4.474   4.516  18.921  0.00  0.00    +0.000 OA
ATOM      3  N   UNL     1       3.350   5.943  17.477  0.00  0.00    +0.000 N 
ATOM      4  H   UNL     1       2.830   5.831  16.617  0.00  0.00    +0.000 HD
ENDROOT
BRANCH   3   5
ATOM      5  C   UNL     1       2.693   6.638  18.513  0.00  0.00    +0.000 A 
ATOM      6  C   UNL     1       2.372   5.966  19.694  0.00  0.00    +0.000 A 
ATOM      7  C   UNL     1       1.721   6.649  20.725  0.00  0.00    +0.000 A 
ATOM      8  C   UNL     1       1.330   7.976  20.544  0.00  0.00    +0.000 A 
ATOM      9  C   UNL     1       1.648   8.642  19.357  0.00  0.00    +0.000 A 
ATOM     10  C   UNL     1       2.345   7.980  18.349  0.00  0.00    +0.000 A 
ATOM     11  O   UNL     1       1.274   9.935  19.093  0.00  0.00    +0.000 OA
ATOM     12  C   UNL     1       0.854  10.615  20.279  0.00  0.00    +0.000 C 
ATOM     13  C   UNL     1      -0.055   9.735  21.121  0.00  0.00    +0.000 C 
ATOM     14  O   UNL     1       0.636   8.564  21.570  0.00  0.00    +0.000 OA
ENDBRANCH   3   5
BRANCH   1  15
ATOM     15  C   UNL     1       4.687   4.161  16.543  0.00  0.00    +0.000 C 
BRANCH  15  16
ATOM     16  C   UNL     1       6.198   4.373  16.250  0.00  0.00    +0.000 C 
BRANCH  16  17
ATOM     17  C   UNL     1       6.533   4.331  14.754  0.00  0.00    +0.000 A 
ATOM     18  C   UNL     1       7.519   5.152  14.175  0.00  0.00    +0.000 A 
ATOM     19  C   UNL     1       7.746   5.123  12.787  0.00  0.00    +0.000 A 
ATOM     20  C   UNL     1       7.003   4.282  11.967  0.00  0.00    +0.000 A 
ATOM     21  C   UNL     1       6.022   3.477  12.518  0.00  0.00    +0.000 A 
ATOM     22  C   UNL     1       5.789   3.509  13.893  0.00  0.00    +0.000 A 
ENDBRANCH  16  17
BRANCH  16  26
ATOM     23  C   UNL     1       8.005   6.992  18.358  0.00  0.00    +0.000 C 
ATOM     24  C   UNL     1       7.537   5.629  17.947  0.00  0.00    +0.000 C 
ATOM     25  O   UNL     1       7.903   4.631  18.570  0.00  0.00    +0.000 OA
ATOM     26  N   UNL     1       6.721   5.609  16.838  0.00  0.00    +0.000 N 
ATOM     27  H   UNL     1       6.719   6.433  16.245  0.00  0.00    +0.000 HD
ENDBRANCH  16  26
ENDBRANCH  15  16
ENDBRANCH   1  15
TORSDOF 5
ENDMDL
MODEL 7
REMARK VINA RESULT:      -8.2      2.964      5.258
REMARK  Name = 
REMARK  6 active torsions:
REMARK  status: ('A' for Active; 'I' for Inactive)
REMARK    1  A    between atoms: C_1  and  C_2
REMARK    2  A    between atoms: N_4  and  C_5
REMARK    3  A    between atoms: C_5  and  C_6
REMARK    4  A    between atoms: C_5  and  C_20
REMARK    5  A    between atoms: C_6  and  C_7
REMARK    6  A    between atoms: N_9  and  C_10
REMARK                            x       y       z     vdW  Elec       q    Type
REMARK                         _______ _______ _______ _____ _____    ______ ____
ROOT
ATOM      1  C   UNL     1       2.187   8.248  18.527  0.00  0.00    +0.000 C 
ATOM      2  O   UNL     1       1.974   8.106  19.739  0.00  0.00    +0.000 OA
ATOM      3  N   UNL     1       1.730   9.320  17.775  0.00  0.00    +0.000 N 
ATOM      4  H   UNL     1       1.519   9.094  16.813  0.00  0.00    +0.000 HD
ENDROOT
BRANCH   3   5
ATOM      5  C   UNL     1       0.925  10.313  18.369  0.00  0.00    +0.000 A 
ATOM      6  C   UNL     1      -0.453  10.113  18.466  0.00  0.00    +0.000 A 
ATOM      7  C   UNL     1      -1.257  11.093  19.055  0.00  0.00    +0.000 A 
ATOM      8  C   UNL     1      -0.692  12.295  19.478  0.00  0.00    +0.000 A 
ATOM      9  C   UNL     1       0.688  12.494  19.374  0.00  0.00    +0.000 A 
ATOM     10  C   UNL     1       1.499  11.497  18.837  0.00  0.00    +0.000 A 
ATOM     11  O   UNL     1       1.314  13.658  19.741  0.00  0.00    +0.000 OA
ATOM     12  C   UNL     1       0.468  14.478  20.553  0.00  0.00    +0.000 C 
ATOM     13  C   UNL     1      -0.942  14.537  19.988  0.00  0.00    +0.000 C 
ATOM     14  O   UNL     1      -1.548  13.239  19.985  0.00  0.00    +0.000 OA
ENDBRANCH   3   5
BRANCH   1  15
ATOM     15  C   UNL     1       2.896   7.205  17.698  0.00  0.00    +0.000 C 
BRANCH  15  16
ATOM     16  C   UNL     1       3.608   6.113  18.542  0.00  0.00    +0.000 C 
BRANCH  16  17
ATOM     17  C   UNL     1       2.676   4.969  18.959  0.00  0.00    +0.000 A 
ATOM     18  C   UNL     1       2.044   4.127  18.025  0.00  0.00    +0.000 A 
ATOM     19  C   UNL     1       1.147   3.132  18.453  0.00  0.00    +0.000 A 
ATOM     20  C   UNL     1       0.874   2.962  19.806  0.00  0.00    +0.000 A 
ATOM     21  C   UNL     1       1.477   3.788  20.738  0.00  0.00    +0.000 A 
ATOM     22  C   UNL     1       2.361   4.782  20.315  0.00  0.00    +0.000 A 
ENDBRANCH  16  17
BRANCH  16  26
ATOM     23  C   UNL     1       7.039   4.677  17.684  0.00  0.00    +0.000 C 
ATOM     24  C   UNL     1       5.965   5.279  18.539  0.00  0.00    +0.000 C 
ATOM     25  O   UNL     1       6.155   5.459  19.743  0.00  0.00    +0.000 OA
ATOM     26  N   UNL     1       4.793   5.566  17.876  0.00  0.00    +0.000 N 
ATOM     27  H   UNL     1       4.645   5.121  16.975  0.00  0.00    +0.000 HD
ENDBRANCH  16  26
ENDBRANCH  15  16
ENDBRANCH   1  15
TORSDOF 5
ENDMDL
MODEL 8
REMARK VINA RESULT:      -8.2      2.890      4.774
REMARK  Name = 
REMARK  6 active torsions:
REMARK  status: ('A' for Active; 'I' for Inactive)
REMARK    1  A    between atoms: C_1  and  C_2
REMARK    2  A    between atoms: N_4  and  C_5
REMARK    3  A    between atoms: C_5  and  C_6
REMARK    4  A    between atoms: C_5  and  C_20
REMARK    5  A    between atoms: C_6  and  C_7
REMARK    6  A    between atoms: N_9  and  C_10
REMARK                            x       y       z     vdW  Elec       q    Type
REMARK                         _______ _______ _______ _____ _____    ______ ____
ROOT
ATOM      1  C   UNL     1       2.341   7.897  18.677  0.00  0.00    +0.000 C 
ATOM      2  O   UNL     1       2.049   7.585  19.839  0.00  0.00    +0.000 OA
ATOM      3  N   UNL     1       1.805   8.985  18.004  0.00  0.00    +0.000 N 
ATOM      4  H   UNL     1       1.709   8.851  17.006  0.00  0.00    +0.000 HD
ENDROOT
BRANCH   3   5
ATOM      5  C   UNL     1       0.824   9.788  18.619  0.00  0.00    +0.000 A 
ATOM      6  C   UNL     1      -0.444   9.885  18.043  0.00  0.00    +0.000 A 
ATOM      7  C   UNL     1      -1.422  10.679  18.648  0.00  0.00    +0.000 A 
ATOM      8  C   UNL     1      -1.107  11.427  19.783  0.00  0.00    +0.000 A 
ATOM      9  C   UNL     1       0.166  11.332  20.352  0.00  0.00    +0.000 A 
ATOM     10  C   UNL     1       1.125  10.499  19.782  0.00  0.00    +0.000 A 
ATOM     11  O   UNL     1       0.559  12.057  21.448  0.00  0.00    +0.000 OA
ATOM     12  C   UNL     1      -0.560  12.626  22.133  0.00  0.00    +0.000 C 
ATOM     13  C   UNL     1      -1.549  13.236  21.154  0.00  0.00    +0.000 C 
ATOM     14  O   UNL     1      -2.094  12.236  20.285  0.00  0.00    +0.000 OA
ENDBRANCH   3   5
BRANCH   1  15
ATOM     15  C   UNL     1       3.254   7.060  17.815  0.00  0.00    +0.000 C 
BRANCH  15  16
ATOM     16  C   UNL     1       3.976   5.923  18.588  0.00  0.00    +0.000 C 
BRANCH  16  17
ATOM     17  C   UNL     1       3.062   4.733  18.904  0.00  0.00    +0.000 A 
ATOM     18  C   UNL     1       2.810   4.297  20.218  0.00  0.00    +0.000 A 
ATOM     19  C   UNL     1       2.016   3.160  20.453  0.00  0.00    +0.000 A 
ATOM     20  C   UNL     1       1.463   2.453  19.391  0.00  0.00    +0.000 A 
ATOM     21  C   UNL     1       1.709   2.861  18.092  0.00  0.00    +0.000 A 
ATOM     22  C   UNL     1       2.504   3.983  17.856  0.00  0.00    +0.000 A 
ENDBRANCH  16  17
BRANCH  16  26
ATOM     23  C   UNL     1       7.455   4.638  17.684  0.00  0.00    +0.000 C 
ATOM     24  C   UNL     1       6.356   5.157  18.561  0.00  0.00    +0.000 C 
ATOM     25  O   UNL     1       6.529   5.269  19.776  0.00  0.00    +0.000 OA
ATOM     26  N   UNL     1       5.182   5.450  17.904  0.00  0.00    +0.000 N 
ATOM     27  H   UNL     1       5.056   5.056  16.976  0.00  0.00    +0.000 HD
ENDBRANCH  16  26
ENDBRANCH  15  16
ENDBRANCH   1  15
TORSDOF 5
ENDMDL
MODEL 9
REMARK VINA RESULT:      -8.2      1.663      3.456
REMARK  Name = 
REMARK  6 active torsions:
REMARK  status: ('A' for Active; 'I' for Inactive)
REMARK    1  A    between atoms: C_1  and  C_2
REMARK    2  A    between atoms: N_4  and  C_5
REMARK    3  A    between atoms: C_5  and  C_6
REMARK    4  A    between atoms: C_5  and  C_20
REMARK    5  A    between atoms: C_6  and  C_7
REMARK    6  A    between atoms: N_9  and  C_10
REMARK                            x       y       z     vdW  Elec       q    Type
REMARK                         _______ _______ _______ _____ _____    ______ ____
ROOT
ATOM      1  C   UNL     1       2.744   5.364  18.031  0.00  0.00    +0.000 C 
ATOM      2  O   UNL     1       1.541   5.149  17.826  0.00  0.00    +0.000 OA
ATOM      3  N   UNL     1       3.239   6.514  18.626  0.00  0.00    +0.000 N 
ATOM      4  H   UNL     1       4.152   6.795  18.293  0.00  0.00    +0.000 HD
ENDROOT
BRANCH   3   5
ATOM      5  C   UNL     1       2.366   7.557  18.993  0.00  0.00    +0.000 A 
ATOM      6  C   UNL     1       1.982   8.500  18.038  0.00  0.00    +0.000 A 
ATOM      7  C   UNL     1       1.115   9.537  18.396  0.00  0.00    +0.000 A 
ATOM      8  C   UNL     1       0.694   9.667  19.719  0.00  0.00    +0.000 A 
ATOM      9  C   UNL     1       1.086   8.724  20.674  0.00  0.00    +0.000 A 
ATOM     10  C   UNL     1       1.906   7.659  20.308  0.00  0.00    +0.000 A 
ATOM     11  O   UNL     1       0.738   8.799  21.998  0.00  0.00    +0.000 OA
ATOM     12  C   UNL     1      -0.336   9.722  22.209  0.00  0.00    +0.000 C 
ATOM     13  C   UNL     1      -0.118  11.004  21.422  0.00  0.00    +0.000 C 
ATOM     14  O   UNL     1      -0.101  10.745  20.014  0.00  0.00    +0.000 OA
ENDBRANCH   3   5
BRANCH   1  15
ATOM     15  C   UNL     1       3.829   4.427  17.560  0.00  0.00    +0.000 C 
BRANCH  15  16
ATOM     16  C   UNL     1       4.857   5.091  16.604  0.00  0.00    +0.000 C 
BRANCH  16  17
ATOM     17  C   UNL     1       6.069   5.680  17.335  0.00  0.00    +0.000 A 
ATOM     18  C   UNL     1       6.770   4.975  18.332  0.00  0.00    +0.000 A 
ATOM     19  C   UNL     1       7.836   5.583  19.019  0.00  0.00    +0.000 A 
ATOM     20  C   UNL     1       8.216   6.887  18.722  0.00  0.00    +0.000 A 
ATOM     21  C   UNL     1       7.531   7.598  17.753  0.00  0.00    +0.000 A 
ATOM     22  C   UNL     1       6.468   7.001  17.076  0.00  0.00    +0.000 A 
ENDBRANCH  16  17
BRANCH  16  26
ATOM     23  C   UNL     1       6.348   3.533  13.454  0.00  0.00    +0.000 C 
ATOM     24  C   UNL     1       5.909   4.623  14.384  0.00  0.00    +0.000 C 
ATOM     25  O   UNL     1       6.112   5.804  14.099  0.00  0.00    +0.000 OA
ATOM     26  N   UNL     1       5.312   4.185  15.545  0.00  0.00    +0.000 N 
ATOM     27  H   UNL     1       5.454   3.214  15.805  0.00  0.00    +0.000 HD
ENDBRANCH  16  26
ENDBRANCH  15  16
ENDBRANCH   1  15
TORSDOF 5
ENDMDL
