MODEL 1
REMARK VINA RESULT:      -7.7      0.000      0.000
REMARK  Name = 
REMARK  11 active torsions:
REMARK  status: ('A' for Active; 'I' for Inactive)
REMARK    1  A    between atoms: C_1  and  C_2
REMARK    2  A    between atoms: C_5  and  N_6
REMARK    3  A    between atoms: C_7  and  C_9
REMARK    4  A    between atoms: C_9  and  S_10
REMARK    5  A    between atoms: S_10  and  C_11
REMARK    6  A    between atoms: C_14  and  C_15
REMARK    7  A    between atoms: C_15  and  O_16
REMARK    8  A    between atoms: O_16  and  C_17
REMARK    9  A    between atoms: C_20  and  C_21
REMARK   10  A    between atoms: N_25  and  C_26
REMARK   11  A    between atoms: C_33  and  C_34
REMARK                            x       y       z     vdW  Elec       q    Type
REMARK                         _______ _______ _______ _____ _____    ______ ____
ROOT
ATOM      1  C   UNL     1       7.059   6.440  16.855  0.00  0.00    +0.000 A 
ATOM      2  N   UNL     1       7.698   5.872  15.859  0.00  0.00    +0.000 NA
ATOM      3  N   UNL     1       6.873   4.909  15.321  0.00  0.00    +0.000 NA
ATOM      4  C   UNL     1       5.731   4.891  15.994  0.00  0.00    +0.000 A 
ATOM      5  N   UNL     1       5.772   5.903  16.963  0.00  0.00    +0.000 N 
ENDROOT
BRANCH   5   6
ATOM      6  C   UNL     1       4.703   6.344  17.794  0.00  0.00    +0.000 A 
ATOM      7  C   UNL     1       4.505   5.788  19.064  0.00  0.00    +0.000 A 
ATOM      8  C   UNL     1       3.384   6.136  19.819  0.00  0.00    +0.000 A 
ATOM      9  C   UNL     1       2.479   7.075  19.334  0.00  0.00    +0.000 A 
ATOM     10  C   UNL     1       2.696   7.673  18.096  0.00  0.00    +0.000 A 
ATOM     11  C   UNL     1       3.796   7.303  17.322  0.00  0.00    +0.000 A 
ENDBRANCH   5   6
BRANCH   1  12
ATOM     12  S   UNL     1       7.806   7.422  18.094  0.00  0.00    +0.000 S 
BRANCH  12  13
ATOM     13  C   UNL     1       7.611   9.150  17.557  0.00  0.00    +0.000 C 
BRANCH  13  15
ATOM     14  N   UNL     1       8.632  11.364  17.985  0.00  0.00    +0.000 N 
ATOM     15  C   UNL     1       8.621  10.015  18.338  0.00  0.00    +0.000 C 
ATOM     16  O   UNL     1       9.344   9.489  19.182  0.00  0.00    +0.000 OA
ATOM     17  H   UNL     1       7.978  11.656  17.271  0.00  0.00    +0.000 HD
BRANCH  14  22
ATOM     18  C   UNL     1      12.164  15.522  19.888  0.00  0.00    +0.000 C 
ATOM     19  C   UNL     1      11.265  14.428  19.375  0.00  0.00    +0.000 A 
ATOM     20  C   UNL     1      10.333  13.848  20.241  0.00  0.00    +0.000 A 
ATOM     21  C   UNL     1       9.463  12.840  19.803  0.00  0.00    +0.000 A 
ATOM     22  C   UNL     1       9.494  12.381  18.487  0.00  0.00    +0.000 A 
ATOM     23  C   UNL     1      10.440  12.955  17.617  0.00  0.00    +0.000 A 
ATOM     24  C   UNL     1      11.329  13.971  18.046  0.00  0.00    +0.000 A 
ATOM     25  C   UNL     1      12.333  14.552  17.085  0.00  0.00    +0.000 C 
ENDBRANCH  14  22
ENDBRANCH  13  15
ENDBRANCH  12  13
ENDBRANCH   1  12
BRANCH   4  26
ATOM     26  C   UNL     1       4.540   4.029  15.636  0.00  0.00    +0.000 C 
BRANCH  26  27
ATOM     27  O   UNL     1       4.570   2.873  16.484  0.00  0.00    +0.000 OA
BRANCH  27  28
ATOM     28  C   UNL     1       3.757   2.822  17.587  0.00  0.00    +0.000 A 
ATOM     29  C   UNL     1       2.405   3.155  17.659  0.00  0.00    +0.000 A 
ATOM     30  C   UNL     1       1.715   3.074  18.886  0.00  0.00    +0.000 A 
ATOM     31  C   UNL     1       2.366   2.659  20.048  0.00  0.00    +0.000 A 
ATOM     32  C   UNL     1       3.716   2.308  19.981  0.00  0.00    +0.000 A 
ATOM     33  C   UNL     1       4.400   2.389  18.757  0.00  0.00    +0.000 A 
BRANCH  31  34
ATOM     34  C   UNL     1       1.660   2.593  21.306  0.00  0.00    +0.000 C 
ATOM     35  N   UNL     1       1.093   2.535  22.312  0.00  0.00    +0.000 NA
ENDBRANCH  31  34
ENDBRANCH  27  28
ENDBRANCH  26  27
ENDBRANCH   4  26
TORSDOF 9
ENDMDL
MODEL 2
REMARK VINA RESULT:      -7.5      5.396      8.571
REMARK  Name = 
REMARK  11 active torsions:
REMARK  status: ('A' for Active; 'I' for Inactive)
REMARK    1  A    between atoms: C_1  and  C_2
REMARK    2  A    between atoms: C_5  and  N_6
REMARK    3  A    between atoms: C_7  and  C_9
REMARK    4  A    between atoms: C_9  and  S_10
REMARK    5  A    between atoms: S_10  and  C_11
REMARK    6  A    between atoms: C_14  and  C_15
REMARK    7  A    between atoms: C_15  and  O_16
REMARK    8  A    between atoms: O_16  and  C_17
REMARK    9  A    between atoms: C_20  and  C_21
REMARK   10  A    between atoms: N_25  and  C_26
REMARK   11  A    between atoms: C_33  and  C_34
REMARK                            x       y       z     vdW  Elec       q    Type
REMARK                         _______ _______ _______ _____ _____    ______ ____
ROOT
ATOM      1  C   UNL     1       4.092   6.773  17.602  0.00  0.00    +0.000 A 
ATOM      2  N   UNL     1       4.947   7.623  17.085  0.00  0.00    +0.000 NA
ATOM      3  N   UNL     1       6.150   6.971  16.928  0.00  0.00    +0.000 NA
ATOM      4  C   UNL     1       6.025   5.723  17.354  0.00  0.00    +0.000 A 
ATOM      5  N   UNL     1       4.696   5.520  17.746  0.00  0.00    +0.000 N 
ENDROOT
BRANCH   5   6
ATOM      6  C   UNL     1       4.083   4.287  18.112  0.00  0.00    +0.000 A 
ATOM      7  C   UNL     1       3.162   3.662  17.262  0.00  0.00    +0.000 A 
ATOM      8  C   UNL     1       2.475   2.523  17.682  0.00  0.00    +0.000 A 
ATOM      9  C   UNL     1       2.736   1.971  18.934  0.00  0.00    +0.000 A 
ATOM     10  C   UNL     1       3.688   2.554  19.764  0.00  0.00    +0.000 A 
ATOM     11  C   UNL     1       4.353   3.713  19.363  0.00  0.00    +0.000 A 
ENDBRANCH   5   6
BRANCH   1  12
ATOM     12  S   UNL     1       2.574   7.210  18.353  0.00  0.00    +0.000 S 
BRANCH  12  13
ATOM     13  C   UNL     1       2.263   8.944  17.894  0.00  0.00    +0.000 C 
BRANCH  13  15
ATOM     14  N   UNL     1       0.202  10.311  18.005  0.00  0.00    +0.000 N 
ATOM     15  C   UNL     1       1.047   9.444  18.699  0.00  0.00    +0.000 C 
ATOM     16  O   UNL     1       0.901   9.083  19.865  0.00  0.00    +0.000 OA
ATOM     17  H   UNL     1       0.448  10.520  17.046  0.00  0.00    +0.000 HD
BRANCH  14  22
ATOM     18  C   UNL     1      -4.568  12.911  19.972  0.00  0.00    +0.000 C 
ATOM     19  C   UNL     1      -3.336  12.232  19.433  0.00  0.00    +0.000 A 
ATOM     20  C   UNL     1      -2.087  12.559  19.970  0.00  0.00    +0.000 A 
ATOM     21  C   UNL     1      -0.915  11.940  19.512  0.00  0.00    +0.000 A 
ATOM     22  C   UNL     1      -0.954  10.976  18.506  0.00  0.00    +0.000 A 
ATOM     23  C   UNL     1      -2.209  10.655  17.955  0.00  0.00    +0.000 A 
ATOM     24  C   UNL     1      -3.400  11.275  18.404  0.00  0.00    +0.000 A 
ATOM     25  C   UNL     1      -4.723  10.910  17.781  0.00  0.00    +0.000 C 
ENDBRANCH  14  22
ENDBRANCH  13  15
ENDBRANCH  12  13
ENDBRANCH   1  12
BRANCH   4  26
ATOM     26  C   UNL     1       7.110   4.672  17.253  0.00  0.00    +0.000 C 
BRANCH  26  27
ATOM     27  O   UNL     1       7.751   4.831  15.979  0.00  0.00    +0.000 OA
BRANCH  27  28
ATOM     28  C   UNL     1       7.076   4.494  14.834  0.00  0.00    +0.000 A 
ATOM     29  C   UNL     1       7.402   4.842  13.525  0.00  0.00    +0.000 A 
ATOM     30  C   UNL     1       6.581   4.437  12.453  0.00  0.00    +0.000 A 
ATOM     31  C   UNL     1       5.432   3.678  12.679  0.00  0.00    +0.000 A 
ATOM     32  C   UNL     1       5.107   3.311  13.987  0.00  0.00    +0.000 A 
ATOM     33  C   UNL     1       5.927   3.717  15.051  0.00  0.00    +0.000 A 
BRANCH  31  34
ATOM     34  C   UNL     1       4.584   3.277  11.580  0.00  0.00    +0.000 C 
ATOM     35  N   UNL     1       3.904   2.953  10.703  0.00  0.00    +0.000 NA
ENDBRANCH  31  34
ENDBRANCH  27  28
ENDBRANCH  26  27
ENDBRANCH   4  26
TORSDOF 9
ENDMDL
MODEL 3
REMARK VINA RESULT:      -7.4      6.028     11.103
REMARK  Name = 
REMARK  11 active torsions:
REMARK  status: ('A' for Active; 'I' for Inactive)
REMARK    1  A    between atoms: C_1  and  C_2
REMARK    2  A    between atoms: C_5  and  N_6
REMARK    3  A    between atoms: C_7  and  C_9
REMARK    4  A    between atoms: C_9  and  S_10
REMARK    5  A    between atoms: S_10  and  C_11
REMARK    6  A    between atoms: C_14  and  C_15
REMARK    7  A    between atoms: C_15  and  O_16
REMARK    8  A    between atoms: O_16  and  C_17
REMARK    9  A    between atoms: C_20  and  C_21
REMARK   10  A    between atoms: N_25  and  C_26
REMARK   11  A    between atoms: C_33  and  C_34
REMARK                            x       y       z     vdW  Elec       q    Type
REMARK                         _______ _______ _______ _____ _____    ______ ____
ROOT
ATOM      1  C   UNL     1      -0.663  10.950  21.756  0.00  0.00    +0.000 A 
ATOM      2  N   UNL     1      -0.268  11.737  22.729  0.00  0.00    +0.000 NA
ATOM      3  N   UNL     1      -0.288  13.032  22.261  0.00  0.00    +0.000 NA
ATOM      4  C   UNL     1      -0.693  13.031  20.999  0.00  0.00    +0.000 A 
ATOM      5  N   UNL     1      -1.008  11.714  20.637  0.00  0.00    +0.000 N 
ENDROOT
BRANCH   5   6
ATOM      6  C   UNL     1      -1.633  11.277  19.434  0.00  0.00    +0.000 A 
ATOM      7  C   UNL     1      -0.969  10.417  18.550  0.00  0.00    +0.000 A 
ATOM      8  C   UNL     1      -1.538  10.096  17.317  0.00  0.00    +0.000 A 
ATOM      9  C   UNL     1      -2.793  10.591  16.977  0.00  0.00    +0.000 A 
ATOM     10  C   UNL     1      -3.485  11.402  17.871  0.00  0.00    +0.000 A 
ATOM     11  C   UNL     1      -2.906  11.755  19.090  0.00  0.00    +0.000 A 
ENDBRANCH   5   6
BRANCH   1  12
ATOM     12  S   UNL     1      -0.433   9.217  21.713  0.00  0.00    +0.000 S 
BRANCH  12  13
ATOM     13  C   UNL     1       1.367   8.947  21.670  0.00  0.00    +0.000 C 
BRANCH  13  15
ATOM     14  N   UNL     1       1.725   6.566  21.093  0.00  0.00    +0.000 N 
ATOM     15  C   UNL     1       1.668   7.872  20.606  0.00  0.00    +0.000 C 
ATOM     16  O   UNL     1       1.851   8.210  19.438  0.00  0.00    +0.000 OA
ATOM     17  H   UNL     1       1.551   6.438  22.081  0.00  0.00    +0.000 HD
BRANCH  14  22
ATOM     18  C   UNL     1       3.151   1.815  18.130  0.00  0.00    +0.000 C 
ATOM     19  C   UNL     1       2.795   3.070  18.884  0.00  0.00    +0.000 A 
ATOM     20  C   UNL     1       1.534   3.173  19.481  0.00  0.00    +0.000 A 
ATOM     21  C   UNL     1       1.166   4.313  20.207  0.00  0.00    +0.000 A 
ATOM     22  C   UNL     1       2.043   5.385  20.362  0.00  0.00    +0.000 A 
ATOM     23  C   UNL     1       3.307   5.289  19.751  0.00  0.00    +0.000 A 
ATOM     24  C   UNL     1       3.693   4.145  19.011  0.00  0.00    +0.000 A 
ATOM     25  C   UNL     1       5.052   4.086  18.364  0.00  0.00    +0.000 C 
ENDBRANCH  14  22
ENDBRANCH  13  15
ENDBRANCH  12  13
ENDBRANCH   1  12
BRANCH   4  26
ATOM     26  C   UNL     1      -0.933  14.278  20.176  0.00  0.00    +0.000 C 
BRANCH  26  27
ATOM     27  O   UNL     1      -0.323  14.075  18.893  0.00  0.00    +0.000 OA
BRANCH  27  28
ATOM     28  C   UNL     1       1.012  14.340  18.729  0.00  0.00    +0.000 A 
ATOM     29  C   UNL     1       1.664  15.557  18.918  0.00  0.00    +0.000 A 
ATOM     30  C   UNL     1       3.048  15.671  18.676  0.00  0.00    +0.000 A 
ATOM     31  C   UNL     1       3.792  14.572  18.247  0.00  0.00    +0.000 A 
ATOM     32  C   UNL     1       3.150  13.344  18.070  0.00  0.00    +0.000 A 
ATOM     33  C   UNL     1       1.771  13.235  18.313  0.00  0.00    +0.000 A 
BRANCH  31  34
ATOM     34  C   UNL     1       5.207  14.696  17.985  0.00  0.00    +0.000 C 
ATOM     35  N   UNL     1       6.339  14.799  17.771  0.00  0.00    +0.000 NA
ENDBRANCH  31  34
ENDBRANCH  27  28
ENDBRANCH  26  27
ENDBRANCH   4  26
TORSDOF 9
ENDMDL
MODEL 4
REMARK VINA RESULT:      -7.3      6.153     11.391
REMARK  Name = 
REMARK  11 active torsions:
REMARK  status: ('A' for Active; 'I' for Inactive)
REMARK    1  A    between atoms: C_1  and  C_2
REMARK    2  A    between atoms: C_5  and  N_6
REMARK    3  A    between atoms: C_7  and  C_9
REMARK    4  A    between atoms: C_9  and  S_10
REMARK    5  A    between atoms: S_10  and  C_11
REMARK    6  A    between atoms: C_14  and  C_15
REMARK    7  A    between atoms: C_15  and  O_16
REMARK    8  A    between atoms: O_16  and  C_17
REMARK    9  A    between atoms: C_20  and  C_21
REMARK   10  A    between atoms: N_25  and  C_26
REMARK   11  A    between atoms: C_33  and  C_34
REMARK                            x       y       z     vdW  Elec       q    Type
REMARK                         _______ _______ _______ _____ _____    ______ ____
ROOT
ATOM      1  C   UNL     1      -0.488  11.060  21.571  0.00  0.00    +0.000 A 
ATOM      2  N   UNL     1       0.013  11.891  22.454  0.00  0.00    +0.000 NA
ATOM      3  N   UNL     1       0.059  13.142  21.881  0.00  0.00    +0.000 NA
ATOM      4  C   UNL     1      -0.412  13.069  20.644  0.00  0.00    +0.000 A 
ATOM      5  N   UNL     1      -0.838  11.755  20.409  0.00  0.00    +0.000 N 
ENDROOT
BRANCH   5   6
ATOM      6  C   UNL     1      -1.556  11.271  19.278  0.00  0.00    +0.000 A 
ATOM      7  C   UNL     1      -0.964  10.371  18.383  0.00  0.00    +0.000 A 
ATOM      8  C   UNL     1      -1.628  10.000  17.213  0.00  0.00    +0.000 A 
ATOM      9  C   UNL     1      -2.906  10.487  16.951  0.00  0.00    +0.000 A 
ATOM     10  C   UNL     1      -3.524  11.339  17.861  0.00  0.00    +0.000 A 
ATOM     11  C   UNL     1      -2.851  11.740  19.015  0.00  0.00    +0.000 A 
ENDBRANCH   5   6
BRANCH   1  12
ATOM     12  S   UNL     1      -0.383   9.317  21.663  0.00  0.00    +0.000 S 
BRANCH  12  13
ATOM     13  C   UNL     1       1.392   8.917  21.693  0.00  0.00    +0.000 C 
BRANCH  13  15
ATOM     14  N   UNL     1       1.774   6.543  21.105  0.00  0.00    +0.000 N 
ATOM     15  C   UNL     1       1.664   7.846  20.619  0.00  0.00    +0.000 C 
ATOM     16  O   UNL     1       1.783   8.183  19.442  0.00  0.00    +0.000 OA
ATOM     17  H   UNL     1       1.652   6.414  22.102  0.00  0.00    +0.000 HD
BRANCH  14  22
ATOM     18  C   UNL     1       3.159   1.808  18.099  0.00  0.00    +0.000 C 
ATOM     19  C   UNL     1       2.815   3.058  18.865  0.00  0.00    +0.000 A 
ATOM     20  C   UNL     1       1.543   3.182  19.432  0.00  0.00    +0.000 A 
ATOM     21  C   UNL     1       1.183   4.319  20.169  0.00  0.00    +0.000 A 
ATOM     22  C   UNL     1       2.082   5.367  20.363  0.00  0.00    +0.000 A 
ATOM     23  C   UNL     1       3.358   5.250  19.781  0.00  0.00    +0.000 A 
ATOM     24  C   UNL     1       3.735   4.109  19.031  0.00  0.00    +0.000 A 
ATOM     25  C   UNL     1       5.108   4.028  18.417  0.00  0.00    +0.000 C 
ENDBRANCH  14  22
ENDBRANCH  13  15
ENDBRANCH  12  13
ENDBRANCH   1  12
BRANCH   4  26
ATOM     26  C   UNL     1      -0.607  14.261  19.732  0.00  0.00    +0.000 C 
BRANCH  26  27
ATOM     27  O   UNL     1       0.268  14.093  18.607  0.00  0.00    +0.000 OA
BRANCH  27  28
ATOM     28  C   UNL     1       1.512  14.671  18.625  0.00  0.00    +0.000 A 
ATOM     29  C   UNL     1       2.746  14.026  18.567  0.00  0.00    +0.000 A 
ATOM     30  C   UNL     1       3.942  14.769  18.626  0.00  0.00    +0.000 A 
ATOM     31  C   UNL     1       3.917  16.159  18.741  0.00  0.00    +0.000 A 
ATOM     32  C   UNL     1       2.684  16.815  18.784  0.00  0.00    +0.000 A 
ATOM     33  C   UNL     1       1.495  16.071  18.725  0.00  0.00    +0.000 A 
BRANCH  31  34
ATOM     34  C   UNL     1       5.145  16.916  18.817  0.00  0.00    +0.000 C 
ATOM     35  N   UNL     1       6.131  17.518  18.877  0.00  0.00    +0.000 NA
ENDBRANCH  31  34
ENDBRANCH  27  28
ENDBRANCH  26  27
ENDBRANCH   4  26
TORSDOF 9
ENDMDL
MODEL 5
REMARK VINA RESULT:      -7.2      5.368      8.551
REMARK  Name = 
REMARK  11 active torsions:
REMARK  status: ('A' for Active; 'I' for Inactive)
REMARK    1  A    between atoms: C_1  and  C_2
REMARK    2  A    between atoms: C_5  and  N_6
REMARK    3  A    between atoms: C_7  and  C_9
REMARK    4  A    between atoms: C_9  and  S_10
REMARK    5  A    between atoms: S_10  and  C_11
REMARK    6  A    between atoms: C_14  and  C_15
REMARK    7  A    between atoms: C_15  and  O_16
REMARK    8  A    between atoms: O_16  and  C_17
REMARK    9  A    between atoms: C_20  and  C_21
REMARK   10  A    between atoms: N_25  and  C_26
REMARK   11  A    between atoms: C_33  and  C_34
REMARK                            x       y       z     vdW  Elec       q    Type
REMARK                         _______ _______ _______ _____ _____    ______ ____
ROOT
ATOM      1  C   UNL     1       4.321   6.825  17.650  0.00  0.00    +0.000 A 
ATOM      2  N   UNL     1       5.153   7.663  17.077  0.00  0.00    +0.000 NA
ATOM      3  N   UNL     1       6.321   6.985  16.811  0.00  0.00    +0.000 NA
ATOM      4  C   UNL     1       6.200   5.732  17.227  0.00  0.00    +0.000 A 
ATOM      5  N   UNL     1       4.903   5.555  17.725  0.00  0.00    +0.000 N 
ENDROOT
BRANCH   5   6
ATOM      6  C   UNL     1       4.291   4.331  18.122  0.00  0.00    +0.000 A 
ATOM      7  C   UNL     1       4.718   3.655  19.271  0.00  0.00    +0.000 A 
ATOM      8  C   UNL     1       4.201   2.396  19.582  0.00  0.00    +0.000 A 
ATOM      9  C   UNL     1       3.220   1.826  18.776  0.00  0.00    +0.000 A 
ATOM     10  C   UNL     1       2.750   2.514  17.662  0.00  0.00    +0.000 A 
ATOM     11  C   UNL     1       3.289   3.757  17.327  0.00  0.00    +0.000 A 
ENDBRANCH   5   6
BRANCH   1  12
ATOM     12  S   UNL     1       2.882   7.285  18.531  0.00  0.00    +0.000 S 
BRANCH  12  13
ATOM     13  C   UNL     1       2.217   8.752  17.683  0.00  0.00    +0.000 C 
BRANCH  13  15
ATOM     14  N   UNL     1       0.122  10.063  17.830  0.00  0.00    +0.000 N 
ATOM     15  C   UNL     1       1.070   9.326  18.539  0.00  0.00    +0.000 C 
ATOM     16  O   UNL     1       1.061   9.126  19.752  0.00  0.00    +0.000 OA
ATOM     17  H   UNL     1       0.259  10.144  16.830  0.00  0.00    +0.000 HD
BRANCH  14  22
ATOM     18  C   UNL     1      -4.528  12.802  19.894  0.00  0.00    +0.000 C 
ATOM     19  C   UNL     1      -3.326  12.091  19.328  0.00  0.00    +0.000 A 
ATOM     20  C   UNL     1      -2.085  12.245  19.955  0.00  0.00    +0.000 A 
ATOM     21  C   UNL     1      -0.943  11.589  19.476  0.00  0.00    +0.000 A 
ATOM     22  C   UNL     1      -1.003  10.759  18.358  0.00  0.00    +0.000 A 
ATOM     23  C   UNL     1      -2.248  10.613  17.718  0.00  0.00    +0.000 A 
ATOM     24  C   UNL     1      -3.410  11.272  18.188  0.00  0.00    +0.000 A 
ATOM     25  C   UNL     1      -4.722  11.097  17.468  0.00  0.00    +0.000 C 
ENDBRANCH  14  22
ENDBRANCH  13  15
ENDBRANCH  12  13
ENDBRANCH   1  12
BRANCH   4  26
ATOM     26  C   UNL     1       7.245   4.657  17.020  0.00  0.00    +0.000 C 
BRANCH  26  27
ATOM     27  O   UNL     1       7.643   4.698  15.643  0.00  0.00    +0.000 OA
BRANCH  27  28
ATOM     28  C   UNL     1       6.741   4.359  14.667  0.00  0.00    +0.000 A 
ATOM     29  C   UNL     1       5.415   3.964  14.840  0.00  0.00    +0.000 A 
ATOM     30  C   UNL     1       4.623   3.618  13.726  0.00  0.00    +0.000 A 
ATOM     31  C   UNL     1       5.146   3.665  12.434  0.00  0.00    +0.000 A 
ATOM     32  C   UNL     1       6.469   4.074  12.250  0.00  0.00    +0.000 A 
ATOM     33  C   UNL     1       7.254   4.419  13.362  0.00  0.00    +0.000 A 
BRANCH  31  34
ATOM     34  C   UNL     1       4.336   3.294  11.296  0.00  0.00    +0.000 C 
ATOM     35  N   UNL     1       3.686   2.993  10.388  0.00  0.00    +0.000 NA
ENDBRANCH  31  34
ENDBRANCH  27  28
ENDBRANCH  26  27
ENDBRANCH   4  26
TORSDOF 9
ENDMDL
MODEL 6
REMARK VINA RESULT:      -7.1      5.494      8.899
REMARK  Name = 
REMARK  11 active torsions:
REMARK  status: ('A' for Active; 'I' for Inactive)
REMARK    1  A    between atoms: C_1  and  C_2
REMARK    2  A    between atoms: C_5  and  N_6
REMARK    3  A    between atoms: C_7  and  C_9
REMARK    4  A    between atoms: C_9  and  S_10
REMARK    5  A    between atoms: S_10  and  C_11
REMARK    6  A    between atoms: C_14  and  C_15
REMARK    7  A    between atoms: C_15  and  O_16
REMARK    8  A    between atoms: O_16  and  C_17
REMARK    9  A    between atoms: C_20  and  C_21
REMARK   10  A    between atoms: N_25  and  C_26
REMARK   11  A    between atoms: C_33  and  C_34
REMARK                            x       y       z     vdW  Elec       q    Type
REMARK                         _______ _______ _______ _____ _____    ______ ____
ROOT
ATOM      1  C   UNL     1       3.234   7.249  17.937  0.00  0.00    +0.000 A 
ATOM      2  N   UNL     1       4.311   7.850  17.488  0.00  0.00    +0.000 NA
ATOM      3  N   UNL     1       5.401   7.087  17.844  0.00  0.00    +0.000 NA
ATOM      4  C   UNL     1       4.985   6.023  18.516  0.00  0.00    +0.000 A 
ATOM      5  N   UNL     1       3.584   6.044  18.555  0.00  0.00    +0.000 N 
ENDROOT
BRANCH   5   6
ATOM      6  C   UNL     1       2.720   5.016  19.029  0.00  0.00    +0.000 A 
ATOM      7  C   UNL     1       2.111   4.123  18.139  0.00  0.00    +0.000 A 
ATOM      8  C   UNL     1       1.170   3.201  18.599  0.00  0.00    +0.000 A 
ATOM      9  C   UNL     1       0.864   3.132  19.955  0.00  0.00    +0.000 A 
ATOM     10  C   UNL     1       1.504   3.979  20.855  0.00  0.00    +0.000 A 
ATOM     11  C   UNL     1       2.420   4.926  20.396  0.00  0.00    +0.000 A 
ENDBRANCH   5   6
BRANCH   1  12
ATOM     12  S   UNL     1       1.661   7.997  18.095  0.00  0.00    +0.000 S 
BRANCH  12  13
ATOM     13  C   UNL     1       1.952   9.794  18.087  0.00  0.00    +0.000 C 
BRANCH  13  15
ATOM     14  N   UNL     1      -0.438  10.024  17.487  0.00  0.00    +0.000 N 
ATOM     15  C   UNL     1       0.598  10.503  18.288  0.00  0.00    +0.000 C 
ATOM     16  O   UNL     1       0.510  11.424  19.097  0.00  0.00    +0.000 OA
ATOM     17  H   UNL     1      -0.219   9.256  16.865  0.00  0.00    +0.000 HD
BRANCH  14  22
ATOM     18  C   UNL     1      -5.820  12.116  17.290  0.00  0.00    +0.000 C 
ATOM     19  C   UNL     1      -4.421  11.564  17.370  0.00  0.00    +0.000 A 
ATOM     20  C   UNL     1      -3.884  10.904  16.260  0.00  0.00    +0.000 A 
ATOM     21  C   UNL     1      -2.580  10.390  16.282  0.00  0.00    +0.000 A 
ATOM     22  C   UNL     1      -1.771  10.521  17.409  0.00  0.00    +0.000 A 
ATOM     23  C   UNL     1      -2.314  11.174  18.532  0.00  0.00    +0.000 A 
ATOM     24  C   UNL     1      -3.631  11.694  18.527  0.00  0.00    +0.000 A 
ATOM     25  C   UNL     1      -4.179  12.378  19.753  0.00  0.00    +0.000 C 
ENDBRANCH  14  22
ENDBRANCH  13  15
ENDBRANCH  12  13
ENDBRANCH   1  12
BRANCH   4  26
ATOM     26  C   UNL     1       5.887   4.905  18.990  0.00  0.00    +0.000 C 
BRANCH  26  27
ATOM     27  O   UNL     1       6.902   4.713  17.995  0.00  0.00    +0.000 OA
BRANCH  27  28
ATOM     28  C   UNL     1       6.539   4.385  16.713  0.00  0.00    +0.000 A 
ATOM     29  C   UNL     1       5.457   3.603  16.313  0.00  0.00    +0.000 A 
ATOM     30  C   UNL     1       5.238   3.333  14.948  0.00  0.00    +0.000 A 
ATOM     31  C   UNL     1       6.094   3.843  13.971  0.00  0.00    +0.000 A 
ATOM     32  C   UNL     1       7.172   4.640  14.362  0.00  0.00    +0.000 A 
ATOM     33  C   UNL     1       7.386   4.907  15.724  0.00  0.00    +0.000 A 
BRANCH  31  34
ATOM     34  C   UNL     1       5.876   3.551  12.573  0.00  0.00    +0.000 C 
ATOM     35  N   UNL     1       5.707   3.318  11.453  0.00  0.00    +0.000 NA
ENDBRANCH  31  34
ENDBRANCH  27  28
ENDBRANCH  26  27
ENDBRANCH   4  26
TORSDOF 9
ENDMDL
MODEL 7
REMARK VINA RESULT:      -7.1      4.815      7.082
REMARK  Name = 
REMARK  11 active torsions:
REMARK  status: ('A' for Active; 'I' for Inactive)
REMARK    1  A    between atoms: C_1  and  C_2
REMARK    2  A    between atoms: C_5  and  N_6
REMARK    3  A    between atoms: C_7  and  C_9
REMARK    4  A    between atoms: C_9  and  S_10
REMARK    5  A    between atoms: S_10  and  C_11
REMARK    6  A    between atoms: C_14  and  C_15
REMARK    7  A    between atoms: C_15  and  O_16
REMARK    8  A    between atoms: O_16  and  C_17
REMARK    9  A    between atoms: C_20  and  C_21
REMARK   10  A    between atoms: N_25  and  C_26
REMARK   11  A    between atoms: C_33  and  C_34
REMARK                            x       y       z     vdW  Elec       q    Type
REMARK                         _______ _______ _______ _____ _____    ______ ____
ROOT
ATOM      1  C   UNL     1       4.230   6.711  17.729  0.00  0.00    +0.000 A 
ATOM      2  N   UNL     1       5.035   7.595  17.188  0.00  0.00    +0.000 NA
ATOM      3  N   UNL     1       6.211   6.955  16.867  0.00  0.00    +0.000 NA
ATOM      4  C   UNL     1       6.122   5.681  17.218  0.00  0.00    +0.000 A 
ATOM      5  N   UNL     1       4.837   5.451  17.727  0.00  0.00    +0.000 N 
ENDROOT
BRANCH   5   6
ATOM      6  C   UNL     1       4.257   4.196  18.069  0.00  0.00    +0.000 A 
ATOM      7  C   UNL     1       3.271   3.616  17.260  0.00  0.00    +0.000 A 
ATOM      8  C   UNL     1       2.620   2.451  17.667  0.00  0.00    +0.000 A 
ATOM      9  C   UNL     1       2.980   1.830  18.859  0.00  0.00    +0.000 A 
ATOM     10  C   UNL     1       3.996   2.368  19.643  0.00  0.00    +0.000 A 
ATOM     11  C   UNL     1       4.626   3.552  19.259  0.00  0.00    +0.000 A 
ENDBRANCH   5   6
BRANCH   1  12
ATOM     12  S   UNL     1       2.798   7.095  18.657  0.00  0.00    +0.000 S 
BRANCH  12  13
ATOM     13  C   UNL     1       1.843   8.273  17.650  0.00  0.00    +0.000 C 
BRANCH  13  15
ATOM     14  N   UNL     1       1.802  10.742  17.820  0.00  0.00    +0.000 N 
ATOM     15  C   UNL     1       1.595   9.539  18.494  0.00  0.00    +0.000 C 
ATOM     16  O   UNL     1       1.259   9.426  19.671  0.00  0.00    +0.000 OA
ATOM     17  H   UNL     1       2.077  10.681  16.848  0.00  0.00    +0.000 HD
BRANCH  14  22
ATOM     18  C   UNL     1       1.311  16.048  20.054  0.00  0.00    +0.000 C 
ATOM     19  C   UNL     1       1.411  14.666  19.462  0.00  0.00    +0.000 A 
ATOM     20  C   UNL     1       2.629  14.243  18.921  0.00  0.00    +0.000 A 
ATOM     21  C   UNL     1       2.775  12.959  18.376  0.00  0.00    +0.000 A 
ATOM     22  C   UNL     1       1.711  12.059  18.355  0.00  0.00    +0.000 A 
ATOM     23  C   UNL     1       0.481  12.488  18.888  0.00  0.00    +0.000 A 
ATOM     24  C   UNL     1       0.317  13.782  19.438  0.00  0.00    +0.000 A 
ATOM     25  C   UNL     1      -1.019  14.206  19.990  0.00  0.00    +0.000 C 
ENDBRANCH  14  22
ENDBRANCH  13  15
ENDBRANCH  12  13
ENDBRANCH   1  12
BRANCH   4  26
ATOM     26  C   UNL     1       7.184   4.639  16.937  0.00  0.00    +0.000 C 
BRANCH  26  27
ATOM     27  O   UNL     1       7.718   4.905  15.633  0.00  0.00    +0.000 OA
BRANCH  27  28
ATOM     28  C   UNL     1       7.015   4.513  14.521  0.00  0.00    +0.000 A 
ATOM     29  C   UNL     1       7.406   4.628  13.188  0.00  0.00    +0.000 A 
ATOM     30  C   UNL     1       6.549   4.201  12.154  0.00  0.00    +0.000 A 
ATOM     31  C   UNL     1       5.298   3.655  12.442  0.00  0.00    +0.000 A 
ATOM     32  C   UNL     1       4.904   3.522  13.775  0.00  0.00    +0.000 A 
ATOM     33  C   UNL     1       5.762   3.948  14.802  0.00  0.00    +0.000 A 
BRANCH  31  34
ATOM     34  C   UNL     1       4.415   3.233  11.379  0.00  0.00    +0.000 C 
ATOM     35  N   UNL     1       3.704   2.898  10.530  0.00  0.00    +0.000 NA
ENDBRANCH  31  34
ENDBRANCH  27  28
ENDBRANCH  26  27
ENDBRANCH   4  26
TORSDOF 9
ENDMDL
MODEL 8
REMARK VINA RESULT:      -6.9      3.663      5.860
REMARK  Name = 
REMARK  11 active torsions:
REMARK  status: ('A' for Active; 'I' for Inactive)
REMARK    1  A    between atoms: C_1  and  C_2
REMARK    2  A    between atoms: C_5  and  N_6
REMARK    3  A    between atoms: C_7  and  C_9
REMARK    4  A    between atoms: C_9  and  S_10
REMARK    5  A    between atoms: S_10  and  C_11
REMARK    6  A    between atoms: C_14  and  C_15
REMARK    7  A    between atoms: C_15  and  O_16
REMARK    8  A    between atoms: O_16  and  C_17
REMARK    9  A    between atoms: C_20  and  C_21
REMARK   10  A    between atoms: N_25  and  C_26
REMARK   11  A    between atoms: C_33  and  C_34
REMARK                            x       y       z     vdW  Elec       q    Type
REMARK                         _______ _______ _______ _____ _____    ______ ____
ROOT
ATOM      1  C   UNL     1       4.234   6.230  17.797  0.00  0.00    +0.000 A 
ATOM      2  N   UNL     1       4.444   7.473  17.434  0.00  0.00    +0.000 NA
ATOM      3  N   UNL     1       3.350   8.217  17.814  0.00  0.00    +0.000 NA
ATOM      4  C   UNL     1       2.470   7.422  18.407  0.00  0.00    +0.000 A 
ATOM      5  N   UNL     1       3.016   6.134  18.478  0.00  0.00    +0.000 N 
ENDROOT
BRANCH   5   6
ATOM      6  C   UNL     1       2.487   5.011  19.176  0.00  0.00    +0.000 A 
ATOM      7  C   UNL     1       1.653   4.090  18.529  0.00  0.00    +0.000 A 
ATOM      8  C   UNL     1       1.039   3.066  19.251  0.00  0.00    +0.000 A 
ATOM      9  C   UNL     1       1.290   2.923  20.613  0.00  0.00    +0.000 A 
ATOM     10  C   UNL     1       2.160   3.800  21.253  0.00  0.00    +0.000 A 
ATOM     11  C   UNL     1       2.749   4.847  20.544  0.00  0.00    +0.000 A 
ENDBRANCH   5   6
BRANCH   1  12
ATOM     12  S   UNL     1       5.123   4.848  17.200  0.00  0.00    +0.000 S 
BRANCH  12  13
ATOM     13  C   UNL     1       6.634   5.510  16.432  0.00  0.00    +0.000 C 
BRANCH  13  15
ATOM     14  N   UNL     1       7.383   7.778  17.083  0.00  0.00    +0.000 N 
ATOM     15  C   UNL     1       7.329   6.434  17.453  0.00  0.00    +0.000 C 
ATOM     16  O   UNL     1       7.793   5.956  18.486  0.00  0.00    +0.000 OA
ATOM     17  H   UNL     1       6.956   8.028  16.200  0.00  0.00    +0.000 HD
BRANCH  14  22
ATOM     18  C   UNL     1       9.855  12.191  19.876  0.00  0.00    +0.000 C 
ATOM     19  C   UNL     1       9.215  11.054  19.122  0.00  0.00    +0.000 A 
ATOM     20  C   UNL     1       9.372   9.748  19.597  0.00  0.00    +0.000 A 
ATOM     21  C   UNL     1       8.779   8.661  18.939  0.00  0.00    +0.000 A 
ATOM     22  C   UNL     1       8.012   8.843  17.790  0.00  0.00    +0.000 A 
ATOM     23  C   UNL     1       7.864  10.156  17.304  0.00  0.00    +0.000 A 
ATOM     24  C   UNL     1       8.460  11.264  17.954  0.00  0.00    +0.000 A 
ATOM     25  C   UNL     1       8.285  12.652  17.396  0.00  0.00    +0.000 C 
ENDBRANCH  14  22
ENDBRANCH  13  15
ENDBRANCH  12  13
ENDBRANCH   1  12
BRANCH   4  26
ATOM     26  C   UNL     1       1.182   7.896  19.044  0.00  0.00    +0.000 C 
BRANCH  26  27
ATOM     27  O   UNL     1       1.435   8.088  20.443  0.00  0.00    +0.000 OA
BRANCH  27  28
ATOM     28  C   UNL     1       0.718   9.028  21.138  0.00  0.00    +0.000 A 
ATOM     29  C   UNL     1       0.413   9.025  22.498  0.00  0.00    +0.000 A 
ATOM     30  C   UNL     1      -0.364  10.060  23.057  0.00  0.00    +0.000 A 
ATOM     31  C   UNL     1      -0.840  11.105  22.265  0.00  0.00    +0.000 A 
ATOM     32  C   UNL     1      -0.526  11.124  20.904  0.00  0.00    +0.000 A 
ATOM     33  C   UNL     1       0.250  10.092  20.352  0.00  0.00    +0.000 A 
BRANCH  31  34
ATOM     34  C   UNL     1      -1.650  12.155  22.837  0.00  0.00    +0.000 C 
ATOM     35  N   UNL     1      -2.295  12.999  23.295  0.00  0.00    +0.000 NA
ENDBRANCH  31  34
ENDBRANCH  27  28
ENDBRANCH  26  27
ENDBRANCH   4  26
TORSDOF 9
ENDMDL
MODEL 9
REMARK VINA RESULT:      -6.9      5.344      7.898
REMARK  Name = 
REMARK  11 active torsions:
REMARK  status: ('A' for Active; 'I' for Inactive)
REMARK    1  A    between atoms: C_1  and  C_2
REMARK    2  A    between atoms: C_5  and  N_6
REMARK    3  A    between atoms: C_7  and  C_9
REMARK    4  A    between atoms: C_9  and  S_10
REMARK    5  A    between atoms: S_10  and  C_11
REMARK    6  A    between atoms: C_14  and  C_15
REMARK    7  A    between atoms: C_15  and  O_16
REMARK    8  A    between atoms: O_16  and  C_17
REMARK    9  A    between atoms: C_20  and  C_21
REMARK   10  A    between atoms: N_25  and  C_26
REMARK   11  A    between atoms: C_33  and  C_34
REMARK                            x       y       z     vdW  Elec       q    Type
REMARK                         _______ _______ _______ _____ _____    ______ ____
ROOT
ATOM      1  C   UNL     1       3.853   6.826  17.695  0.00  0.00    +0.000 A 
ATOM      2  N   UNL     1       4.739   7.696  17.269  0.00  0.00    +0.000 NA
ATOM      3  N   UNL     1       5.973   7.086  17.285  0.00  0.00    +0.000 NA
ATOM      4  C   UNL     1       5.837   5.843  17.726  0.00  0.00    +0.000 A 
ATOM      5  N   UNL     1       4.475   5.600  17.951  0.00  0.00    +0.000 N 
ENDROOT
BRANCH   5   6
ATOM      6  C   UNL     1       3.863   4.354  18.269  0.00  0.00    +0.000 A 
ATOM      7  C   UNL     1       3.088   3.672  17.323  0.00  0.00    +0.000 A 
ATOM      8  C   UNL     1       2.390   2.518  17.683  0.00  0.00    +0.000 A 
ATOM      9  C   UNL     1       2.500   2.010  18.974  0.00  0.00    +0.000 A 
ATOM     10  C   UNL     1       3.312   2.650  19.906  0.00  0.00    +0.000 A 
ATOM     11  C   UNL     1       3.983   3.823  19.562  0.00  0.00    +0.000 A 
ENDBRANCH   5   6
BRANCH   1  12
ATOM     12  S   UNL     1       2.237   7.224  18.234  0.00  0.00    +0.000 S 
BRANCH  12  13
ATOM     13  C   UNL     1       2.260   7.087  20.049  0.00  0.00    +0.000 C 
BRANCH  13  15
ATOM     14  N   UNL     1       0.973   9.170  19.684  0.00  0.00    +0.000 N 
ATOM     15  C   UNL     1       1.466   8.273  20.631  0.00  0.00    +0.000 C 
ATOM     16  O   UNL     1       1.329   8.371  21.849  0.00  0.00    +0.000 OA
ATOM     17  H   UNL     1       1.163   8.960  18.712  0.00  0.00    +0.000 HD
BRANCH  14  22
ATOM     18  C   UNL     1      -2.023  14.021  20.618  0.00  0.00    +0.000 C 
ATOM     19  C   UNL     1      -1.253  12.755  20.347  0.00  0.00    +0.000 A 
ATOM     20  C   UNL     1       0.000  12.579  20.943  0.00  0.00    +0.000 A 
ATOM     21  C   UNL     1       0.745  11.410  20.735  0.00  0.00    +0.000 A 
ATOM     22  C   UNL     1       0.264  10.381  19.927  0.00  0.00    +0.000 A 
ATOM     23  C   UNL     1      -0.991  10.563  19.316  0.00  0.00    +0.000 A 
ATOM     24  C   UNL     1      -1.754  11.740  19.513  0.00  0.00    +0.000 A 
ATOM     25  C   UNL     1      -3.088  11.899  18.833  0.00  0.00    +0.000 C 
ENDBRANCH  14  22
ENDBRANCH  13  15
ENDBRANCH  12  13
ENDBRANCH   1  12
BRANCH   4  26
ATOM     26  C   UNL     1       6.961   4.832  17.793  0.00  0.00    +0.000 C 
BRANCH  26  27
ATOM     27  O   UNL     1       7.717   4.942  16.580  0.00  0.00    +0.000 OA
BRANCH  27  28
ATOM     28  C   UNL     1       7.135   4.600  15.386  0.00  0.00    +0.000 A 
ATOM     29  C   UNL     1       7.479   5.056  14.114  0.00  0.00    +0.000 A 
ATOM     30  C   UNL     1       6.757   4.626  12.983  0.00  0.00    +0.000 A 
ATOM     31  C   UNL     1       5.689   3.737  13.110  0.00  0.00    +0.000 A 
ATOM     32  C   UNL     1       5.348   3.263  14.378  0.00  0.00    +0.000 A 
ATOM     33  C   UNL     1       6.070   3.693  15.503  0.00  0.00    +0.000 A 
BRANCH  31  34
ATOM     34  C   UNL     1       4.941   3.311  11.950  0.00  0.00    +0.000 C 
ATOM     35  N   UNL     1       4.342   2.976  11.020  0.00  0.00    +0.000 NA
ENDBRANCH  31  34
ENDBRANCH  27  28
ENDBRANCH  26  27
ENDBRANCH   4  26
TORSDOF 9
ENDMDL
