MODEL 1
REMARK VINA RESULT:      -8.6      0.000      0.000
REMARK  Name = 
REMARK  9 active torsions:
REMARK  status: ('A' for Active; 'I' for Inactive)
REMARK    1  A    between atoms: C_1  and  N_2
REMARK    2  A    between atoms: C_6  and  C_7
REMARK    3  A    between atoms: C_7  and  O_8
REMARK    4  A    between atoms: C_7  and  C_18
REMARK    5  A    between atoms: O_8  and  C_9
REMARK    6  A    between atoms: C_9  and  C_10
REMARK    7  A    between atoms: C_13  and  C_14
REMARK    8  A    between atoms: C_21  and  C_22
REMARK    9  A    between atoms: C_24  and  C_25
REMARK                            x       y       z     vdW  Elec       q    Type
REMARK                         _______ _______ _______ _____ _____    ______ ____
ROOT
ATOM      1  C   UNL     1       2.905   5.223  20.034  0.00  0.00    +0.000 C 
ENDROOT
BRANCH   1   7
ATOM      2  C   UNL     1       1.623   2.647  21.535  0.00  0.00    +0.000 C 
ATOM      3  N   UNL     1       1.436   3.072  20.171  0.00  0.00    +0.000 N 
ATOM      4  C   UNL     1       0.694   2.350  19.275  0.00  0.00    +0.000 A 
ATOM      5  N   UNL     1       0.731   2.878  18.077  0.00  0.00    +0.000 NA
ATOM      6  C   UNL     1       1.532   3.976  18.203  0.00  0.00    +0.000 A 
ATOM      7  C   UNL     1       1.991   4.144  19.502  0.00  0.00    +0.000 A 
ENDBRANCH   1   7
BRANCH   1   8
ATOM      8  C   UNL     1       2.588   6.586  19.428  0.00  0.00    +0.000 A 
ATOM      9  C   UNL     1       3.179   6.980  18.230  0.00  0.00    +0.000 A 
ATOM     10  C   UNL     1       2.974   8.271  17.759  0.00  0.00    +0.000 A 
ATOM     11  C   UNL     1       2.189   9.194  18.484  0.00  0.00    +0.000 A 
ATOM     12  C   UNL     1       1.479   8.808  19.653  0.00  0.00    +0.000 A 
ATOM     13  C   UNL     1       1.703   7.481  20.073  0.00  0.00    +0.000 A 
BRANCH  12  14
ATOM     14  C   UNL     1       0.521   9.707  20.409  0.00  0.00    +0.000 A 
ATOM     15  C   UNL     1       0.721   9.914  21.796  0.00  0.00    +0.000 A 
ATOM     16  C   UNL     1      -0.162  10.656  22.590  0.00  0.00    +0.000 A 
ATOM     17  C   UNL     1      -1.233  11.312  22.010  0.00  0.00    +0.000 A 
ATOM     18  C   UNL     1      -1.431  11.215  20.639  0.00  0.00    +0.000 A 
ATOM     19 CL   UNL     1      -2.746  12.139  19.982  0.00  0.00    +0.000 Cl
ATOM     20  C   UNL     1      -0.595  10.394  19.847  0.00  0.00    +0.000 A 
ATOM     21 CL   UNL     1      -1.059  10.219  18.187  0.00  0.00    +0.000 Cl
ENDBRANCH  12  14
BRANCH  11  22
ATOM     22  C   UNL     1       2.200  10.536  17.984  0.00  0.00    +0.000 C 
ATOM     23  N   UNL     1       2.208  11.638  17.603  0.00  0.00    +0.000 NA
ENDBRANCH  11  22
ENDBRANCH   1   8
BRANCH   1  24
ATOM     24  O   UNL     1       4.259   4.829  19.804  0.00  0.00    +0.000 OA
BRANCH  24  25
ATOM     25  C   UNL     1       4.372   3.682  18.959  0.00  0.00    +0.000 C 
BRANCH  25  26
ATOM     26  C   UNL     1       5.154   4.076  17.737  0.00  0.00    +0.000 A 
ATOM     27  C   UNL     1       4.601   3.935  16.451  0.00  0.00    +0.000 A 
ATOM     28  C   UNL     1       5.334   4.318  15.326  0.00  0.00    +0.000 A 
ATOM     29  C   UNL     1       6.624   4.836  15.470  0.00  0.00    +0.000 A 
ATOM     30  C   UNL     1       7.182   4.965  16.746  0.00  0.00    +0.000 A 
ATOM     31  C   UNL     1       6.450   4.583  17.870  0.00  0.00    +0.000 A 
BRANCH  29  32
ATOM     32  C   UNL     1       7.374   5.231  14.315  0.00  0.00    +0.000 C 
ATOM     33  N   UNL     1       7.981   5.551  13.379  0.00  0.00    +0.000 NA
ENDBRANCH  29  32
ENDBRANCH  25  26
ENDBRANCH  24  25
ENDBRANCH   1  24
TORSDOF 8
ENDMDL
MODEL 2
REMARK VINA RESULT:      -8.1      1.163      1.669
REMARK  Name = 
REMARK  9 active torsions:
REMARK  status: ('A' for Active; 'I' for Inactive)
REMARK    1  A    between atoms: C_1  and  N_2
REMARK    2  A    between atoms: C_6  and  C_7
REMARK    3  A    between atoms: C_7  and  O_8
REMARK    4  A    between atoms: C_7  and  C_18
REMARK    5  A    between atoms: O_8  and  C_9
REMARK    6  A    between atoms: C_9  and  C_10
REMARK    7  A    between atoms: C_13  and  C_14
REMARK    8  A    between atoms: C_21  and  C_22
REMARK    9  A    between atoms: C_24  and  C_25
REMARK                            x       y       z     vdW  Elec       q    Type
REMARK                         _______ _______ _______ _____ _____    ______ ____
ROOT
ATOM      1  C   UNL     1       2.831   5.261  20.072  0.00  0.00    +0.000 C 
ENDROOT
BRANCH   1   7
ATOM      2  C   UNL     1       1.592   2.655  21.557  0.00  0.00    +0.000 C 
ATOM      3  N   UNL     1       1.391   3.090  20.198  0.00  0.00    +0.000 N 
ATOM      4  C   UNL     1       0.653   2.366  19.300  0.00  0.00    +0.000 A 
ATOM      5  N   UNL     1       0.676   2.905  18.107  0.00  0.00    +0.000 NA
ATOM      6  C   UNL     1       1.464   4.013  18.238  0.00  0.00    +0.000 A 
ATOM      7  C   UNL     1       1.928   4.175  19.535  0.00  0.00    +0.000 A 
ENDBRANCH   1   7
BRANCH   1   8
ATOM      8  C   UNL     1       2.592   6.595  19.373  0.00  0.00    +0.000 A 
ATOM      9  C   UNL     1       3.341   6.949  18.253  0.00  0.00    +0.000 A 
ATOM     10  C   UNL     1       3.195   8.218  17.706  0.00  0.00    +0.000 A 
ATOM     11  C   UNL     1       2.310   9.159  18.278  0.00  0.00    +0.000 A 
ATOM     12  C   UNL     1       1.447   8.811  19.351  0.00  0.00    +0.000 A 
ATOM     13  C   UNL     1       1.620   7.504  19.852  0.00  0.00    +0.000 A 
BRANCH  12  14
ATOM     14  C   UNL     1       0.388   9.727  19.931  0.00  0.00    +0.000 A 
ATOM     15  C   UNL     1      -0.485  10.413  19.052  0.00  0.00    +0.000 A 
ATOM     16  C   UNL     1      -1.433  11.344  19.494  0.00  0.00    +0.000 A 
ATOM     17  C   UNL     1      -1.621  11.554  20.848  0.00  0.00    +0.000 A 
ATOM     18  C   UNL     1      -0.851  10.846  21.761  0.00  0.00    +0.000 A 
ATOM     19 CL   UNL     1      -1.211  11.107  23.440  0.00  0.00    +0.000 Cl
ATOM     20  C   UNL     1       0.170   9.972  21.319  0.00  0.00    +0.000 A 
ATOM     21 CL   UNL     1       1.173   9.292  22.556  0.00  0.00    +0.000 Cl
ENDBRANCH  12  14
BRANCH  11  22
ATOM     22  C   UNL     1       2.382  10.480  17.729  0.00  0.00    +0.000 C 
ATOM     23  N   UNL     1       2.425  11.566  17.304  0.00  0.00    +0.000 NA
ENDBRANCH  11  22
ENDBRANCH   1   8
BRANCH   1  24
ATOM     24  O   UNL     1       4.186   4.825  19.960  0.00  0.00    +0.000 OA
BRANCH  24  25
ATOM     25  C   UNL     1       4.337   3.678  19.121  0.00  0.00    +0.000 C 
BRANCH  25  26
ATOM     26  C   UNL     1       5.136   4.082  17.913  0.00  0.00    +0.000 A 
ATOM     27  C   UNL     1       6.397   4.689  18.052  0.00  0.00    +0.000 A 
ATOM     28  C   UNL     1       7.134   5.046  16.921  0.00  0.00    +0.000 A 
ATOM     29  C   UNL     1       6.620   4.808  15.644  0.00  0.00    +0.000 A 
ATOM     30  C   UNL     1       5.360   4.218  15.502  0.00  0.00    +0.000 A 
ATOM     31  C   UNL     1       4.624   3.860  16.631  0.00  0.00    +0.000 A 
BRANCH  29  32
ATOM     32  C   UNL     1       7.378   5.172  14.484  0.00  0.00    +0.000 C 
ATOM     33  N   UNL     1       7.992   5.467  13.544  0.00  0.00    +0.000 NA
ENDBRANCH  29  32
ENDBRANCH  25  26
ENDBRANCH  24  25
ENDBRANCH   1  24
TORSDOF 8
ENDMDL
MODEL 3
REMARK VINA RESULT:      -7.7      0.976      1.691
REMARK  Name = 
REMARK  9 active torsions:
REMARK  status: ('A' for Active; 'I' for Inactive)
REMARK    1  A    between atoms: C_1  and  N_2
REMARK    2  A    between atoms: C_6  and  C_7
REMARK    3  A    between atoms: C_7  and  O_8
REMARK    4  A    between atoms: C_7  and  C_18
REMARK    5  A    between atoms: O_8  and  C_9
REMARK    6  A    between atoms: C_9  and  C_10
REMARK    7  A    between atoms: C_13  and  C_14
REMARK    8  A    between atoms: C_21  and  C_22
REMARK    9  A    between atoms: C_24  and  C_25
REMARK                            x       y       z     vdW  Elec       q    Type
REMARK                         _______ _______ _______ _____ _____    ______ ____
ROOT
ATOM      1  C   UNL     1       3.515   4.991  19.698  0.00  0.00    +0.000 C 
ENDROOT
BRANCH   1   7
ATOM      2  C   UNL     1       1.063   3.588  18.100  0.00  0.00    +0.000 C 
ATOM      3  N   UNL     1       1.411   3.462  19.492  0.00  0.00    +0.000 N 
ATOM      4  C   UNL     1       0.656   2.736  20.373  0.00  0.00    +0.000 A 
ATOM      5  N   UNL     1       1.111   2.830  21.597  0.00  0.00    +0.000 NA
ATOM      6  C   UNL     1       2.196   3.654  21.504  0.00  0.00    +0.000 A 
ATOM      7  C   UNL     1       2.428   4.070  20.201  0.00  0.00    +0.000 A 
ENDBRANCH   1   7
BRANCH   1   8
ATOM      8  C   UNL     1       2.961   6.349  19.281  0.00  0.00    +0.000 A 
ATOM      9  C   UNL     1       3.260   6.878  18.028  0.00  0.00    +0.000 A 
ATOM     10  C   UNL     1       2.848   8.169  17.715  0.00  0.00    +0.000 A 
ATOM     11  C   UNL     1       2.146   8.956  18.654  0.00  0.00    +0.000 A 
ATOM     12  C   UNL     1       1.723   8.424  19.901  0.00  0.00    +0.000 A 
ATOM     13  C   UNL     1       2.146   7.104  20.158  0.00  0.00    +0.000 A 
BRANCH  12  14
ATOM     14  C   UNL     1       0.861   9.167  20.902  0.00  0.00    +0.000 A 
ATOM     15  C   UNL     1       1.179   9.088  22.279  0.00  0.00    +0.000 A 
ATOM     16  C   UNL     1       0.390   9.668  23.278  0.00  0.00    +0.000 A 
ATOM     17  C   UNL     1      -0.703  10.445  22.936  0.00  0.00    +0.000 A 
ATOM     18  C   UNL     1      -1.015  10.630  21.596  0.00  0.00    +0.000 A 
ATOM     19 CL   UNL     1      -2.348  11.688  21.252  0.00  0.00    +0.000 Cl
ATOM     20  C   UNL     1      -0.274   9.971  20.586  0.00  0.00    +0.000 A 
ATOM     21 CL   UNL     1      -0.877  10.141  18.971  0.00  0.00    +0.000 Cl
ENDBRANCH  12  14
BRANCH  11  22
ATOM     22  C   UNL     1       1.935  10.321  18.274  0.00  0.00    +0.000 C 
ATOM     23  N   UNL     1       1.775  11.440  17.989  0.00  0.00    +0.000 NA
ENDBRANCH  11  22
ENDBRANCH   1   8
BRANCH   1  24
ATOM     24  O   UNL     1       4.211   4.339  18.635  0.00  0.00    +0.000 OA
BRANCH  24  25
ATOM     25  C   UNL     1       5.550   4.808  18.472  0.00  0.00    +0.000 C 
BRANCH  25  26
ATOM     26  C   UNL     1       5.917   4.688  17.019  0.00  0.00    +0.000 A 
ATOM     27  C   UNL     1       7.179   5.103  16.558  0.00  0.00    +0.000 A 
ATOM     28  C   UNL     1       7.512   4.972  15.208  0.00  0.00    +0.000 A 
ATOM     29  C   UNL     1       6.590   4.434  14.306  0.00  0.00    +0.000 A 
ATOM     30  C   UNL     1       5.329   4.033  14.759  0.00  0.00    +0.000 A 
ATOM     31  C   UNL     1       4.997   4.162  16.108  0.00  0.00    +0.000 A 
BRANCH  29  32
ATOM     32  C   UNL     1       6.933   4.297  12.922  0.00  0.00    +0.000 C 
ATOM     33  N   UNL     1       7.210   4.187  11.800  0.00  0.00    +0.000 NA
ENDBRANCH  29  32
ENDBRANCH  25  26
ENDBRANCH  24  25
ENDBRANCH   1  24
TORSDOF 8
ENDMDL
MODEL 4
REMARK VINA RESULT:      -7.7      1.911      2.213
REMARK  Name = 
REMARK  9 active torsions:
REMARK  status: ('A' for Active; 'I' for Inactive)
REMARK    1  A    between atoms: C_1  and  N_2
REMARK    2  A    between atoms: C_6  and  C_7
REMARK    3  A    between atoms: C_7  and  O_8
REMARK    4  A    between atoms: C_7  and  C_18
REMARK    5  A    between atoms: O_8  and  C_9
REMARK    6  A    between atoms: C_9  and  C_10
REMARK    7  A    between atoms: C_13  and  C_14
REMARK    8  A    between atoms: C_21  and  C_22
REMARK    9  A    between atoms: C_24  and  C_25
REMARK                            x       y       z     vdW  Elec       q    Type
REMARK                         _______ _______ _______ _____ _____    ______ ____
ROOT
ATOM      1  C   UNL     1       3.235   5.060  18.719  0.00  0.00    +0.000 C 
ENDROOT
BRANCH   1   7
ATOM      2  C   UNL     1       2.264   3.876  21.580  0.00  0.00    +0.000 C 
ATOM      3  N   UNL     1       1.698   3.640  20.276  0.00  0.00    +0.000 N 
ATOM      4  C   UNL     1       0.653   2.779  20.077  0.00  0.00    +0.000 A 
ATOM      5  N   UNL     1       0.360   2.655  18.807  0.00  0.00    +0.000 NA
ATOM      6  C   UNL     1       1.254   3.461  18.162  0.00  0.00    +0.000 A 
ATOM      7  C   UNL     1       2.109   4.106  19.044  0.00  0.00    +0.000 A 
ENDBRANCH   1   7
BRANCH   1   8
ATOM      8  C   UNL     1       2.743   6.497  18.589  0.00  0.00    +0.000 A 
ATOM      9  C   UNL     1       2.989   7.225  17.427  0.00  0.00    +0.000 A 
ATOM     10  C   UNL     1       2.642   8.570  17.376  0.00  0.00    +0.000 A 
ATOM     11  C   UNL     1       2.058   9.213  18.490  0.00  0.00    +0.000 A 
ATOM     12  C   UNL     1       1.688   8.490  19.655  0.00  0.00    +0.000 A 
ATOM     13  C   UNL     1       2.041   7.125  19.644  0.00  0.00    +0.000 A 
BRANCH  12  14
ATOM     14  C   UNL     1       0.946   9.087  20.834  0.00  0.00    +0.000 A 
ATOM     15  C   UNL     1       1.434   8.857  22.143  0.00  0.00    +0.000 A 
ATOM     16  C   UNL     1       0.766   9.295  23.293  0.00  0.00    +0.000 A 
ATOM     17  C   UNL     1      -0.371  10.075  23.181  0.00  0.00    +0.000 A 
ATOM     18  C   UNL     1      -0.849  10.405  21.920  0.00  0.00    +0.000 A 
ATOM     19 CL   UNL     1      -2.229  11.458  21.869  0.00  0.00    +0.000 Cl
ATOM     20  C   UNL     1      -0.230   9.890  20.757  0.00  0.00    +0.000 A 
ATOM     21 CL   UNL     1      -1.031  10.230  19.259  0.00  0.00    +0.000 Cl
ENDBRANCH  12  14
BRANCH  11  22
ATOM     22  C   UNL     1       1.911  10.633  18.370  0.00  0.00    +0.000 C 
ATOM     23  N   UNL     1       1.800  11.787  18.247  0.00  0.00    +0.000 NA
ENDBRANCH  11  22
ENDBRANCH   1   8
BRANCH   1  24
ATOM     24  O   UNL     1       3.893   4.603  17.537  0.00  0.00    +0.000 OA
BRANCH  24  25
ATOM     25  C   UNL     1       5.236   4.176  17.774  0.00  0.00    +0.000 C 
BRANCH  25  26
ATOM     26  C   UNL     1       6.109   5.397  17.862  0.00  0.00    +0.000 A 
ATOM     27  C   UNL     1       5.972   6.449  16.937  0.00  0.00    +0.000 A 
ATOM     28  C   UNL     1       6.779   7.583  17.040  0.00  0.00    +0.000 A 
ATOM     29  C   UNL     1       7.732   7.678  18.057  0.00  0.00    +0.000 A 
ATOM     30  C   UNL     1       7.880   6.629  18.970  0.00  0.00    +0.000 A 
ATOM     31  C   UNL     1       7.073   5.496  18.869  0.00  0.00    +0.000 A 
BRANCH  29  32
ATOM     32  C   UNL     1       8.558   8.844  18.163  0.00  0.00    +0.000 C 
ATOM     33  N   UNL     1       9.228   9.788  18.250  0.00  0.00    +0.000 NA
ENDBRANCH  29  32
ENDBRANCH  25  26
ENDBRANCH  24  25
ENDBRANCH   1  24
TORSDOF 8
ENDMDL
MODEL 5
REMARK VINA RESULT:      -7.7      5.214     10.389
REMARK  Name = 
REMARK  9 active torsions:
REMARK  status: ('A' for Active; 'I' for Inactive)
REMARK    1  A    between atoms: C_1  and  N_2
REMARK    2  A    between atoms: C_6  and  C_7
REMARK    3  A    between atoms: C_7  and  O_8
REMARK    4  A    between atoms: C_7  and  C_18
REMARK    5  A    between atoms: O_8  and  C_9
REMARK    6  A    between atoms: C_9  and  C_10
REMARK    7  A    between atoms: C_13  and  C_14
REMARK    8  A    between atoms: C_21  and  C_22
REMARK    9  A    between atoms: C_24  and  C_25
REMARK                            x       y       z     vdW  Elec       q    Type
REMARK                         _______ _______ _______ _____ _____    ______ ____
ROOT
ATOM      1  C   UNL     1       1.566  14.969  20.063  0.00  0.00    +0.000 C 
ENDROOT
BRANCH   1   7
ATOM      2  C   UNL     1       4.167  14.477  18.184  0.00  0.00    +0.000 C 
ATOM      3  N   UNL     1       3.254  15.592  18.174  0.00  0.00    +0.000 N 
ATOM      4  C   UNL     1       3.431  16.675  17.356  0.00  0.00    +0.000 A 
ATOM      5  N   UNL     1       2.532  17.601  17.575  0.00  0.00    +0.000 NA
ATOM      6  C   UNL     1       1.751  17.101  18.577  0.00  0.00    +0.000 A 
ATOM      7  C   UNL     1       2.161  15.838  18.980  0.00  0.00    +0.000 A 
ENDBRANCH   1   7
BRANCH   1   8
ATOM      8  C   UNL     1       0.798  13.785  19.484  0.00  0.00    +0.000 A 
ATOM      9  C   UNL     1      -0.265  13.994  18.609  0.00  0.00    +0.000 A 
ATOM     10  C   UNL     1      -1.029  12.911  18.191  0.00  0.00    +0.000 A 
ATOM     11  C   UNL     1      -0.752  11.605  18.651  0.00  0.00    +0.000 A 
ATOM     12  C   UNL     1       0.385  11.326  19.455  0.00  0.00    +0.000 A 
ATOM     13  C   UNL     1       1.139  12.457  19.831  0.00  0.00    +0.000 A 
BRANCH  12  14
ATOM     14  C   UNL     1       0.813   9.936  19.881  0.00  0.00    +0.000 A 
ATOM     15  C   UNL     1       0.419   9.452  21.151  0.00  0.00    +0.000 A 
ATOM     16  C   UNL     1       0.840   8.218  21.662  0.00  0.00    +0.000 A 
ATOM     17  C   UNL     1       1.595   7.364  20.877  0.00  0.00    +0.000 A 
ATOM     18  C   UNL     1       1.941   7.749  19.589  0.00  0.00    +0.000 A 
ATOM     19 CL   UNL     1       2.814   6.583  18.644  0.00  0.00    +0.000 Cl
ATOM     20  C   UNL     1       1.594   9.031  19.102  0.00  0.00    +0.000 A 
ATOM     21 CL   UNL     1       2.241   9.453  17.551  0.00  0.00    +0.000 Cl
ENDBRANCH  12  14
BRANCH  11  22
ATOM     22  C   UNL     1      -1.716  10.609  18.286  0.00  0.00    +0.000 C 
ATOM     23  N   UNL     1      -2.482   9.778  18.000  0.00  0.00    +0.000 NA
ENDBRANCH  11  22
ENDBRANCH   1   8
BRANCH   1  24
ATOM     24  O   UNL     1       0.751  15.783  20.907  0.00  0.00    +0.000 OA
BRANCH  24  25
ATOM     25  C   UNL     1       0.550  15.219  22.204  0.00  0.00    +0.000 C 
BRANCH  25  26
ATOM     26  C   UNL     1      -0.813  14.586  22.234  0.00  0.00    +0.000 A 
ATOM     27  C   UNL     1      -1.959  15.327  21.891  0.00  0.00    +0.000 A 
ATOM     28  C   UNL     1      -3.218  14.722  21.910  0.00  0.00    +0.000 A 
ATOM     29  C   UNL     1      -3.347  13.380  22.276  0.00  0.00    +0.000 A 
ATOM     30  C   UNL     1      -2.212  12.644  22.630  0.00  0.00    +0.000 A 
ATOM     31  C   UNL     1      -0.954  13.248  22.611  0.00  0.00    +0.000 A 
BRANCH  29  32
ATOM     32  C   UNL     1      -4.638  12.759  22.292  0.00  0.00    +0.000 C 
ATOM     33  N   UNL     1      -5.685  12.257  22.305  0.00  0.00    +0.000 NA
ENDBRANCH  29  32
ENDBRANCH  25  26
ENDBRANCH  24  25
ENDBRANCH   1  24
TORSDOF 8
ENDMDL
MODEL 6
REMARK VINA RESULT:      -7.5      2.174      2.955
REMARK  Name = 
REMARK  9 active torsions:
REMARK  status: ('A' for Active; 'I' for Inactive)
REMARK    1  A    between atoms: C_1  and  N_2
REMARK    2  A    between atoms: C_6  and  C_7
REMARK    3  A    between atoms: C_7  and  O_8
REMARK    4  A    between atoms: C_7  and  C_18
REMARK    5  A    between atoms: O_8  and  C_9
REMARK    6  A    between atoms: C_9  and  C_10
REMARK    7  A    between atoms: C_13  and  C_14
REMARK    8  A    between atoms: C_21  and  C_22
REMARK    9  A    between atoms: C_24  and  C_25
REMARK                            x       y       z     vdW  Elec       q    Type
REMARK                         _______ _______ _______ _____ _____    ______ ____
ROOT
ATOM      1  C   UNL     1       2.981   6.349  19.314  0.00  0.00    +0.000 C 
ENDROOT
BRANCH   1   7
ATOM      2  C   UNL     1       2.063   3.920  21.261  0.00  0.00    +0.000 C 
ATOM      3  N   UNL     1       1.742   4.122  19.872  0.00  0.00    +0.000 N 
ATOM      4  C   UNL     1       1.014   3.215  19.150  0.00  0.00    +0.000 A 
ATOM      5  N   UNL     1       0.917   3.562  17.891  0.00  0.00    +0.000 NA
ATOM      6  C   UNL     1       1.613   4.733  17.796  0.00  0.00    +0.000 A 
ATOM      7  C   UNL     1       2.142   5.128  19.016  0.00  0.00    +0.000 A 
ENDBRANCH   1   7
BRANCH   1   8
ATOM      8  C   UNL     1       2.187   7.415  20.062  0.00  0.00    +0.000 A 
ATOM      9  C   UNL     1       2.124   7.400  21.454  0.00  0.00    +0.000 A 
ATOM     10  C   UNL     1       1.296   8.303  22.110  0.00  0.00    +0.000 A 
ATOM     11  C   UNL     1       0.508   9.225  21.387  0.00  0.00    +0.000 A 
ATOM     12  C   UNL     1       0.619   9.352  19.976  0.00  0.00    +0.000 A 
ATOM     13  C   UNL     1       1.490   8.428  19.364  0.00  0.00    +0.000 A 
BRANCH  12  14
ATOM     14  C   UNL     1      -0.100  10.400  19.151  0.00  0.00    +0.000 A 
ATOM     15  C   UNL     1      -1.153   9.999  18.294  0.00  0.00    +0.000 A 
ATOM     16  C   UNL     1      -1.813  10.883  17.432  0.00  0.00    +0.000 A 
ATOM     17  C   UNL     1      -1.518  12.234  17.464  0.00  0.00    +0.000 A 
ATOM     18  C   UNL     1      -0.552  12.700  18.347  0.00  0.00    +0.000 A 
ATOM     19 CL   UNL     1      -0.304  14.418  18.383  0.00  0.00    +0.000 Cl
ATOM     20  C   UNL     1       0.181  11.798  19.154  0.00  0.00    +0.000 A 
ATOM     21 CL   UNL     1       1.477  12.488  20.074  0.00  0.00    +0.000 Cl
ENDBRANCH  12  14
BRANCH  11  22
ATOM     22  C   UNL     1      -0.428   9.977  22.168  0.00  0.00    +0.000 C 
ATOM     23  N   UNL     1      -1.176  10.582  22.828  0.00  0.00    +0.000 NA
ENDBRANCH  11  22
ENDBRANCH   1   8
BRANCH   1  24
ATOM     24  O   UNL     1       3.527   6.839  18.089  0.00  0.00    +0.000 OA
BRANCH  24  25
ATOM     25  C   UNL     1       4.939   6.648  17.990  0.00  0.00    +0.000 C 
BRANCH  25  26
ATOM     26  C   UNL     1       5.221   5.867  16.736  0.00  0.00    +0.000 A 
ATOM     27  C   UNL     1       5.201   6.493  15.477  0.00  0.00    +0.000 A 
ATOM     28  C   UNL     1       5.478   5.758  14.322  0.00  0.00    +0.000 A 
ATOM     29  C   UNL     1       5.771   4.395  14.411  0.00  0.00    +0.000 A 
ATOM     30  C   UNL     1       5.778   3.766  15.660  0.00  0.00    +0.000 A 
ATOM     31  C   UNL     1       5.502   4.500  16.813  0.00  0.00    +0.000 A 
BRANCH  29  32
ATOM     32  C   UNL     1       6.058   3.642  13.226  0.00  0.00    +0.000 C 
ATOM     33  N   UNL     1       6.290   3.032  12.266  0.00  0.00    +0.000 NA
ENDBRANCH  29  32
ENDBRANCH  25  26
ENDBRANCH  24  25
ENDBRANCH   1  24
TORSDOF 8
ENDMDL
MODEL 7
REMARK VINA RESULT:      -7.4      4.077      8.137
REMARK  Name = 
REMARK  9 active torsions:
REMARK  status: ('A' for Active; 'I' for Inactive)
REMARK    1  A    between atoms: C_1  and  N_2
REMARK    2  A    between atoms: C_6  and  C_7
REMARK    3  A    between atoms: C_7  and  O_8
REMARK    4  A    between atoms: C_7  and  C_18
REMARK    5  A    between atoms: O_8  and  C_9
REMARK    6  A    between atoms: C_9  and  C_10
REMARK    7  A    between atoms: C_13  and  C_14
REMARK    8  A    between atoms: C_21  and  C_22
REMARK    9  A    between atoms: C_24  and  C_25
REMARK                            x       y       z     vdW  Elec       q    Type
REMARK                         _______ _______ _______ _____ _____    ______ ____
ROOT
ATOM      1  C   UNL     1       0.063  12.392  19.804  0.00  0.00    +0.000 C 
ENDROOT
BRANCH   1   7
ATOM      2  C   UNL     1      -0.216  15.458  18.778  0.00  0.00    +0.000 C 
ATOM      3  N   UNL     1       0.907  14.831  19.428  0.00  0.00    +0.000 N 
ATOM      4  C   UNL     1       2.088  15.488  19.643  0.00  0.00    +0.000 A 
ATOM      5  N   UNL     1       2.993  14.701  20.169  0.00  0.00    +0.000 NA
ATOM      6  C   UNL     1       2.375  13.490  20.290  0.00  0.00    +0.000 A 
ATOM      7  C   UNL     1       1.061  13.525  19.846  0.00  0.00    +0.000 A 
ENDBRANCH   1   7
BRANCH   1   8
ATOM      8  C   UNL     1      -0.990  12.521  20.899  0.00  0.00    +0.000 A 
ATOM      9  C   UNL     1      -0.651  12.306  22.233  0.00  0.00    +0.000 A 
ATOM     10  C   UNL     1      -1.648  12.307  23.201  0.00  0.00    +0.000 A 
ATOM     11  C   UNL     1      -3.001  12.506  22.850  0.00  0.00    +0.000 A 
ATOM     12  C   UNL     1      -3.384  12.836  21.523  0.00  0.00    +0.000 A 
ATOM     13  C   UNL     1      -2.331  12.846  20.586  0.00  0.00    +0.000 A 
BRANCH  12  14
ATOM     14  C   UNL     1      -4.797  13.186  21.100  0.00  0.00    +0.000 A 
ATOM     15  C   UNL     1      -5.576  12.214  20.427  0.00  0.00    +0.000 A 
ATOM     16  C   UNL     1      -6.855  12.477  19.924  0.00  0.00    +0.000 A 
ATOM     17  C   UNL     1      -7.458  13.699  20.164  0.00  0.00    +0.000 A 
ATOM     18  C   UNL     1      -6.775  14.664  20.893  0.00  0.00    +0.000 A 
ATOM     19 CL   UNL     1      -7.636  16.136  21.221  0.00  0.00    +0.000 Cl
ATOM     20  C   UNL     1      -5.448  14.435  21.325  0.00  0.00    +0.000 A 
ATOM     21 CL   UNL     1      -4.649  15.784  22.064  0.00  0.00    +0.000 Cl
ENDBRANCH  12  14
BRANCH  11  22
ATOM     22  C   UNL     1      -3.945  12.310  23.910  0.00  0.00    +0.000 C 
ATOM     23  N   UNL     1      -4.692  12.143  24.790  0.00  0.00    +0.000 NA
ENDBRANCH  11  22
ENDBRANCH   1   8
BRANCH   1  24
ATOM     24  O   UNL     1       0.773  11.155  19.876  0.00  0.00    +0.000 OA
BRANCH  24  25
ATOM     25  C   UNL     1       0.854  10.482  18.619  0.00  0.00    +0.000 C 
BRANCH  25  26
ATOM     26  C   UNL     1       1.509   9.147  18.842  0.00  0.00    +0.000 A 
ATOM     27  C   UNL     1       1.417   8.499  20.088  0.00  0.00    +0.000 A 
ATOM     28  C   UNL     1       2.018   7.252  20.277  0.00  0.00    +0.000 A 
ATOM     29  C   UNL     1       2.719   6.644  19.232  0.00  0.00    +0.000 A 
ATOM     30  C   UNL     1       2.823   7.291  17.997  0.00  0.00    +0.000 A 
ATOM     31  C   UNL     1       2.222   8.536  17.807  0.00  0.00    +0.000 A 
BRANCH  29  32
ATOM     32  C   UNL     1       3.332   5.364  19.426  0.00  0.00    +0.000 C 
ATOM     33  N   UNL     1       3.829   4.327  19.583  0.00  0.00    +0.000 NA
ENDBRANCH  29  32
ENDBRANCH  25  26
ENDBRANCH  24  25
ENDBRANCH   1  24
TORSDOF 8
ENDMDL
MODEL 8
REMARK VINA RESULT:      -7.4      3.576      6.767
REMARK  Name = 
REMARK  9 active torsions:
REMARK  status: ('A' for Active; 'I' for Inactive)
REMARK    1  A    between atoms: C_1  and  N_2
REMARK    2  A    between atoms: C_6  and  C_7
REMARK    3  A    between atoms: C_7  and  O_8
REMARK    4  A    between atoms: C_7  and  C_18
REMARK    5  A    between atoms: O_8  and  C_9
REMARK    6  A    between atoms: C_9  and  C_10
REMARK    7  A    between atoms: C_13  and  C_14
REMARK    8  A    between atoms: C_21  and  C_22
REMARK    9  A    between atoms: C_24  and  C_25
REMARK                            x       y       z     vdW  Elec       q    Type
REMARK                         _______ _______ _______ _____ _____    ______ ____
ROOT
ATOM      1  C   UNL     1       0.070  10.301  20.325  0.00  0.00    +0.000 C 
ENDROOT
BRANCH   1   7
ATOM      2  C   UNL     1       0.690  13.482  20.141  0.00  0.00    +0.000 C 
ATOM      3  N   UNL     1       0.037  12.758  21.202  0.00  0.00    +0.000 N 
ATOM      4  C   UNL     1      -0.366  13.364  22.361  0.00  0.00    +0.000 A 
ATOM      5  N   UNL     1      -0.857  12.502  23.215  0.00  0.00    +0.000 NA
ATOM      6  C   UNL     1      -0.759  11.293  22.588  0.00  0.00    +0.000 A 
ATOM      7  C   UNL     1      -0.212  11.405  21.318  0.00  0.00    +0.000 A 
ENDBRANCH   1   7
BRANCH   1   8
ATOM      8  C   UNL     1      -0.920  10.314  19.165  0.00  0.00    +0.000 A 
ATOM      9  C   UNL     1      -0.558   9.797  17.923  0.00  0.00    +0.000 A 
ATOM     10  C   UNL     1      -1.428   9.930  16.848  0.00  0.00    +0.000 A 
ATOM     11  C   UNL     1      -2.666  10.594  16.992  0.00  0.00    +0.000 A 
ATOM     12  C   UNL     1      -3.127  11.041  18.259  0.00  0.00    +0.000 A 
ATOM     13  C   UNL     1      -2.216  10.860  19.320  0.00  0.00    +0.000 A 
BRANCH  12  14
ATOM     14  C   UNL     1      -4.493  11.647  18.509  0.00  0.00    +0.000 A 
ATOM     15  C   UNL     1      -5.607  11.158  17.785  0.00  0.00    +0.000 A 
ATOM     16  C   UNL     1      -6.887  11.715  17.887  0.00  0.00    +0.000 A 
ATOM     17  C   UNL     1      -7.133  12.725  18.800  0.00  0.00    +0.000 A 
ATOM     18  C   UNL     1      -6.097  13.189  19.599  0.00  0.00    +0.000 A 
ATOM     19 CL   UNL     1      -6.512  14.397  20.776  0.00  0.00    +0.000 Cl
ATOM     20  C   UNL     1      -4.783  12.692  19.436  0.00  0.00    +0.000 A 
ATOM     21 CL   UNL     1      -3.554  13.481  20.367  0.00  0.00    +0.000 Cl
ENDBRANCH  12  14
BRANCH  11  22
ATOM     22  C   UNL     1      -3.388  10.816  15.774  0.00  0.00    +0.000 C 
ATOM     23  N   UNL     1      -3.982  10.970  14.783  0.00  0.00    +0.000 NA
ENDBRANCH  11  22
ENDBRANCH   1   8
BRANCH   1  24
ATOM     24  O   UNL     1       0.077   9.054  21.019  0.00  0.00    +0.000 OA
BRANCH  24  25
ATOM     25  C   UNL     1       1.393   8.596  21.334  0.00  0.00    +0.000 C 
BRANCH  25  26
ATOM     26  C   UNL     1       1.738   7.475  20.394  0.00  0.00    +0.000 A 
ATOM     27  C   UNL     1       2.246   7.741  19.110  0.00  0.00    +0.000 A 
ATOM     28  C   UNL     1       2.576   6.689  18.252  0.00  0.00    +0.000 A 
ATOM     29  C   UNL     1       2.396   5.366  18.663  0.00  0.00    +0.000 A 
ATOM     30  C   UNL     1       1.879   5.097  19.934  0.00  0.00    +0.000 A 
ATOM     31  C   UNL     1       1.550   6.147  20.791  0.00  0.00    +0.000 A 
BRANCH  29  32
ATOM     32  C   UNL     1       2.737   4.287  17.784  0.00  0.00    +0.000 C 
ATOM     33  N   UNL     1       3.013   3.414  17.071  0.00  0.00    +0.000 NA
ENDBRANCH  29  32
ENDBRANCH  25  26
ENDBRANCH  24  25
ENDBRANCH   1  24
TORSDOF 8
ENDMDL
MODEL 9
REMARK VINA RESULT:      -7.4      0.438      1.339
REMARK  Name = 
REMARK  9 active torsions:
REMARK  status: ('A' for Active; 'I' for Inactive)
REMARK    1  A    between atoms: C_1  and  N_2
REMARK    2  A    between atoms: C_6  and  C_7
REMARK    3  A    between atoms: C_7  and  O_8
REMARK    4  A    between atoms: C_7  and  C_18
REMARK    5  A    between atoms: O_8  and  C_9
REMARK    6  A    between atoms: C_9  and  C_10
REMARK    7  A    between atoms: C_13  and  C_14
REMARK    8  A    between atoms: C_21  and  C_22
REMARK    9  A    between atoms: C_24  and  C_25
REMARK                            x       y       z     vdW  Elec       q    Type
REMARK                         _______ _______ _______ _____ _____    ______ ____
ROOT
ATOM      1  C   UNL     1       2.995   5.137  20.242  0.00  0.00    +0.000 C 
ENDROOT
BRANCH   1   7
ATOM      2  C   UNL     1       1.385   4.670  17.463  0.00  0.00    +0.000 C 
ATOM      3  N   UNL     1       1.376   3.853  18.649  0.00  0.00    +0.000 N 
ATOM      4  C   UNL     1       0.582   2.744  18.768  0.00  0.00    +0.000 A 
ATOM      5  N   UNL     1       0.673   2.207  19.959  0.00  0.00    +0.000 NA
ATOM      6  C   UNL     1       1.552   3.003  20.636  0.00  0.00    +0.000 A 
ATOM      7  C   UNL     1       2.027   4.044  19.852  0.00  0.00    +0.000 A 
ENDBRANCH   1   7
BRANCH   1   8
ATOM      8  C   UNL     1       2.661   6.461  19.565  0.00  0.00    +0.000 A 
ATOM      9  C   UNL     1       3.241   6.794  18.343  0.00  0.00    +0.000 A 
ATOM     10  C   UNL     1       3.020   8.056  17.803  0.00  0.00    +0.000 A 
ATOM     11  C   UNL     1       2.230   9.009  18.481  0.00  0.00    +0.000 A 
ATOM     12  C   UNL     1       1.530   8.682  19.673  0.00  0.00    +0.000 A 
ATOM     13  C   UNL     1       1.770   7.382  20.164  0.00  0.00    +0.000 A 
BRANCH  12  14
ATOM     14  C   UNL     1       0.568   9.612  20.385  0.00  0.00    +0.000 A 
ATOM     15  C   UNL     1       0.740   9.852  21.770  0.00  0.00    +0.000 A 
ATOM     16  C   UNL     1      -0.150  10.625  22.525  0.00  0.00    +0.000 A 
ATOM     17  C   UNL     1      -1.200  11.280  21.905  0.00  0.00    +0.000 A 
ATOM     18  C   UNL     1      -1.369  11.149  20.533  0.00  0.00    +0.000 A 
ATOM     19 CL   UNL     1      -2.658  12.072  19.824  0.00  0.00    +0.000 Cl
ATOM     20  C   UNL     1      -0.526  10.298  19.781  0.00  0.00    +0.000 A 
ATOM     21 CL   UNL     1      -0.957  10.085  18.116  0.00  0.00    +0.000 Cl
ENDBRANCH  12  14
BRANCH  11  22
ATOM     22  C   UNL     1       2.225  10.322  17.907  0.00  0.00    +0.000 C 
ATOM     23  N   UNL     1       2.226  11.402  17.466  0.00  0.00    +0.000 NA
ENDBRANCH  11  22
ENDBRANCH   1   8
BRANCH   1  24
ATOM     24  O   UNL     1       4.322   4.697  19.950  0.00  0.00    +0.000 OA
BRANCH  24  25
ATOM     25  C   UNL     1       4.359   3.599  19.037  0.00  0.00    +0.000 C 
BRANCH  25  26
ATOM     26  C   UNL     1       5.145   4.021  17.828  0.00  0.00    +0.000 A 
ATOM     27  C   UNL     1       6.417   4.606  17.963  0.00  0.00    +0.000 A 
ATOM     28  C   UNL     1       7.143   4.980  16.830  0.00  0.00    +0.000 A 
ATOM     29  C   UNL     1       6.608   4.780  15.555  0.00  0.00    +0.000 A 
ATOM     30  C   UNL     1       5.338   4.210  15.417  0.00  0.00    +0.000 A 
ATOM     31  C   UNL     1       4.613   3.836  16.548  0.00  0.00    +0.000 A 
BRANCH  29  32
ATOM     32  C   UNL     1       7.354   5.161  14.394  0.00  0.00    +0.000 C 
ATOM     33  N   UNL     1       7.959   5.469  13.452  0.00  0.00    +0.000 NA
ENDBRANCH  29  32
ENDBRANCH  25  26
ENDBRANCH  24  25
ENDBRANCH   1  24
TORSDOF 8
ENDMDL
