MODEL 1
REMARK VINA RESULT:      -9.0      0.000      0.000
REMARK  Name = 
REMARK  6 active torsions:
REMARK  status: ('A' for Active; 'I' for Inactive)
REMARK    1  A    between atoms: C_1  and  C_2
REMARK    2  A    between atoms: C_5  and  S_6
REMARK    3  A    between atoms: S_6  and  N_9
REMARK    4  A    between atoms: C_14  and  C_15
REMARK    5  A    between atoms: C_15  and  O_17
REMARK    6  A    between atoms: O_17  and  C_18
REMARK                            x       y       z     vdW  Elec       q    Type
REMARK                         _______ _______ _______ _____ _____    ______ ____
ROOT
ATOM      1  N   UNL     1       1.291   9.476  19.413  0.00  0.00    +0.000 N 
ATOM      2  C   UNL     1       1.468   9.927  18.101  0.00  0.00    +0.000 A 
ATOM      3  C   UNL     1       2.628   9.301  17.682  0.00  0.00    +0.000 A 
ATOM      4  C   UNL     1       2.369   8.002  18.210  0.00  0.00    +0.000 A 
ATOM      5  C   UNL     1       2.433   6.706  17.694  0.00  0.00    +0.000 A 
ATOM      6  C   UNL     1       2.276   5.640  18.564  0.00  0.00    +0.000 A 
ATOM      7  C   UNL     1       2.224   5.875  19.953  0.00  0.00    +0.000 A 
ATOM      8  C   UNL     1       1.986   7.179  20.459  0.00  0.00    +0.000 A 
ATOM      9  C   UNL     1       1.864   8.206  19.507  0.00  0.00    +0.000 A 
ENDROOT
BRANCH   1  10
ATOM     10  S   UNL     1       0.040  10.155  20.359  0.00  0.00    +0.000 S 
ATOM     11  O   UNL     1       0.583  11.434  20.785  0.00  0.00    +0.000 OA
ATOM     12  O   UNL     1      -0.363   9.135  21.305  0.00  0.00    +0.000 OA
BRANCH  10  17
ATOM     13  C   UNL     1      -4.573  11.478  16.566  0.00  0.00    +0.000 C 
ATOM     14  C   UNL     1      -3.426  11.143  17.475  0.00  0.00    +0.000 A 
ATOM     15  C   UNL     1      -2.608  10.033  17.235  0.00  0.00    +0.000 A 
ATOM     16  C   UNL     1      -1.561   9.701  18.119  0.00  0.00    +0.000 A 
ATOM     17  C   UNL     1      -1.344  10.502  19.255  0.00  0.00    +0.000 A 
ATOM     18  C   UNL     1      -2.142  11.615  19.503  0.00  0.00    +0.000 A 
ATOM     19  C   UNL     1      -3.177  11.932  18.613  0.00  0.00    +0.000 A 
ENDBRANCH  10  17
ENDBRANCH   1  10
BRANCH   6  20
ATOM     20  C   UNL     1       2.087   4.295  17.931  0.00  0.00    +0.000 C 
ATOM     21  O   UNL     1       1.056   3.993  17.347  0.00  0.00    +0.000 OA
BRANCH  20  22
ATOM     22  O   UNL     1       3.159   3.463  18.199  0.00  0.00    +0.000 OA
BRANCH  22  23
ATOM     23  C   UNL     1       4.473   3.804  17.819  0.00  0.00    +0.000 A 
ATOM     24  C   UNL     1       5.359   4.108  18.850  0.00  0.00    +0.000 A 
ATOM     25  N   UNL     1       6.635   4.518  18.658  0.00  0.00    +0.000 NA
ATOM     26  C   UNL     1       7.038   4.635  17.370  0.00  0.00    +0.000 A 
ATOM     27  C   UNL     1       6.229   4.350  16.278  0.00  0.00    +0.000 A 
ATOM     28 CL   UNL     1       6.826   4.531  14.678  0.00  0.00    +0.000 Cl
ATOM     29  C   UNL     1       4.919   3.931  16.505  0.00  0.00    +0.000 A 
ENDBRANCH  22  23
ENDBRANCH  20  22
ENDBRANCH   6  20
TORSDOF 5
ENDMDL
MODEL 2
REMARK VINA RESULT:      -8.8      1.072      1.561
REMARK  Name = 
REMARK  6 active torsions:
REMARK  status: ('A' for Active; 'I' for Inactive)
REMARK    1  A    between atoms: C_1  and  C_2
REMARK    2  A    between atoms: C_5  and  S_6
REMARK    3  A    between atoms: S_6  and  N_9
REMARK    4  A    between atoms: C_14  and  C_15
REMARK    5  A    between atoms: C_15  and  O_17
REMARK    6  A    between atoms: O_17  and  C_18
REMARK                            x       y       z     vdW  Elec       q    Type
REMARK                         _______ _______ _______ _____ _____    ______ ____
ROOT
ATOM      1  N   UNL     1       1.194   9.454  19.505  0.00  0.00    +0.000 N 
ATOM      2  C   UNL     1       1.359   9.938  18.204  0.00  0.00    +0.000 A 
ATOM      3  C   UNL     1       2.548   9.371  17.781  0.00  0.00    +0.000 A 
ATOM      4  C   UNL     1       2.342   8.052  18.282  0.00  0.00    +0.000 A 
ATOM      5  C   UNL     1       2.465   6.770  17.741  0.00  0.00    +0.000 A 
ATOM      6  C   UNL     1       2.350   5.682  18.589  0.00  0.00    +0.000 A 
ATOM      7  C   UNL     1       2.278   5.887  19.982  0.00  0.00    +0.000 A 
ATOM      8  C   UNL     1       1.981   7.169  20.511  0.00  0.00    +0.000 A 
ATOM      9  C   UNL     1       1.821   8.208  19.578  0.00  0.00    +0.000 A 
ENDROOT
BRANCH   1  10
ATOM     10  S   UNL     1      -0.092  10.060  20.455  0.00  0.00    +0.000 S 
ATOM     11  O   UNL     1       0.453  11.273  21.041  0.00  0.00    +0.000 OA
ATOM     12  O   UNL     1      -0.562   8.955  21.267  0.00  0.00    +0.000 OA
BRANCH  10  17
ATOM     13  C   UNL     1      -4.655  11.607  16.688  0.00  0.00    +0.000 C 
ATOM     14  C   UNL     1      -3.549  11.240  17.634  0.00  0.00    +0.000 A 
ATOM     15  C   UNL     1      -3.183  12.086  18.687  0.00  0.00    +0.000 A 
ATOM     16  C   UNL     1      -2.112  11.754  19.543  0.00  0.00    +0.000 A 
ATOM     17  C   UNL     1      -1.410  10.555  19.327  0.00  0.00    +0.000 A 
ATOM     18  C   UNL     1      -1.767   9.699  18.291  0.00  0.00    +0.000 A 
ATOM     19  C   UNL     1      -2.834  10.042  17.450  0.00  0.00    +0.000 A 
ENDBRANCH  10  17
ENDBRANCH   1  10
BRANCH   6  20
ATOM     20  C   UNL     1       2.223   4.343  17.929  0.00  0.00    +0.000 C 
ATOM     21  O   UNL     1       1.198   3.995  17.360  0.00  0.00    +0.000 OA
BRANCH  20  22
ATOM     22  O   UNL     1       3.347   3.568  18.153  0.00  0.00    +0.000 OA
BRANCH  22  23
ATOM     23  C   UNL     1       4.635   4.012  17.793  0.00  0.00    +0.000 A 
ATOM     24  C   UNL     1       5.028   3.776  16.478  0.00  0.00    +0.000 A 
ATOM     25  N   UNL     1       6.254   4.078  15.986  0.00  0.00    +0.000 NA
ATOM     26  C   UNL     1       7.127   4.637  16.858  0.00  0.00    +0.000 A 
ATOM     27  C   UNL     1       6.823   4.914  18.185  0.00  0.00    +0.000 A 
ATOM     28 CL   UNL     1       7.997   5.623  19.220  0.00  0.00    +0.000 Cl
ATOM     29  C   UNL     1       5.555   4.592  18.665  0.00  0.00    +0.000 A 
ENDBRANCH  22  23
ENDBRANCH  20  22
ENDBRANCH   6  20
TORSDOF 5
ENDMDL
MODEL 3
REMARK VINA RESULT:      -8.8      1.691      2.635
REMARK  Name = 
REMARK  6 active torsions:
REMARK  status: ('A' for Active; 'I' for Inactive)
REMARK    1  A    between atoms: C_1  and  C_2
REMARK    2  A    between atoms: C_5  and  S_6
REMARK    3  A    between atoms: S_6  and  N_9
REMARK    4  A    between atoms: C_14  and  C_15
REMARK    5  A    between atoms: C_15  and  O_17
REMARK    6  A    between atoms: O_17  and  C_18
REMARK                            x       y       z     vdW  Elec       q    Type
REMARK                         _______ _______ _______ _____ _____    ______ ____
ROOT
ATOM      1  N   UNL     1       1.235   8.805  19.761  0.00  0.00    +0.000 N 
ATOM      2  C   UNL     1       1.194   8.469  21.117  0.00  0.00    +0.000 A 
ATOM      3  C   UNL     1       1.139   7.086  21.121  0.00  0.00    +0.000 A 
ATOM      4  C   UNL     1       2.114   6.835  20.112  0.00  0.00    +0.000 A 
ATOM      5  C   UNL     1       3.224   5.993  20.013  0.00  0.00    +0.000 A 
ATOM      6  C   UNL     1       3.857   5.876  18.787  0.00  0.00    +0.000 A 
ATOM      7  C   UNL     1       3.281   6.467  17.645  0.00  0.00    +0.000 A 
ATOM      8  C   UNL     1       2.268   7.451  17.772  0.00  0.00    +0.000 A 
ATOM      9  C   UNL     1       1.847   7.751  19.079  0.00  0.00    +0.000 A 
ENDROOT
BRANCH   1  10
ATOM     10  S   UNL     1       1.139  10.453  19.314  0.00  0.00    +0.000 S 
ATOM     11  O   UNL     1       2.068  10.563  18.201  0.00  0.00    +0.000 OA
ATOM     12  O   UNL     1       1.301  11.221  20.531  0.00  0.00    +0.000 OA
BRANCH  10  17
ATOM     13  C   UNL     1      -4.524  11.270  17.153  0.00  0.00    +0.000 C 
ATOM     14  C   UNL     1      -3.143  11.076  17.710  0.00  0.00    +0.000 A 
ATOM     15  C   UNL     1      -2.666  11.866  18.762  0.00  0.00    +0.000 A 
ATOM     16  C   UNL     1      -1.352  11.708  19.247  0.00  0.00    +0.000 A 
ATOM     17  C   UNL     1      -0.517  10.740  18.660  0.00  0.00    +0.000 A 
ATOM     18  C   UNL     1      -0.979   9.940  17.619  0.00  0.00    +0.000 A 
ATOM     19  C   UNL     1      -2.289  10.109  17.150  0.00  0.00    +0.000 A 
ENDBRANCH  10  17
ENDBRANCH   1  10
BRANCH   6  20
ATOM     20  C   UNL     1       5.185   5.181  18.795  0.00  0.00    +0.000 C 
ATOM     21  O   UNL     1       6.104   5.548  19.513  0.00  0.00    +0.000 OA
BRANCH  20  22
ATOM     22  O   UNL     1       5.233   4.188  17.834  0.00  0.00    +0.000 OA
BRANCH  22  23
ATOM     23  C   UNL     1       5.888   4.384  16.600  0.00  0.00    +0.000 A 
ATOM     24  C   UNL     1       6.894   5.346  16.578  0.00  0.00    +0.000 A 
ATOM     25  N   UNL     1       7.576   5.706  15.464  0.00  0.00    +0.000 NA
ATOM     26  C   UNL     1       7.225   5.073  14.318  0.00  0.00    +0.000 A 
ATOM     27  C   UNL     1       6.240   4.098  14.245  0.00  0.00    +0.000 A 
ATOM     28 CL   UNL     1       5.860   3.351  12.745  0.00  0.00    +0.000 Cl
ATOM     29  C   UNL     1       5.553   3.748  15.406  0.00  0.00    +0.000 A 
ENDBRANCH  22  23
ENDBRANCH  20  22
ENDBRANCH   6  20
TORSDOF 5
ENDMDL
MODEL 4
REMARK VINA RESULT:      -8.6      1.927      2.536
REMARK  Name = 
REMARK  6 active torsions:
REMARK  status: ('A' for Active; 'I' for Inactive)
REMARK    1  A    between atoms: C_1  and  C_2
REMARK    2  A    between atoms: C_5  and  S_6
REMARK    3  A    between atoms: S_6  and  N_9
REMARK    4  A    between atoms: C_14  and  C_15
REMARK    5  A    between atoms: C_15  and  O_17
REMARK    6  A    between atoms: O_17  and  C_18
REMARK                            x       y       z     vdW  Elec       q    Type
REMARK                         _______ _______ _______ _____ _____    ______ ____
ROOT
ATOM      1  N   UNL     1       1.223   9.435  19.242  0.00  0.00    +0.000 N 
ATOM      2  C   UNL     1       1.585   9.754  17.930  0.00  0.00    +0.000 A 
ATOM      3  C   UNL     1       2.776   9.077  17.733  0.00  0.00    +0.000 A 
ATOM      4  C   UNL     1       2.417   7.840  18.343  0.00  0.00    +0.000 A 
ATOM      5  C   UNL     1       2.519   6.498  17.965  0.00  0.00    +0.000 A 
ATOM      6  C   UNL     1       2.222   5.524  18.904  0.00  0.00    +0.000 A 
ATOM      7  C   UNL     1       1.990   5.894  20.244  0.00  0.00    +0.000 A 
ATOM      8  C   UNL     1       1.717   7.243  20.587  0.00  0.00    +0.000 A 
ATOM      9  C   UNL     1       1.748   8.174  19.534  0.00  0.00    +0.000 A 
ENDROOT
BRANCH   1  10
ATOM     10  S   UNL     1      -0.127  10.216  19.941  0.00  0.00    +0.000 S 
ATOM     11  O   UNL     1      -0.030   9.880  21.352  0.00  0.00    +0.000 OA
ATOM     12  O   UNL     1      -1.277   9.849  19.140  0.00  0.00    +0.000 OA
BRANCH  10  17
ATOM     13  C   UNL     1       0.941  16.212  19.382  0.00  0.00    +0.000 C 
ATOM     14  C   UNL     1       0.674  14.739  19.491  0.00  0.00    +0.000 A 
ATOM     15  C   UNL     1      -0.290  14.114  18.691  0.00  0.00    +0.000 A 
ATOM     16  C   UNL     1      -0.566  12.739  18.833  0.00  0.00    +0.000 A 
ATOM     17  C   UNL     1       0.141  11.994  19.794  0.00  0.00    +0.000 A 
ATOM     18  C   UNL     1       1.108  12.598  20.591  0.00  0.00    +0.000 A 
ATOM     19  C   UNL     1       1.373  13.965  20.436  0.00  0.00    +0.000 A 
ENDBRANCH  10  17
ENDBRANCH   1  10
BRANCH   6  20
ATOM     20  C   UNL     1       2.088   4.126  18.382  0.00  0.00    +0.000 C 
ATOM     21  O   UNL     1       1.046   3.716  17.890  0.00  0.00    +0.000 OA
BRANCH  20  22
ATOM     22  O   UNL     1       3.229   3.387  18.637  0.00  0.00    +0.000 OA
BRANCH  22  23
ATOM     23  C   UNL     1       4.473   3.726  18.065  0.00  0.00    +0.000 A 
ATOM     24  C   UNL     1       5.455   4.180  18.940  0.00  0.00    +0.000 A 
ATOM     25  N   UNL     1       6.680   4.608  18.550  0.00  0.00    +0.000 NA
ATOM     26  C   UNL     1       6.925   4.586  17.218  0.00  0.00    +0.000 A 
ATOM     27  C   UNL     1       6.010   4.146  16.271  0.00  0.00    +0.000 A 
ATOM     28 CL   UNL     1       6.407   4.156  14.600  0.00  0.00    +0.000 Cl
ATOM     29  C   UNL     1       4.757   3.711  16.700  0.00  0.00    +0.000 A 
ENDBRANCH  22  23
ENDBRANCH  20  22
ENDBRANCH   6  20
TORSDOF 5
ENDMDL
MODEL 5
REMARK VINA RESULT:      -8.6      2.110      3.025
REMARK  Name = 
REMARK  6 active torsions:
REMARK  status: ('A' for Active; 'I' for Inactive)
REMARK    1  A    between atoms: C_1  and  C_2
REMARK    2  A    between atoms: C_5  and  S_6
REMARK    3  A    between atoms: S_6  and  N_9
REMARK    4  A    between atoms: C_14  and  C_15
REMARK    5  A    between atoms: C_15  and  O_17
REMARK    6  A    between atoms: O_17  and  C_18
REMARK                            x       y       z     vdW  Elec       q    Type
REMARK                         _______ _______ _______ _____ _____    ______ ____
ROOT
ATOM      1  N   UNL     1       1.038   9.539  19.402  0.00  0.00    +0.000 N 
ATOM      2  C   UNL     1       1.229   9.956  18.082  0.00  0.00    +0.000 A 
ATOM      3  C   UNL     1       2.445   9.400  17.724  0.00  0.00    +0.000 A 
ATOM      4  C   UNL     1       2.258   8.106  18.291  0.00  0.00    +0.000 A 
ATOM      5  C   UNL     1       2.431   6.800  17.824  0.00  0.00    +0.000 A 
ATOM      6  C   UNL     1       2.319   5.756  18.727  0.00  0.00    +0.000 A 
ATOM      7  C   UNL     1       2.201   6.034  20.103  0.00  0.00    +0.000 A 
ATOM      8  C   UNL     1       1.855   7.334  20.553  0.00  0.00    +0.000 A 
ATOM      9  C   UNL     1       1.695   8.316  19.561  0.00  0.00    +0.000 A 
ENDROOT
BRANCH   1  10
ATOM     10  S   UNL     1      -0.291  10.159  20.281  0.00  0.00    +0.000 S 
ATOM     11  O   UNL     1      -0.399   9.264  21.421  0.00  0.00    +0.000 OA
ATOM     12  O   UNL     1      -1.371  10.330  19.331  0.00  0.00    +0.000 OA
BRANCH  10  17
ATOM     13  C   UNL     1       1.315  15.714  22.272  0.00  0.00    +0.000 C 
ATOM     14  C   UNL     1       0.893  14.358  21.785  0.00  0.00    +0.000 A 
ATOM     15  C   UNL     1      -0.287  13.757  22.239  0.00  0.00    +0.000 A 
ATOM     16  C   UNL     1      -0.651  12.464  21.810  0.00  0.00    +0.000 A 
ATOM     17  C   UNL     1       0.189  11.778  20.915  0.00  0.00    +0.000 A 
ATOM     18  C   UNL     1       1.360  12.365  20.447  0.00  0.00    +0.000 A 
ATOM     19  C   UNL     1       1.707  13.651  20.881  0.00  0.00    +0.000 A 
ENDBRANCH  10  17
ENDBRANCH   1  10
BRANCH   6  20
ATOM     20  C   UNL     1       2.247   4.380  18.137  0.00  0.00    +0.000 C 
ATOM     21  O   UNL     1       1.264   3.988  17.526  0.00  0.00    +0.000 OA
BRANCH  20  22
ATOM     22  O   UNL     1       3.362   3.634  18.476  0.00  0.00    +0.000 OA
BRANCH  22  23
ATOM     23  C   UNL     1       4.625   3.890  17.903  0.00  0.00    +0.000 A 
ATOM     24  C   UNL     1       5.642   4.255  18.780  0.00  0.00    +0.000 A 
ATOM     25  N   UNL     1       6.894   4.598  18.391  0.00  0.00    +0.000 NA
ATOM     26  C   UNL     1       7.131   4.579  17.057  0.00  0.00    +0.000 A 
ATOM     27  C   UNL     1       6.181   4.223  16.108  0.00  0.00    +0.000 A 
ATOM     28 CL   UNL     1       6.572   4.230  14.436  0.00  0.00    +0.000 Cl
ATOM     29  C   UNL     1       4.902   3.876  16.537  0.00  0.00    +0.000 A 
ENDBRANCH  22  23
ENDBRANCH  20  22
ENDBRANCH   6  20
TORSDOF 5
ENDMDL
MODEL 6
REMARK VINA RESULT:      -8.4      3.228      4.449
REMARK  Name = 
REMARK  6 active torsions:
REMARK  status: ('A' for Active; 'I' for Inactive)
REMARK    1  A    between atoms: C_1  and  C_2
REMARK    2  A    between atoms: C_5  and  S_6
REMARK    3  A    between atoms: S_6  and  N_9
REMARK    4  A    between atoms: C_14  and  C_15
REMARK    5  A    between atoms: C_15  and  O_17
REMARK    6  A    between atoms: O_17  and  C_18
REMARK                            x       y       z     vdW  Elec       q    Type
REMARK                         _______ _______ _______ _____ _____    ______ ____
ROOT
ATOM      1  N   UNL     1       0.711  10.550  20.741  0.00  0.00    +0.000 N 
ATOM      2  C   UNL     1       0.961   9.886  21.945  0.00  0.00    +0.000 A 
ATOM      3  C   UNL     1       0.647   8.565  21.674  0.00  0.00    +0.000 A 
ATOM      4  C   UNL     1       1.260   8.463  20.391  0.00  0.00    +0.000 A 
ATOM      5  C   UNL     1       2.126   7.545  19.792  0.00  0.00    +0.000 A 
ATOM      6  C   UNL     1       2.386   7.669  18.438  0.00  0.00    +0.000 A 
ATOM      7  C   UNL     1       1.656   8.599  17.670  0.00  0.00    +0.000 A 
ATOM      8  C   UNL     1       0.916   9.634  18.296  0.00  0.00    +0.000 A 
ATOM      9  C   UNL     1       0.914   9.638  19.702  0.00  0.00    +0.000 A 
ENDROOT
BRANCH   1  10
ATOM     10  S   UNL     1       0.818  12.256  20.700  0.00  0.00    +0.000 S 
ATOM     11  O   UNL     1       0.384  12.597  19.356  0.00  0.00    +0.000 OA
ATOM     12  O   UNL     1       2.136  12.599  21.195  0.00  0.00    +0.000 OA
BRANCH  10  17
ATOM     13  C   UNL     1      -3.335  14.322  24.685  0.00  0.00    +0.000 C 
ATOM     14  C   UNL     1      -2.295  13.828  23.722  0.00  0.00    +0.000 A 
ATOM     15  C   UNL     1      -1.176  14.604  23.400  0.00  0.00    +0.000 A 
ATOM     16  C   UNL     1      -0.229  14.152  22.459  0.00  0.00    +0.000 A 
ATOM     17  C   UNL     1      -0.419  12.902  21.842  0.00  0.00    +0.000 A 
ATOM     18  C   UNL     1      -1.521  12.114  22.158  0.00  0.00    +0.000 A 
ATOM     19  C   UNL     1      -2.453  12.578  23.097  0.00  0.00    +0.000 A 
ENDBRANCH  10  17
ENDBRANCH   1  10
BRANCH   6  20
ATOM     20  C   UNL     1       3.513   6.838  17.904  0.00  0.00    +0.000 C 
ATOM     21  O   UNL     1       4.591   7.328  17.599  0.00  0.00    +0.000 OA
BRANCH  20  22
ATOM     22  O   UNL     1       3.119   5.525  17.718  0.00  0.00    +0.000 OA
BRANCH  22  23
ATOM     23  C   UNL     1       3.321   4.545  18.711  0.00  0.00    +0.000 A 
ATOM     24  C   UNL     1       4.566   3.921  18.723  0.00  0.00    +0.000 A 
ATOM     25  N   UNL     1       4.902   2.914  19.565  0.00  0.00    +0.000 NA
ATOM     26  C   UNL     1       3.940   2.512  20.430  0.00  0.00    +0.000 A 
ATOM     27  C   UNL     1       2.673   3.077  20.494  0.00  0.00    +0.000 A 
ATOM     28 CL   UNL     1       1.514   2.499  21.622  0.00  0.00    +0.000 Cl
ATOM     29  C   UNL     1       2.354   4.110  19.615  0.00  0.00    +0.000 A 
ENDBRANCH  22  23
ENDBRANCH  20  22
ENDBRANCH   6  20
TORSDOF 5
ENDMDL
MODEL 7
REMARK VINA RESULT:      -8.4      3.505      8.753
REMARK  Name = 
REMARK  6 active torsions:
REMARK  status: ('A' for Active; 'I' for Inactive)
REMARK    1  A    between atoms: C_1  and  C_2
REMARK    2  A    between atoms: C_5  and  S_6
REMARK    3  A    between atoms: S_6  and  N_9
REMARK    4  A    between atoms: C_14  and  C_15
REMARK    5  A    between atoms: C_15  and  O_17
REMARK    6  A    between atoms: O_17  and  C_18
REMARK                            x       y       z     vdW  Elec       q    Type
REMARK                         _______ _______ _______ _____ _____    ______ ____
ROOT
ATOM      1  N   UNL     1       2.340   6.044  19.356  0.00  0.00    +0.000 N 
ATOM      2  C   UNL     1       1.856   5.891  20.658  0.00  0.00    +0.000 A 
ATOM      3  C   UNL     1       2.126   7.105  21.264  0.00  0.00    +0.000 A 
ATOM      4  C   UNL     1       1.725   7.964  20.200  0.00  0.00    +0.000 A 
ATOM      5  C   UNL     1       0.912   9.098  20.111  0.00  0.00    +0.000 A 
ATOM      6  C   UNL     1       0.886   9.799  18.917  0.00  0.00    +0.000 A 
ATOM      7  C   UNL     1       1.787   9.461  17.889  0.00  0.00    +0.000 A 
ATOM      8  C   UNL     1       2.479   8.222  17.910  0.00  0.00    +0.000 A 
ATOM      9  C   UNL     1       2.252   7.399  19.026  0.00  0.00    +0.000 A 
ENDROOT
BRANCH   1  10
ATOM     10  S   UNL     1       2.348   4.690  18.312  0.00  0.00    +0.000 S 
ATOM     11  O   UNL     1       1.212   4.921  17.436  0.00  0.00    +0.000 OA
ATOM     12  O   UNL     1       2.442   3.517  19.158  0.00  0.00    +0.000 OA
BRANCH  10  17
ATOM     13  C   UNL     1       7.304   5.002  14.743  0.00  0.00    +0.000 C 
ATOM     14  C   UNL     1       6.079   4.950  15.608  0.00  0.00    +0.000 A 
ATOM     15  C   UNL     1       5.524   6.114  16.153  0.00  0.00    +0.000 A 
ATOM     16  C   UNL     1       4.401   6.051  17.002  0.00  0.00    +0.000 A 
ATOM     17  C   UNL     1       3.837   4.798  17.299  0.00  0.00    +0.000 A 
ATOM     18  C   UNL     1       4.370   3.632  16.759  0.00  0.00    +0.000 A 
ATOM     19  C   UNL     1       5.486   3.712  15.915  0.00  0.00    +0.000 A 
ENDBRANCH  10  17
ENDBRANCH   1  10
BRANCH   6  20
ATOM     20  C   UNL     1      -0.189  10.835  18.786  0.00  0.00    +0.000 C 
ATOM     21  O   UNL     1       0.065  12.030  18.736  0.00  0.00    +0.000 OA
BRANCH  20  22
ATOM     22  O   UNL     1      -1.446  10.260  18.843  0.00  0.00    +0.000 OA
BRANCH  22  23
ATOM     23  C   UNL     1      -2.411  10.492  17.842  0.00  0.00    +0.000 A 
ATOM     24  C   UNL     1      -2.155   9.937  16.591  0.00  0.00    +0.000 A 
ATOM     25  N   UNL     1      -2.943  10.118  15.504  0.00  0.00    +0.000 NA
ATOM     26  C   UNL     1      -4.036  10.899  15.682  0.00  0.00    +0.000 A 
ATOM     27  C   UNL     1      -4.375  11.489  16.892  0.00  0.00    +0.000 A 
ATOM     28 CL   UNL     1      -5.781  12.468  17.023  0.00  0.00    +0.000 Cl
ATOM     29  C   UNL     1      -3.546  11.287  17.993  0.00  0.00    +0.000 A 
ENDBRANCH  22  23
ENDBRANCH  20  22
ENDBRANCH   6  20
TORSDOF 5
ENDMDL
MODEL 8
REMARK VINA RESULT:      -8.4      2.329      3.229
REMARK  Name = 
REMARK  6 active torsions:
REMARK  status: ('A' for Active; 'I' for Inactive)
REMARK    1  A    between atoms: C_1  and  C_2
REMARK    2  A    between atoms: C_5  and  S_6
REMARK    3  A    between atoms: S_6  and  N_9
REMARK    4  A    between atoms: C_14  and  C_15
REMARK    5  A    between atoms: C_15  and  O_17
REMARK    6  A    between atoms: O_17  and  C_18
REMARK                            x       y       z     vdW  Elec       q    Type
REMARK                         _______ _______ _______ _____ _____    ______ ____
ROOT
ATOM      1  N   UNL     1       1.051   9.355  19.404  0.00  0.00    +0.000 N 
ATOM      2  C   UNL     1       1.263   9.771  18.087  0.00  0.00    +0.000 A 
ATOM      3  C   UNL     1       2.482   9.211  17.747  0.00  0.00    +0.000 A 
ATOM      4  C   UNL     1       2.283   7.917  18.311  0.00  0.00    +0.000 A 
ATOM      5  C   UNL     1       2.458   6.611  17.848  0.00  0.00    +0.000 A 
ATOM      6  C   UNL     1       2.329   5.568  18.750  0.00  0.00    +0.000 A 
ATOM      7  C   UNL     1       2.191   5.846  20.124  0.00  0.00    +0.000 A 
ATOM      8  C   UNL     1       1.843   7.148  20.568  0.00  0.00    +0.000 A 
ATOM      9  C   UNL     1       1.701   8.130  19.573  0.00  0.00    +0.000 A 
ENDROOT
BRANCH   1  10
ATOM     10  S   UNL     1      -0.289   9.980  20.263  0.00  0.00    +0.000 S 
ATOM     11  O   UNL     1      -0.404   9.099  21.412  0.00  0.00    +0.000 OA
ATOM     12  O   UNL     1      -1.360  10.135  19.300  0.00  0.00    +0.000 OA
BRANCH  10  17
ATOM     13  C   UNL     1       1.263  15.569  22.202  0.00  0.00    +0.000 C 
ATOM     14  C   UNL     1       0.855  14.204  21.729  0.00  0.00    +0.000 A 
ATOM     15  C   UNL     1      -0.283  13.569  22.239  0.00  0.00    +0.000 A 
ATOM     16  C   UNL     1      -0.633  12.268  21.822  0.00  0.00    +0.000 A 
ATOM     17  C   UNL     1       0.178  11.609  20.881  0.00  0.00    +0.000 A 
ATOM     18  C   UNL     1       1.307  12.231  20.357  0.00  0.00    +0.000 A 
ATOM     19  C   UNL     1       1.640  13.524  20.780  0.00  0.00    +0.000 A 
ENDBRANCH  10  17
ENDBRANCH   1  10
BRANCH   6  20
ATOM     20  C   UNL     1       2.261   4.192  18.159  0.00  0.00    +0.000 C 
ATOM     21  O   UNL     1       1.244   3.761  17.635  0.00  0.00    +0.000 OA
BRANCH  20  22
ATOM     22  O   UNL     1       3.431   3.491  18.393  0.00  0.00    +0.000 OA
BRANCH  22  23
ATOM     23  C   UNL     1       4.682   3.976  17.962  0.00  0.00    +0.000 A 
ATOM     24  C   UNL     1       5.018   3.733  16.633  0.00  0.00    +0.000 A 
ATOM     25  N   UNL     1       6.205   4.072  16.075  0.00  0.00    +0.000 NA
ATOM     26  C   UNL     1       7.099   4.676  16.895  0.00  0.00    +0.000 A 
ATOM     27  C   UNL     1       6.852   4.964  18.230  0.00  0.00    +0.000 A 
ATOM     28 CL   UNL     1       8.048   5.731  19.195  0.00  0.00    +0.000 Cl
ATOM     29  C   UNL     1       5.622   4.603  18.778  0.00  0.00    +0.000 A 
ENDBRANCH  22  23
ENDBRANCH  20  22
ENDBRANCH   6  20
TORSDOF 5
ENDMDL
MODEL 9
REMARK VINA RESULT:      -8.4      5.704      9.448
REMARK  Name = 
REMARK  6 active torsions:
REMARK  status: ('A' for Active; 'I' for Inactive)
REMARK    1  A    between atoms: C_1  and  C_2
REMARK    2  A    between atoms: C_5  and  S_6
REMARK    3  A    between atoms: S_6  and  N_9
REMARK    4  A    between atoms: C_14  and  C_15
REMARK    5  A    between atoms: C_15  and  O_17
REMARK    6  A    between atoms: O_17  and  C_18
REMARK                            x       y       z     vdW  Elec       q    Type
REMARK                         _______ _______ _______ _____ _____    ______ ____
ROOT
ATOM      1  N   UNL     1       0.269  10.520  21.168  0.00  0.00    +0.000 N 
ATOM      2  C   UNL     1      -0.090   9.315  21.779  0.00  0.00    +0.000 A 
ATOM      3  C   UNL     1      -0.252   9.647  23.113  0.00  0.00    +0.000 A 
ATOM      4  C   UNL     1      -0.963  10.870  22.940  0.00  0.00    +0.000 A 
ATOM      5  C   UNL     1      -2.127  11.411  23.492  0.00  0.00    +0.000 A 
ATOM      6  C   UNL     1      -2.436  12.732  23.216  0.00  0.00    +0.000 A 
ATOM      7  C   UNL     1      -1.504  13.540  22.535  0.00  0.00    +0.000 A 
ATOM      8  C   UNL     1      -0.417  12.957  21.833  0.00  0.00    +0.000 A 
ATOM      9  C   UNL     1      -0.304  11.558  21.906  0.00  0.00    +0.000 A 
ENDROOT
BRANCH   1  10
ATOM     10  S   UNL     1       0.727  10.507  19.521  0.00  0.00    +0.000 S 
ATOM     11  O   UNL     1       1.269   9.173  19.324  0.00  0.00    +0.000 OA
ATOM     12  O   UNL     1       1.519  11.700  19.303  0.00  0.00    +0.000 OA
BRANCH  10  17
ATOM     13  C   UNL     1      -4.337  11.051  16.135  0.00  0.00    +0.000 C 
ATOM     14  C   UNL     1      -3.080  10.909  16.943  0.00  0.00    +0.000 A 
ATOM     15  C   UNL     1      -2.142   9.910  16.658  0.00  0.00    +0.000 A 
ATOM     16  C   UNL     1      -0.986   9.755  17.451  0.00  0.00    +0.000 A 
ATOM     17  C   UNL     1      -0.782  10.622  18.540  0.00  0.00    +0.000 A 
ATOM     18  C   UNL     1      -1.700  11.626  18.831  0.00  0.00    +0.000 A 
ATOM     19  C   UNL     1      -2.843  11.768  18.032  0.00  0.00    +0.000 A 
ENDBRANCH  10  17
ENDBRANCH   1  10
BRANCH   6  20
ATOM     20  C   UNL     1      -3.812  13.181  23.604  0.00  0.00    +0.000 C 
ATOM     21  O   UNL     1      -4.244  13.039  24.739  0.00  0.00    +0.000 OA
BRANCH  20  22
ATOM     22  O   UNL     1      -4.511  13.651  22.507  0.00  0.00    +0.000 OA
BRANCH  22  23
ATOM     23  C   UNL     1      -5.568  12.914  21.933  0.00  0.00    +0.000 A 
ATOM     24  C   UNL     1      -6.734  12.810  22.687  0.00  0.00    +0.000 A 
ATOM     25  N   UNL     1      -7.817  12.086  22.315  0.00  0.00    +0.000 NA
ATOM     26  C   UNL     1      -7.720  11.432  21.132  0.00  0.00    +0.000 A 
ATOM     27  C   UNL     1      -6.602  11.481  20.310  0.00  0.00    +0.000 A 
ATOM     28 CL   UNL     1      -6.569  10.615  18.827  0.00  0.00    +0.000 Cl
ATOM     29  C   UNL     1      -5.502  12.233  20.719  0.00  0.00    +0.000 A 
ENDBRANCH  22  23
ENDBRANCH  20  22
ENDBRANCH   6  20
TORSDOF 5
ENDMDL
