MODEL 1
REMARK VINA RESULT:      -8.4      0.000      0.000
REMARK  Name = 
REMARK  1 active torsions:
REMARK  status: ('A' for Active; 'I' for Inactive)
REMARK    1  A    between atoms: C_2  and  C_3
REMARK                            x       y       z     vdW  Elec       q    Type
REMARK                         _______ _______ _______ _____ _____    ______ ____
ROOT
ATOM      1  O   UNL     1       0.908   8.251  21.361  0.00  0.00    +0.000 OA
ATOM      2  C   UNL     1       1.239   8.666  20.241  0.00  0.00    +0.000 C 
ATOM      3  N   UNL     1       2.106   7.929  19.435  0.00  0.00    +0.000 N 
ATOM      4  C   UNL     1       2.659   8.461  18.207  0.00  0.00    +0.000 C 
ATOM      5  C   UNL     1       3.752   7.711  17.467  0.00  0.00    +0.000 C 
ATOM      6  C   UNL     1       3.517   6.212  17.395  0.00  0.00    +0.000 C 
ATOM      7  C   UNL     1       2.324   5.814  18.247  0.00  0.00    +0.000 C 
ATOM      8  C   UNL     1       2.163   4.379  18.590  0.00  0.00    +0.000 A 
ATOM      9  C   UNL     1       2.362   3.280  17.773  0.00  0.00    +0.000 A 
ATOM     10  C   UNL     1       2.020   2.027  18.271  0.00  0.00    +0.000 A 
ATOM     11  C   UNL     1       1.479   1.899  19.560  0.00  0.00    +0.000 A 
ATOM     12  C   UNL     1       1.278   3.020  20.375  0.00  0.00    +0.000 A 
ATOM     13  C   UNL     1       1.630   4.261  19.879  0.00  0.00    +0.000 A 
ATOM     14  C   UNL     1       1.447   5.618  20.517  0.00  0.00    +0.000 C 
ATOM     15  C   UNL     1       2.381   6.496  19.644  0.00  0.00    +0.000 C 
ENDROOT
BRANCH   2  16
ATOM     16  C   UNL     1       0.621   9.987  19.737  0.00  0.00    +0.000 A 
ATOM     17  C   UNL     1      -0.488  10.156  18.784  0.00  0.00    +0.000 A 
ATOM     18  C   UNL     1      -1.001  11.340  18.426  0.00  0.00    +0.000 A 
ATOM     19  C   UNL     1      -0.482  12.512  18.992  0.00  0.00    +0.000 A 
ATOM     20  N   UNL     1      -0.822  13.763  18.809  0.00  0.00    +0.000 NA
ATOM     21  C   UNL     1      -0.011  14.472  19.633  0.00  0.00    +0.000 A 
ATOM     22  C   UNL     1       0.849  13.641  20.322  0.00  0.00    +0.000 A 
ATOM     23  N   UNL     1       0.552  12.369  19.906  0.00  0.00    +0.000 N 
ATOM     24  C   UNL     1       1.100  11.137  20.275  0.00  0.00    +0.000 A 
ENDBRANCH   2  16
TORSDOF 1
ENDMDL
MODEL 2
REMARK VINA RESULT:      -8.1      2.409      4.026
REMARK  Name = 
REMARK  1 active torsions:
REMARK  status: ('A' for Active; 'I' for Inactive)
REMARK    1  A    between atoms: C_2  and  C_3
REMARK                            x       y       z     vdW  Elec       q    Type
REMARK                         _______ _______ _______ _____ _____    ______ ____
ROOT
ATOM      1  O   UNL     1       1.727   8.960  18.212  0.00  0.00    +0.000 OA
ATOM      2  C   UNL     1       1.549   8.318  19.257  0.00  0.00    +0.000 C 
ATOM      3  N   UNL     1       1.990   7.000  19.368  0.00  0.00    +0.000 N 
ATOM      4  C   UNL     1       1.641   6.161  20.495  0.00  0.00    +0.000 C 
ATOM      5  C   UNL     1       1.969   4.679  20.482  0.00  0.00    +0.000 C 
ATOM      6  C   UNL     1       3.351   4.367  19.932  0.00  0.00    +0.000 C 
ATOM      7  C   UNL     1       3.996   5.618  19.362  0.00  0.00    +0.000 C 
ATOM      8  C   UNL     1       5.170   5.449  18.469  0.00  0.00    +0.000 A 
ATOM      9  C   UNL     1       6.229   4.571  18.612  0.00  0.00    +0.000 A 
ATOM     10  C   UNL     1       7.291   4.680  17.720  0.00  0.00    +0.000 A 
ATOM     11  C   UNL     1       7.279   5.663  16.719  0.00  0.00    +0.000 A 
ATOM     12  C   UNL     1       6.203   6.550  16.589  0.00  0.00    +0.000 A 
ATOM     13  C   UNL     1       5.145   6.430  17.471  0.00  0.00    +0.000 A 
ATOM     14  C   UNL     1       3.915   7.297  17.592  0.00  0.00    +0.000 C 
ATOM     15  C   UNL     1       2.997   6.406  18.469  0.00  0.00    +0.000 C 
ENDROOT
BRANCH   2  16
ATOM     16  C   UNL     1       0.883   9.032  20.452  0.00  0.00    +0.000 A 
ATOM     17  C   UNL     1       1.119   8.798  21.886  0.00  0.00    +0.000 A 
ATOM     18  C   UNL     1       0.532   9.492  22.869  0.00  0.00    +0.000 A 
ATOM     19  C   UNL     1      -0.355  10.526  22.545  0.00  0.00    +0.000 A 
ATOM     20  N   UNL     1      -1.030  11.338  23.320  0.00  0.00    +0.000 NA
ATOM     21  C   UNL     1      -1.701  12.157  22.472  0.00  0.00    +0.000 A 
ATOM     22  C   UNL     1      -1.442  11.833  21.156  0.00  0.00    +0.000 A 
ATOM     23  N   UNL     1      -0.574  10.772  21.197  0.00  0.00    +0.000 N 
ATOM     24  C   UNL     1       0.026  10.044  20.165  0.00  0.00    +0.000 A 
ENDBRANCH   2  16
TORSDOF 1
ENDMDL
MODEL 3
REMARK VINA RESULT:      -8.0      3.618      5.571
REMARK  Name = 
REMARK  1 active torsions:
REMARK  status: ('A' for Active; 'I' for Inactive)
REMARK    1  A    between atoms: C_2  and  C_3
REMARK                            x       y       z     vdW  Elec       q    Type
REMARK                         _______ _______ _______ _____ _____    ______ ____
ROOT
ATOM      1  O   UNL     1       2.635   4.335  17.420  0.00  0.00    +0.000 OA
ATOM      2  C   UNL     1       3.316   5.248  17.907  0.00  0.00    +0.000 C 
ATOM      3  N   UNL     1       4.689   5.317  17.670  0.00  0.00    +0.000 N 
ATOM      4  C   UNL     1       5.546   6.254  18.366  0.00  0.00    +0.000 C 
ATOM      5  C   UNL     1       7.056   6.162  18.231  0.00  0.00    +0.000 C 
ATOM      6  C   UNL     1       7.523   5.892  16.811  0.00  0.00    +0.000 C 
ATOM      7  C   UNL     1       6.340   5.601  15.903  0.00  0.00    +0.000 C 
ATOM      8  C   UNL     1       6.613   4.967  14.589  0.00  0.00    +0.000 A 
ATOM      9  C   UNL     1       7.643   5.244  13.707  0.00  0.00    +0.000 A 
ATOM     10  C   UNL     1       7.625   4.614  12.466  0.00  0.00    +0.000 A 
ATOM     11  C   UNL     1       6.581   3.738  12.129  0.00  0.00    +0.000 A 
ATOM     12  C   UNL     1       5.543   3.471  13.030  0.00  0.00    +0.000 A 
ATOM     13  C   UNL     1       5.571   4.090  14.265  0.00  0.00    +0.000 A 
ATOM     14  C   UNL     1       4.546   4.033  15.373  0.00  0.00    +0.000 C 
ATOM     15  C   UNL     1       5.356   4.599  16.569  0.00  0.00    +0.000 C 
ENDROOT
BRANCH   2  16
ATOM     16  C   UNL     1       2.600   6.339  18.731  0.00  0.00    +0.000 A 
ATOM     17  C   UNL     1       2.195   6.279  20.145  0.00  0.00    +0.000 A 
ATOM     18  C   UNL     1       1.613   7.288  20.805  0.00  0.00    +0.000 A 
ATOM     19  C   UNL     1       1.379   8.499  20.141  0.00  0.00    +0.000 A 
ATOM     20  N   UNL     1       0.843   9.613  20.573  0.00  0.00    +0.000 NA
ATOM     21  C   UNL     1       0.895  10.462  19.517  0.00  0.00    +0.000 A 
ATOM     22  C   UNL     1       1.461   9.853  18.415  0.00  0.00    +0.000 A 
ATOM     23  N   UNL     1       1.772   8.578  18.812  0.00  0.00    +0.000 N 
ATOM     24  C   UNL     1       2.368   7.524  18.113  0.00  0.00    +0.000 A 
ENDBRANCH   2  16
TORSDOF 1
ENDMDL
MODEL 4
REMARK VINA RESULT:      -7.6      3.573      5.413
REMARK  Name = 
REMARK  1 active torsions:
REMARK  status: ('A' for Active; 'I' for Inactive)
REMARK    1  A    between atoms: C_2  and  C_3
REMARK                            x       y       z     vdW  Elec       q    Type
REMARK                         _______ _______ _______ _____ _____    ______ ____
ROOT
ATOM      1  O   UNL     1       2.631   4.914  17.444  0.00  0.00    +0.000 OA
ATOM      2  C   UNL     1       3.329   5.890  17.755  0.00  0.00    +0.000 C 
ATOM      3  N   UNL     1       4.695   5.907  17.477  0.00  0.00    +0.000 N 
ATOM      4  C   UNL     1       5.573   6.941  17.984  0.00  0.00    +0.000 C 
ATOM      5  C   UNL     1       7.078   6.815  17.831  0.00  0.00    +0.000 C 
ATOM      6  C   UNL     1       7.509   6.307  16.466  0.00  0.00    +0.000 C 
ATOM      7  C   UNL     1       6.303   5.878  15.648  0.00  0.00    +0.000 C 
ATOM      8  C   UNL     1       6.541   5.030  14.453  0.00  0.00    +0.000 A 
ATOM      9  C   UNL     1       7.549   5.146  13.513  0.00  0.00    +0.000 A 
ATOM     10  C   UNL     1       7.497   4.318  12.396  0.00  0.00    +0.000 A 
ATOM     11  C   UNL     1       6.442   3.405  12.237  0.00  0.00    +0.000 A 
ATOM     12  C   UNL     1       5.426   3.302  13.194  0.00  0.00    +0.000 A 
ATOM     13  C   UNL     1       5.488   4.119  14.306  0.00  0.00    +0.000 A 
ATOM     14  C   UNL     1       4.490   4.257  15.433  0.00  0.00    +0.000 C 
ATOM     15  C   UNL     1       5.332   5.009  16.496  0.00  0.00    +0.000 C 
ENDROOT
BRANCH   2  16
ATOM     16  C   UNL     1       2.637   7.109  18.401  0.00  0.00    +0.000 A 
ATOM     17  C   UNL     1       2.210   8.355  17.743  0.00  0.00    +0.000 A 
ATOM     18  C   UNL     1       1.574   9.356  18.364  0.00  0.00    +0.000 A 
ATOM     19  C   UNL     1       1.262   9.232  19.724  0.00  0.00    +0.000 A 
ATOM     20  N   UNL     1       0.644  10.058  20.531  0.00  0.00    +0.000 NA
ATOM     21  C   UNL     1       0.592   9.413  21.723  0.00  0.00    +0.000 A 
ATOM     22  C   UNL     1       1.200   8.176  21.647  0.00  0.00    +0.000 A 
ATOM     23  N   UNL     1       1.641   8.055  20.355  0.00  0.00    +0.000 N 
ATOM     24  C   UNL     1       2.317   7.011  19.715  0.00  0.00    +0.000 A 
ENDBRANCH   2  16
TORSDOF 1
ENDMDL
MODEL 5
REMARK VINA RESULT:      -7.5      0.979      1.629
REMARK  Name = 
REMARK  1 active torsions:
REMARK  status: ('A' for Active; 'I' for Inactive)
REMARK    1  A    between atoms: C_2  and  C_3
REMARK                            x       y       z     vdW  Elec       q    Type
REMARK                         _______ _______ _______ _____ _____    ______ ____
ROOT
ATOM      1  O   UNL     1       1.099   7.877  21.795  0.00  0.00    +0.000 OA
ATOM      2  C   UNL     1       1.275   8.432  20.702  0.00  0.00    +0.000 C 
ATOM      3  N   UNL     1       2.081   7.847  19.727  0.00  0.00    +0.000 N 
ATOM      4  C   UNL     1       2.458   8.545  18.515  0.00  0.00    +0.000 C 
ATOM      5  C   UNL     1       3.498   7.955  17.579  0.00  0.00    +0.000 C 
ATOM      6  C   UNL     1       3.340   6.460  17.362  0.00  0.00    +0.000 C 
ATOM      7  C   UNL     1       2.278   5.892  18.287  0.00  0.00    +0.000 C 
ATOM      8  C   UNL     1       2.238   4.421  18.479  0.00  0.00    +0.000 A 
ATOM      9  C   UNL     1       2.402   3.433  17.524  0.00  0.00    +0.000 A 
ATOM     10  C   UNL     1       2.191   2.113  17.910  0.00  0.00    +0.000 A 
ATOM     11  C   UNL     1       1.812   1.809  19.227  0.00  0.00    +0.000 A 
ATOM     12  C   UNL     1       1.644   2.820  20.181  0.00  0.00    +0.000 A 
ATOM     13  C   UNL     1       1.866   4.128  19.796  0.00  0.00    +0.000 A 
ATOM     14  C   UNL     1       1.682   5.393  20.601  0.00  0.00    +0.000 C 
ATOM     15  C   UNL     1       2.459   6.421  19.738  0.00  0.00    +0.000 C 
ENDROOT
BRANCH   2  16
ATOM     16  C   UNL     1       0.529   9.754  20.422  0.00  0.00    +0.000 A 
ATOM     17  C   UNL     1       0.952  11.118  20.777  0.00  0.00    +0.000 A 
ATOM     18  C   UNL     1       0.269  12.226  20.461  0.00  0.00    +0.000 A 
ATOM     19  C   UNL     1      -0.920  12.113  19.729  0.00  0.00    +0.000 A 
ATOM     20  N   UNL     1      -1.741  13.038  19.299  0.00  0.00    +0.000 NA
ATOM     21  C   UNL     1      -2.705  12.366  18.622  0.00  0.00    +0.000 A 
ATOM     22  C   UNL     1      -2.477  11.005  18.649  0.00  0.00    +0.000 A 
ATOM     23  N   UNL     1      -1.323  10.835  19.370  0.00  0.00    +0.000 N 
ATOM     24  C   UNL     1      -0.621   9.673  19.707  0.00  0.00    +0.000 A 
ENDBRANCH   2  16
TORSDOF 1
ENDMDL
MODEL 6
REMARK VINA RESULT:      -7.4      2.078      3.631
REMARK  Name = 
REMARK  1 active torsions:
REMARK  status: ('A' for Active; 'I' for Inactive)
REMARK    1  A    between atoms: C_2  and  C_3
REMARK                            x       y       z     vdW  Elec       q    Type
REMARK                         _______ _______ _______ _____ _____    ______ ____
ROOT
ATOM      1  O   UNL     1       1.817   9.156  17.517  0.00  0.00    +0.000 OA
ATOM      2  C   UNL     1       1.624   8.730  18.664  0.00  0.00    +0.000 C 
ATOM      3  N   UNL     1       2.008   7.437  19.018  0.00  0.00    +0.000 N 
ATOM      4  C   UNL     1       1.638   6.841  20.285  0.00  0.00    +0.000 C 
ATOM      5  C   UNL     1       1.899   5.368  20.548  0.00  0.00    +0.000 C 
ATOM      6  C   UNL     1       3.258   4.896  20.060  0.00  0.00    +0.000 C 
ATOM      7  C   UNL     1       3.951   5.988  19.262  0.00  0.00    +0.000 C 
ATOM      8  C   UNL     1       5.104   5.601  18.412  0.00  0.00    +0.000 A 
ATOM      9  C   UNL     1       6.125   4.717  18.712  0.00  0.00    +0.000 A 
ATOM     10  C   UNL     1       7.178   4.608  17.810  0.00  0.00    +0.000 A 
ATOM     11  C   UNL     1       7.197   5.386  16.642  0.00  0.00    +0.000 A 
ATOM     12  C   UNL     1       6.159   6.281  16.353  0.00  0.00    +0.000 A 
ATOM     13  C   UNL     1       5.109   6.377  17.247  0.00  0.00    +0.000 A 
ATOM     14  C   UNL     1       3.920   7.308  17.209  0.00  0.00    +0.000 C 
ATOM     15  C   UNL     1       2.975   6.640  18.242  0.00  0.00    +0.000 C 
ENDROOT
BRANCH   2  16
ATOM     16  C   UNL     1       1.007   9.685  19.707  0.00  0.00    +0.000 A 
ATOM     17  C   UNL     1       0.224   9.329  20.902  0.00  0.00    +0.000 A 
ATOM     18  C   UNL     1      -0.244  10.217  21.788  0.00  0.00    +0.000 A 
ATOM     19  C   UNL     1       0.028  11.578  21.605  0.00  0.00    +0.000 A 
ATOM     20  N   UNL     1      -0.307  12.615  22.332  0.00  0.00    +0.000 NA
ATOM     21  C   UNL     1       0.248  13.680  21.704  0.00  0.00    +0.000 A 
ATOM     22  C   UNL     1       0.925  13.290  20.566  0.00  0.00    +0.000 A 
ATOM     23  N   UNL     1       0.781  11.929  20.494  0.00  0.00    +0.000 N 
ATOM     24  C   UNL     1       1.263  11.009  19.557  0.00  0.00    +0.000 A 
ENDBRANCH   2  16
TORSDOF 1
ENDMDL
MODEL 7
REMARK VINA RESULT:      -7.3      2.942      7.499
REMARK  Name = 
REMARK  1 active torsions:
REMARK  status: ('A' for Active; 'I' for Inactive)
REMARK    1  A    between atoms: C_2  and  C_3
REMARK                            x       y       z     vdW  Elec       q    Type
REMARK                         _______ _______ _______ _____ _____    ______ ____
ROOT
ATOM      1  O   UNL     1       2.249   5.413  20.114  0.00  0.00    +0.000 OA
ATOM      2  C   UNL     1       2.771   6.172  19.286  0.00  0.00    +0.000 C 
ATOM      3  N   UNL     1       2.148   7.364  18.919  0.00  0.00    +0.000 N 
ATOM      4  C   UNL     1       2.631   8.184  17.827  0.00  0.00    +0.000 C 
ATOM      5  C   UNL     1       1.812   9.361  17.328  0.00  0.00    +0.000 C 
ATOM      6  C   UNL     1       1.194  10.186  18.444  0.00  0.00    +0.000 C 
ATOM      7  C   UNL     1       1.406   9.514  19.790  0.00  0.00    +0.000 C 
ATOM      8  C   UNL     1       0.576   9.971  20.932  0.00  0.00    +0.000 A 
ATOM      9  C   UNL     1       0.224  11.266  21.266  0.00  0.00    +0.000 A 
ATOM     10  C   UNL     1      -0.454  11.470  22.463  0.00  0.00    +0.000 A 
ATOM     11  C   UNL     1      -0.755  10.386  23.302  0.00  0.00    +0.000 A 
ATOM     12  C   UNL     1      -0.389   9.080  22.955  0.00  0.00    +0.000 A 
ATOM     13  C   UNL     1       0.275   8.882  21.759  0.00  0.00    +0.000 A 
ATOM     14  C   UNL     1       0.840   7.599  21.194  0.00  0.00    +0.000 C 
ATOM     15  C   UNL     1       1.079   7.996  19.714  0.00  0.00    +0.000 C 
ENDROOT
BRANCH   2  16
ATOM     16  C   UNL     1       4.157   5.797  18.719  0.00  0.00    +0.000 A 
ATOM     17  C   UNL     1       5.412   5.603  19.463  0.00  0.00    +0.000 A 
ATOM     18  C   UNL     1       6.570   5.233  18.903  0.00  0.00    +0.000 A 
ATOM     19  C   UNL     1       6.620   4.989  17.525  0.00  0.00    +0.000 A 
ATOM     20  N   UNL     1       7.619   4.612  16.766  0.00  0.00    +0.000 NA
ATOM     21  C   UNL     1       7.093   4.500  15.521  0.00  0.00    +0.000 A 
ATOM     22  C   UNL     1       5.751   4.826  15.516  0.00  0.00    +0.000 A 
ATOM     23  N   UNL     1       5.441   5.149  16.811  0.00  0.00    +0.000 N 
ATOM     24  C   UNL     1       4.230   5.547  17.387  0.00  0.00    +0.000 A 
ENDBRANCH   2  16
TORSDOF 1
ENDMDL
MODEL 8
REMARK VINA RESULT:      -7.1      2.379      3.951
REMARK  Name = 
REMARK  1 active torsions:
REMARK  status: ('A' for Active; 'I' for Inactive)
REMARK    1  A    between atoms: C_2  and  C_3
REMARK                            x       y       z     vdW  Elec       q    Type
REMARK                         _______ _______ _______ _____ _____    ______ ____
ROOT
ATOM      1  O   UNL     1       1.961   9.064  17.319  0.00  0.00    +0.000 OA
ATOM      2  C   UNL     1       1.803   8.686  18.488  0.00  0.00    +0.000 C 
ATOM      3  N   UNL     1       2.184   7.403  18.880  0.00  0.00    +0.000 N 
ATOM      4  C   UNL     1       1.850   6.862  20.181  0.00  0.00    +0.000 C 
ATOM      5  C   UNL     1       2.104   5.398  20.493  0.00  0.00    +0.000 C 
ATOM      6  C   UNL     1       3.441   4.891  19.980  0.00  0.00    +0.000 C 
ATOM      7  C   UNL     1       4.118   5.941  19.117  0.00  0.00    +0.000 C 
ATOM      8  C   UNL     1       5.237   5.507  18.245  0.00  0.00    +0.000 A 
ATOM      9  C   UNL     1       6.258   4.623  18.545  0.00  0.00    +0.000 A 
ATOM     10  C   UNL     1       7.280   4.466  17.614  0.00  0.00    +0.000 A 
ATOM     11  C   UNL     1       7.268   5.198  16.417  0.00  0.00    +0.000 A 
ATOM     12  C   UNL     1       6.231   6.094  16.127  0.00  0.00    +0.000 A 
ATOM     13  C   UNL     1       5.213   6.237  17.050  0.00  0.00    +0.000 A 
ATOM     14  C   UNL     1       4.033   7.180  17.015  0.00  0.00    +0.000 C 
ATOM     15  C   UNL     1       3.116   6.564  18.104  0.00  0.00    +0.000 C 
ENDROOT
BRANCH   2  16
ATOM     16  C   UNL     1       1.231   9.689  19.512  0.00  0.00    +0.000 A 
ATOM     17  C   UNL     1       1.203  11.157  19.416  0.00  0.00    +0.000 A 
ATOM     18  C   UNL     1       0.647  11.962  20.330  0.00  0.00    +0.000 A 
ATOM     19  C   UNL     1       0.028  11.400  21.453  0.00  0.00    +0.000 A 
ATOM     20  N   UNL     1      -0.584  11.974  22.460  0.00  0.00    +0.000 NA
ATOM     21  C   UNL     1      -1.017  10.951  23.238  0.00  0.00    +0.000 A 
ATOM     22  C   UNL     1      -0.654   9.730  22.705  0.00  0.00    +0.000 A 
ATOM     23  N   UNL     1       0.029  10.016  21.550  0.00  0.00    +0.000 N 
ATOM     24  C   UNL     1       0.618   9.169  20.606  0.00  0.00    +0.000 A 
ENDBRANCH   2  16
TORSDOF 1
ENDMDL
MODEL 9
REMARK VINA RESULT:      -7.0      2.287      7.987
REMARK  Name = 
REMARK  1 active torsions:
REMARK  status: ('A' for Active; 'I' for Inactive)
REMARK    1  A    between atoms: C_2  and  C_3
REMARK                            x       y       z     vdW  Elec       q    Type
REMARK                         _______ _______ _______ _____ _____    ______ ____
ROOT
ATOM      1  O   UNL     1       3.036   8.199  17.811  0.00  0.00    +0.000 OA
ATOM      2  C   UNL     1       2.485   7.544  18.707  0.00  0.00    +0.000 C 
ATOM      3  N   UNL     1       1.874   8.183  19.785  0.00  0.00    +0.000 N 
ATOM      4  C   UNL     1       1.384   7.456  20.937  0.00  0.00    +0.000 C 
ATOM      5  C   UNL     1       0.913   8.200  22.174  0.00  0.00    +0.000 C 
ATOM      6  C   UNL     1       0.072   9.426  21.860  0.00  0.00    +0.000 C 
ATOM      7  C   UNL     1       0.063   9.704  20.367  0.00  0.00    +0.000 C 
ATOM      8  C   UNL     1      -0.392  11.041  19.912  0.00  0.00    +0.000 A 
ATOM      9  C   UNL     1      -1.454  11.788  20.390  0.00  0.00    +0.000 A 
ATOM     10  C   UNL     1      -1.779  12.963  19.719  0.00  0.00    +0.000 A 
ATOM     11  C   UNL     1      -1.050  13.359  18.586  0.00  0.00    +0.000 A 
ATOM     12  C   UNL     1       0.020  12.591  18.110  0.00  0.00    +0.000 A 
ATOM     13  C   UNL     1       0.345  11.431  18.787  0.00  0.00    +0.000 A 
ATOM     14  C   UNL     1       1.392  10.398  18.440  0.00  0.00    +0.000 C 
ATOM     15  C   UNL     1       1.496   9.608  19.771  0.00  0.00    +0.000 C 
ENDROOT
BRANCH   2  16
ATOM     16  C   UNL     1       2.437   6.008  18.567  0.00  0.00    +0.000 A 
ATOM     17  C   UNL     1       1.463   5.202  17.812  0.00  0.00    +0.000 A 
ATOM     18  C   UNL     1       1.512   3.869  17.702  0.00  0.00    +0.000 A 
ATOM     19  C   UNL     1       2.556   3.167  18.318  0.00  0.00    +0.000 A 
ATOM     20  N   UNL     1       2.817   1.884  18.340  0.00  0.00    +0.000 NA
ATOM     21  C   UNL     1       3.963   1.770  19.056  0.00  0.00    +0.000 A 
ATOM     22  C   UNL     1       4.404   3.004  19.490  0.00  0.00    +0.000 A 
ATOM     23  N   UNL     1       3.493   3.913  19.019  0.00  0.00    +0.000 N 
ATOM     24  C   UNL     1       3.441   5.305  19.148  0.00  0.00    +0.000 A 
ENDBRANCH   2  16
TORSDOF 1
ENDMDL
