MODEL 1
REMARK VINA RESULT:      -8.1      0.000      0.000
REMARK  Name = 
REMARK  12 active torsions:
REMARK  status: ('A' for Active; 'I' for Inactive)
REMARK    1  A    between atoms: C_1  and  C_2
REMARK    2  A    between atoms: C_2  and  C_3
REMARK    3  A    between atoms: C_2  and  C_4
REMARK    4  A    between atoms: C_4  and  C_5
REMARK    5  A    between atoms: C_5  and  C_6
REMARK    6  A    between atoms: C_6  and  C_7
REMARK    7  A    between atoms: C_7  and  O_8
REMARK    8  A    between atoms: C_10  and  C_11
REMARK    9  A    between atoms: C_11  and  N_12
REMARK   10  A    between atoms: N_16  and  C_17
REMARK   11  A    between atoms: C_17  and  C_18
REMARK   12  A    between atoms: C_21  and  C_22
REMARK                            x       y       z     vdW  Elec       q    Type
REMARK                         _______ _______ _______ _____ _____    ______ ____
ROOT
ATOM      1  C   UNL     1       5.325   5.376  17.436  0.00  0.00    +0.000 C 
ATOM      2  C   UNL     1       5.427   3.948  18.011  0.00  0.00    +0.000 C 
ATOM      3  C   UNL     1       4.041   3.640  18.570  0.00  0.00    +0.000 C 
ATOM      4  O   UNL     1       3.225   4.696  18.053  0.00  0.00    +0.000 OA
ATOM      5  N   UNL     1       4.098   5.863  18.131  0.00  0.00    +0.000 NA
ENDROOT
BRANCH   1   6
ATOM      6  C   UNL     1       5.165   5.321  15.859  0.00  0.00    +0.000 C 
BRANCH   6   8
ATOM      7  C   UNL     1       5.332   4.062  13.661  0.00  0.00    +0.000 C 
ATOM      8  C   UNL     1       6.033   4.350  15.000  0.00  0.00    +0.000 C 
ATOM      9  C   UNL     1       7.443   4.846  14.692  0.00  0.00    +0.000 C 
ENDBRANCH   6   8
ENDBRANCH   1   6
BRANCH   1  10
ATOM     10  C   UNL     1       6.540   6.242  17.848  0.00  0.00    +0.000 C 
BRANCH  10  11
ATOM     11  C   UNL     1       7.753   5.507  18.419  0.00  0.00    +0.000 C 
BRANCH  11  12
ATOM     12  O   UNL     1       8.240   6.231  19.548  0.00  0.00    +0.000 OA
ATOM     13  H   UNL     1       8.100   5.681  20.336  0.00  0.00    +0.000 HD
ENDBRANCH  11  12
ENDBRANCH  10  11
ENDBRANCH   1  10
BRANCH   3  14
ATOM     14  C   UNL     1       3.543   2.263  18.136  0.00  0.00    +0.000 C 
BRANCH  14  15
ATOM     15  N   UNL     1       2.512   1.756  19.054  0.00  0.00    +0.000 NA
ATOM     16  N   UNL     1       1.340   2.079  18.783  0.00  0.00    +0.000 NA
ATOM     17  N   UNL     1       0.268   2.368  18.526  0.00  0.00    +0.000 NA
ENDBRANCH  14  15
ENDBRANCH   3  14
BRANCH   5  18
ATOM     18  C   UNL     1       3.391   6.998  17.517  0.00  0.00    +0.000 C 
BRANCH  18  19
ATOM     19  C   UNL     1       2.447   7.759  18.439  0.00  0.00    +0.000 A 
ATOM     20  C   UNL     1       2.216   7.364  19.761  0.00  0.00    +0.000 A 
ATOM     21  C   UNL     1       1.467   8.175  20.640  0.00  0.00    +0.000 A 
ATOM     22  C   UNL     1       0.927   9.412  20.237  0.00  0.00    +0.000 A 
ATOM     23  C   UNL     1       1.122   9.763  18.888  0.00  0.00    +0.000 A 
ATOM     24  C   UNL     1       1.852   8.951  18.006  0.00  0.00    +0.000 A 
BRANCH  22  25
ATOM     25  C   UNL     1       0.219  10.325  21.182  0.00  0.00    +0.000 A 
ATOM     26  C   UNL     1       0.153  11.716  20.965  0.00  0.00    +0.000 A 
ATOM     27  C   UNL     1      -0.544  12.569  21.833  0.00  0.00    +0.000 A 
ATOM     28  C   UNL     1      -1.207  12.053  22.940  0.00  0.00    +0.000 A 
ATOM     29  C   UNL     1      -1.166  10.684  23.183  0.00  0.00    +0.000 A 
ATOM     30  C   UNL     1      -0.456   9.838  22.320  0.00  0.00    +0.000 A 
ENDBRANCH  22  25
ENDBRANCH  18  19
ENDBRANCH   5  18
TORSDOF 10
ENDMDL
MODEL 2
REMARK VINA RESULT:      -7.9      1.470      2.276
REMARK  Name = 
REMARK  12 active torsions:
REMARK  status: ('A' for Active; 'I' for Inactive)
REMARK    1  A    between atoms: C_1  and  C_2
REMARK    2  A    between atoms: C_2  and  C_3
REMARK    3  A    between atoms: C_2  and  C_4
REMARK    4  A    between atoms: C_4  and  C_5
REMARK    5  A    between atoms: C_5  and  C_6
REMARK    6  A    between atoms: C_6  and  C_7
REMARK    7  A    between atoms: C_7  and  O_8
REMARK    8  A    between atoms: C_10  and  C_11
REMARK    9  A    between atoms: C_11  and  N_12
REMARK   10  A    between atoms: N_16  and  C_17
REMARK   11  A    between atoms: C_17  and  C_18
REMARK   12  A    between atoms: C_21  and  C_22
REMARK                            x       y       z     vdW  Elec       q    Type
REMARK                         _______ _______ _______ _____ _____    ______ ____
ROOT
ATOM      1  C   UNL     1       5.326   5.354  17.726  0.00  0.00    +0.000 C 
ATOM      2  C   UNL     1       5.826   4.223  18.649  0.00  0.00    +0.000 C 
ATOM      3  C   UNL     1       4.656   3.917  19.580  0.00  0.00    +0.000 C 
ATOM      4  O   UNL     1       3.558   4.617  18.984  0.00  0.00    +0.000 OA
ATOM      5  N   UNL     1       4.165   5.859  18.517  0.00  0.00    +0.000 NA
ENDROOT
BRANCH   1   6
ATOM      6  C   UNL     1       4.906   4.764  16.315  0.00  0.00    +0.000 C 
BRANCH   6   8
ATOM      7  C   UNL     1       7.204   4.462  15.279  0.00  0.00    +0.000 C 
ATOM      8  C   UNL     1       5.784   5.011  15.050  0.00  0.00    +0.000 C 
ATOM      9  C   UNL     1       5.248   4.394  13.761  0.00  0.00    +0.000 C 
ENDBRANCH   6   8
ENDBRANCH   1   6
BRANCH   1  10
ATOM     10  C   UNL     1       6.384   6.473  17.575  0.00  0.00    +0.000 C 
BRANCH  10  11
ATOM     11  C   UNL     1       7.618   6.384  18.474  0.00  0.00    +0.000 C 
BRANCH  11  12
ATOM     12  O   UNL     1       8.293   7.642  18.453  0.00  0.00    +0.000 OA
ATOM     13  H   UNL     1       8.156   8.037  17.576  0.00  0.00    +0.000 HD
ENDBRANCH  11  12
ENDBRANCH  10  11
ENDBRANCH   1  10
BRANCH   3  14
ATOM     14  C   UNL     1       4.390   2.417  19.690  0.00  0.00    +0.000 C 
BRANCH  14  15
ATOM     15  N   UNL     1       4.260   2.001  21.095  0.00  0.00    +0.000 NA
ATOM     16  N   UNL     1       5.225   1.367  21.562  0.00  0.00    +0.000 NA
ATOM     17  N   UNL     1       6.114   0.797  21.988  0.00  0.00    +0.000 NA
ENDBRANCH  14  15
ENDBRANCH   3  14
BRANCH   5  18
ATOM     18  C   UNL     1       3.139   6.616  17.784  0.00  0.00    +0.000 C 
BRANCH  18  19
ATOM     19  C   UNL     1       2.406   7.678  18.592  0.00  0.00    +0.000 A 
ATOM     20  C   UNL     1       1.906   8.848  18.009  0.00  0.00    +0.000 A 
ATOM     21  C   UNL     1       1.094   9.735  18.745  0.00  0.00    +0.000 A 
ATOM     22  C   UNL     1       0.741   9.487  20.086  0.00  0.00    +0.000 A 
ATOM     23  C   UNL     1       1.300   8.336  20.671  0.00  0.00    +0.000 A 
ATOM     24  C   UNL     1       2.124   7.459  19.947  0.00  0.00    +0.000 A 
BRANCH  22  25
ATOM     25  C   UNL     1      -0.198  10.364  20.845  0.00  0.00    +0.000 A 
ATOM     26  C   UNL     1      -0.332  10.278  22.245  0.00  0.00    +0.000 A 
ATOM     27  C   UNL     1      -1.187  11.128  22.962  0.00  0.00    +0.000 A 
ATOM     28  C   UNL     1      -1.927  12.100  22.298  0.00  0.00    +0.000 A 
ATOM     29  C   UNL     1      -1.817  12.216  20.917  0.00  0.00    +0.000 A 
ATOM     30  C   UNL     1      -0.971  11.354  20.205  0.00  0.00    +0.000 A 
ENDBRANCH  22  25
ENDBRANCH  18  19
ENDBRANCH   5  18
TORSDOF 10
ENDMDL
MODEL 3
REMARK VINA RESULT:      -7.8      2.278      4.668
REMARK  Name = 
REMARK  12 active torsions:
REMARK  status: ('A' for Active; 'I' for Inactive)
REMARK    1  A    between atoms: C_1  and  C_2
REMARK    2  A    between atoms: C_2  and  C_3
REMARK    3  A    between atoms: C_2  and  C_4
REMARK    4  A    between atoms: C_4  and  C_5
REMARK    5  A    between atoms: C_5  and  C_6
REMARK    6  A    between atoms: C_6  and  C_7
REMARK    7  A    between atoms: C_7  and  O_8
REMARK    8  A    between atoms: C_10  and  C_11
REMARK    9  A    between atoms: C_11  and  N_12
REMARK   10  A    between atoms: N_16  and  C_17
REMARK   11  A    between atoms: C_17  and  C_18
REMARK   12  A    between atoms: C_21  and  C_22
REMARK                            x       y       z     vdW  Elec       q    Type
REMARK                         _______ _______ _______ _____ _____    ______ ____
ROOT
ATOM      1  C   UNL     1       3.079   4.351  18.236  0.00  0.00    +0.000 C 
ATOM      2  C   UNL     1       3.966   4.072  17.005  0.00  0.00    +0.000 C 
ATOM      3  C   UNL     1       4.928   5.253  16.926  0.00  0.00    +0.000 C 
ATOM      4  O   UNL     1       4.749   5.919  18.181  0.00  0.00    +0.000 OA
ATOM      5  N   UNL     1       3.312   5.814  18.414  0.00  0.00    +0.000 NA
ENDROOT
BRANCH   1   6
ATOM      6  C   UNL     1       3.572   3.489  19.473  0.00  0.00    +0.000 C 
BRANCH   6   8
ATOM      7  C   UNL     1       4.907   1.661  20.622  0.00  0.00    +0.000 C 
ATOM      8  C   UNL     1       4.449   2.217  19.262  0.00  0.00    +0.000 C 
ATOM      9  C   UNL     1       3.770   1.082  18.499  0.00  0.00    +0.000 C 
ENDBRANCH   6   8
ENDBRANCH   1   6
BRANCH   1  10
ATOM     10  C   UNL     1       1.584   4.092  17.930  0.00  0.00    +0.000 C 
BRANCH  10  11
ATOM     11  C   UNL     1       0.798   3.275  18.956  0.00  0.00    +0.000 C 
BRANCH  11  12
ATOM     12  O   UNL     1       0.419   2.034  18.361  0.00  0.00    +0.000 OA
ATOM     13  H   UNL     1       1.031   1.857  17.628  0.00  0.00    +0.000 HD
ENDBRANCH  11  12
ENDBRANCH  10  11
ENDBRANCH   1  10
BRANCH   3  14
ATOM     14  C   UNL     1       6.372   4.802  16.717  0.00  0.00    +0.000 C 
BRANCH  14  15
ATOM     15  N   UNL     1       7.134   5.796  15.946  0.00  0.00    +0.000 NA
ATOM     16  N   UNL     1       7.457   6.828  16.566  0.00  0.00    +0.000 NA
ATOM     17  N   UNL     1       7.760   7.765  17.138  0.00  0.00    +0.000 NA
ENDBRANCH  14  15
ENDBRANCH   3  14
BRANCH   5  18
ATOM     18  C   UNL     1       3.028   6.377  19.744  0.00  0.00    +0.000 C 
BRANCH  18  19
ATOM     19  C   UNL     1       2.132   7.608  19.757  0.00  0.00    +0.000 A 
ATOM     20  C   UNL     1       1.941   8.404  18.622  0.00  0.00    +0.000 A 
ATOM     21  C   UNL     1       0.984   9.441  18.616  0.00  0.00    +0.000 A 
ATOM     22  C   UNL     1       0.175   9.717  19.736  0.00  0.00    +0.000 A 
ATOM     23  C   UNL     1       0.422   8.942  20.884  0.00  0.00    +0.000 A 
ATOM     24  C   UNL     1       1.387   7.922  20.901  0.00  0.00    +0.000 A 
BRANCH  22  25
ATOM     25  C   UNL     1      -0.909  10.742  19.710  0.00  0.00    +0.000 A 
ATOM     26  C   UNL     1      -1.813  10.842  18.633  0.00  0.00    +0.000 A 
ATOM     27  C   UNL     1      -2.856  11.780  18.626  0.00  0.00    +0.000 A 
ATOM     28  C   UNL     1      -3.032  12.640  19.704  0.00  0.00    +0.000 A 
ATOM     29  C   UNL     1      -2.161  12.566  20.785  0.00  0.00    +0.000 A 
ATOM     30  C   UNL     1      -1.113  11.636  20.780  0.00  0.00    +0.000 A 
ENDBRANCH  22  25
ENDBRANCH  18  19
ENDBRANCH   5  18
TORSDOF 10
ENDMDL
MODEL 4
REMARK VINA RESULT:      -7.7      2.478      4.730
REMARK  Name = 
REMARK  12 active torsions:
REMARK  status: ('A' for Active; 'I' for Inactive)
REMARK    1  A    between atoms: C_1  and  C_2
REMARK    2  A    between atoms: C_2  and  C_3
REMARK    3  A    between atoms: C_2  and  C_4
REMARK    4  A    between atoms: C_4  and  C_5
REMARK    5  A    between atoms: C_5  and  C_6
REMARK    6  A    between atoms: C_6  and  C_7
REMARK    7  A    between atoms: C_7  and  O_8
REMARK    8  A    between atoms: C_10  and  C_11
REMARK    9  A    between atoms: C_11  and  N_12
REMARK   10  A    between atoms: N_16  and  C_17
REMARK   11  A    between atoms: C_17  and  C_18
REMARK   12  A    between atoms: C_21  and  C_22
REMARK                            x       y       z     vdW  Elec       q    Type
REMARK                         _______ _______ _______ _____ _____    ______ ____
ROOT
ATOM      1  C   UNL     1       3.952   4.213  17.780  0.00  0.00    +0.000 C 
ATOM      2  C   UNL     1       4.993   4.276  16.643  0.00  0.00    +0.000 C 
ATOM      3  C   UNL     1       5.493   5.717  16.634  0.00  0.00    +0.000 C 
ATOM      4  O   UNL     1       4.979   6.260  17.855  0.00  0.00    +0.000 OA
ATOM      5  N   UNL     1       3.651   5.664  17.954  0.00  0.00    +0.000 NA
ENDROOT
BRANCH   1   6
ATOM      6  C   UNL     1       4.593   3.553  19.072  0.00  0.00    +0.000 C 
BRANCH   6   8
ATOM      7  C   UNL     1       4.929   1.424  20.414  0.00  0.00    +0.000 C 
ATOM      8  C   UNL     1       3.883   2.373  19.805  0.00  0.00    +0.000 C 
ATOM      9  C   UNL     1       2.924   2.788  20.918  0.00  0.00    +0.000 C 
ENDBRANCH   6   8
ENDBRANCH   1   6
BRANCH   1  10
ATOM     10  C   UNL     1       2.674   3.461  17.339  0.00  0.00    +0.000 C 
BRANCH  10  11
ATOM     11  C   UNL     1       1.339   4.008  17.846  0.00  0.00    +0.000 C 
BRANCH  11  12
ATOM     12  O   UNL     1       0.538   2.916  18.299  0.00  0.00    +0.000 OA
ATOM     13  H   UNL     1       0.427   3.009  19.259  0.00  0.00    +0.000 HD
ENDBRANCH  11  12
ENDBRANCH  10  11
ENDBRANCH   1  10
BRANCH   3  14
ATOM     14  C   UNL     1       7.017   5.793  16.569  0.00  0.00    +0.000 C 
BRANCH  14  15
ATOM     15  N   UNL     1       7.560   4.806  15.623  0.00  0.00    +0.000 NA
ATOM     16  N   UNL     1       7.860   5.245  14.497  0.00  0.00    +0.000 NA
ATOM     17  N   UNL     1       8.144   5.653  13.472  0.00  0.00    +0.000 NA
ENDBRANCH  14  15
ENDBRANCH   3  14
BRANCH   5  18
ATOM     18  C   UNL     1       3.067   6.073  19.242  0.00  0.00    +0.000 C 
BRANCH  18  19
ATOM     19  C   UNL     1       2.283   7.379  19.220  0.00  0.00    +0.000 A 
ATOM     20  C   UNL     1       1.687   7.910  20.369  0.00  0.00    +0.000 A 
ATOM     21  C   UNL     1       1.108   9.196  20.356  0.00  0.00    +0.000 A 
ATOM     22  C   UNL     1       1.108  10.004  19.202  0.00  0.00    +0.000 A 
ATOM     23  C   UNL     1       1.662   9.429  18.044  0.00  0.00    +0.000 A 
ATOM     24  C   UNL     1       2.223   8.142  18.047  0.00  0.00    +0.000 A 
BRANCH  22  25
ATOM     25  C   UNL     1       0.590  11.404  19.202  0.00  0.00    +0.000 A 
ATOM     26  C   UNL     1       1.380  12.491  18.779  0.00  0.00    +0.000 A 
ATOM     27  C   UNL     1       0.881  13.801  18.743  0.00  0.00    +0.000 A 
ATOM     28  C   UNL     1      -0.432  14.061  19.119  0.00  0.00    +0.000 A 
ATOM     29  C   UNL     1      -1.242  13.012  19.538  0.00  0.00    +0.000 A 
ATOM     30  C   UNL     1      -0.733  11.706  19.585  0.00  0.00    +0.000 A 
ENDBRANCH  22  25
ENDBRANCH  18  19
ENDBRANCH   5  18
TORSDOF 10
ENDMDL
MODEL 5
REMARK VINA RESULT:      -7.7      2.364      4.562
REMARK  Name = 
REMARK  12 active torsions:
REMARK  status: ('A' for Active; 'I' for Inactive)
REMARK    1  A    between atoms: C_1  and  C_2
REMARK    2  A    between atoms: C_2  and  C_3
REMARK    3  A    between atoms: C_2  and  C_4
REMARK    4  A    between atoms: C_4  and  C_5
REMARK    5  A    between atoms: C_5  and  C_6
REMARK    6  A    between atoms: C_6  and  C_7
REMARK    7  A    between atoms: C_7  and  O_8
REMARK    8  A    between atoms: C_10  and  C_11
REMARK    9  A    between atoms: C_11  and  N_12
REMARK   10  A    between atoms: N_16  and  C_17
REMARK   11  A    between atoms: C_17  and  C_18
REMARK   12  A    between atoms: C_21  and  C_22
REMARK                            x       y       z     vdW  Elec       q    Type
REMARK                         _______ _______ _______ _____ _____    ______ ____
ROOT
ATOM      1  C   UNL     1       4.033   4.229  17.892  0.00  0.00    +0.000 C 
ATOM      2  C   UNL     1       5.144   4.288  16.822  0.00  0.00    +0.000 C 
ATOM      3  C   UNL     1       5.627   5.735  16.824  0.00  0.00    +0.000 C 
ATOM      4  O   UNL     1       5.031   6.290  18.000  0.00  0.00    +0.000 OA
ATOM      5  N   UNL     1       3.705   5.679  18.025  0.00  0.00    +0.000 NA
ENDROOT
BRANCH   1   6
ATOM      6  C   UNL     1       4.598   3.596  19.232  0.00  0.00    +0.000 C 
BRANCH   6   8
ATOM      7  C   UNL     1       4.913   1.464  20.575  0.00  0.00    +0.000 C 
ATOM      8  C   UNL     1       3.878   2.392  19.914  0.00  0.00    +0.000 C 
ATOM      9  C   UNL     1       2.847   2.772  20.974  0.00  0.00    +0.000 C 
ENDBRANCH   6   8
ENDBRANCH   1   6
BRANCH   1  10
ATOM     10  C   UNL     1       2.794   3.456  17.383  0.00  0.00    +0.000 C 
BRANCH  10  11
ATOM     11  C   UNL     1       1.426   3.963  17.837  0.00  0.00    +0.000 C 
BRANCH  11  12
ATOM     12  O   UNL     1       0.641   2.850  18.264  0.00  0.00    +0.000 OA
ATOM     13  H   UNL     1       0.494   2.939  19.219  0.00  0.00    +0.000 HD
ENDBRANCH  11  12
ENDBRANCH  10  11
ENDBRANCH   1  10
BRANCH   3  14
ATOM     14  C   UNL     1       7.152   5.828  16.854  0.00  0.00    +0.000 C 
BRANCH  14  15
ATOM     15  N   UNL     1       7.731   4.799  17.731  0.00  0.00    +0.000 NA
ATOM     16  N   UNL     1       7.793   5.091  18.940  0.00  0.00    +0.000 NA
ATOM     17  N   UNL     1       7.839   5.358  20.047  0.00  0.00    +0.000 NA
ENDBRANCH  14  15
ENDBRANCH   3  14
BRANCH   5  18
ATOM     18  C   UNL     1       3.036   6.100  19.266  0.00  0.00    +0.000 C 
BRANCH  18  19
ATOM     19  C   UNL     1       2.281   7.420  19.188  0.00  0.00    +0.000 A 
ATOM     20  C   UNL     1       1.618   7.967  20.292  0.00  0.00    +0.000 A 
ATOM     21  C   UNL     1       1.066   9.264  20.237  0.00  0.00    +0.000 A 
ATOM     22  C   UNL     1       1.161  10.068  19.084  0.00  0.00    +0.000 A 
ATOM     23  C   UNL     1       1.782   9.478  17.967  0.00  0.00    +0.000 A 
ATOM     24  C   UNL     1       2.317   8.180  18.012  0.00  0.00    +0.000 A 
BRANCH  22  25
ATOM     25  C   UNL     1       0.671  11.477  19.046  0.00  0.00    +0.000 A 
ATOM     26  C   UNL     1       1.494  12.540  18.622  0.00  0.00    +0.000 A 
ATOM     27  C   UNL     1       1.022  13.859  18.549  0.00  0.00    +0.000 A 
ATOM     28  C   UNL     1      -0.294  14.152  18.889  0.00  0.00    +0.000 A 
ATOM     29  C   UNL     1      -1.135  13.127  19.307  0.00  0.00    +0.000 A 
ATOM     30  C   UNL     1      -0.654  11.813  19.391  0.00  0.00    +0.000 A 
ENDBRANCH  22  25
ENDBRANCH  18  19
ENDBRANCH   5  18
TORSDOF 10
ENDMDL
MODEL 6
REMARK VINA RESULT:      -7.7      2.461      4.710
REMARK  Name = 
REMARK  12 active torsions:
REMARK  status: ('A' for Active; 'I' for Inactive)
REMARK    1  A    between atoms: C_1  and  C_2
REMARK    2  A    between atoms: C_2  and  C_3
REMARK    3  A    between atoms: C_2  and  C_4
REMARK    4  A    between atoms: C_4  and  C_5
REMARK    5  A    between atoms: C_5  and  C_6
REMARK    6  A    between atoms: C_6  and  C_7
REMARK    7  A    between atoms: C_7  and  O_8
REMARK    8  A    between atoms: C_10  and  C_11
REMARK    9  A    between atoms: C_11  and  N_12
REMARK   10  A    between atoms: N_16  and  C_17
REMARK   11  A    between atoms: C_17  and  C_18
REMARK   12  A    between atoms: C_21  and  C_22
REMARK                            x       y       z     vdW  Elec       q    Type
REMARK                         _______ _______ _______ _____ _____    ______ ____
ROOT
ATOM      1  C   UNL     1       3.926   4.279  17.729  0.00  0.00    +0.000 C 
ATOM      2  C   UNL     1       4.912   4.387  16.546  0.00  0.00    +0.000 C 
ATOM      3  C   UNL     1       5.440   5.817  16.592  0.00  0.00    +0.000 C 
ATOM      4  O   UNL     1       4.996   6.301  17.865  0.00  0.00    +0.000 OA
ATOM      5  N   UNL     1       3.662   5.723  17.997  0.00  0.00    +0.000 NA
ENDROOT
BRANCH   1   6
ATOM      6  C   UNL     1       4.615   3.537  18.949  0.00  0.00    +0.000 C 
BRANCH   6   8
ATOM      7  C   UNL     1       4.916   1.322  20.153  0.00  0.00    +0.000 C 
ATOM      8  C   UNL     1       3.890   2.371  19.690  0.00  0.00    +0.000 C 
ATOM      9  C   UNL     1       3.070   2.790  20.908  0.00  0.00    +0.000 C 
ENDBRANCH   6   8
ENDBRANCH   1   6
BRANCH   1  10
ATOM     10  C   UNL     1       2.613   3.574  17.310  0.00  0.00    +0.000 C 
BRANCH  10  11
ATOM     11  C   UNL     1       1.330   4.035  18.001  0.00  0.00    +0.000 C 
BRANCH  11  12
ATOM     12  O   UNL     1       0.595   2.885  18.421  0.00  0.00    +0.000 OA
ATOM     13  H   UNL     1      -0.348   3.115  18.409  0.00  0.00    +0.000 HD
ENDBRANCH  11  12
ENDBRANCH  10  11
ENDBRANCH   1  10
BRANCH   3  14
ATOM     14  C   UNL     1       6.960   5.871  16.457  0.00  0.00    +0.000 C 
BRANCH  14  15
ATOM     15  N   UNL     1       7.446   4.857  15.508  0.00  0.00    +0.000 NA
ATOM     16  N   UNL     1       7.848   5.292  14.412  0.00  0.00    +0.000 NA
ATOM     17  N   UNL     1       8.226   5.694  13.415  0.00  0.00    +0.000 NA
ENDBRANCH  14  15
ENDBRANCH   3  14
BRANCH   5  18
ATOM     18  C   UNL     1       3.149   6.069  19.331  0.00  0.00    +0.000 C 
BRANCH  18  19
ATOM     19  C   UNL     1       2.342   7.359  19.409  0.00  0.00    +0.000 A 
ATOM     20  C   UNL     1       2.109   8.162  18.287  0.00  0.00    +0.000 A 
ATOM     21  C   UNL     1       1.227   9.261  18.353  0.00  0.00    +0.000 A 
ATOM     22  C   UNL     1       0.538   9.596  19.535  0.00  0.00    +0.000 A 
ATOM     23  C   UNL     1       0.830   8.811  20.666  0.00  0.00    +0.000 A 
ATOM     24  C   UNL     1       1.721   7.727  20.609  0.00  0.00    +0.000 A 
BRANCH  22  25
ATOM     25  C   UNL     1      -0.473  10.692  19.592  0.00  0.00    +0.000 A 
ATOM     26  C   UNL     1      -1.480  10.828  18.615  0.00  0.00    +0.000 A 
ATOM     27  C   UNL     1      -2.453  11.835  18.689  0.00  0.00    +0.000 A 
ATOM     28  C   UNL     1      -2.454  12.732  19.752  0.00  0.00    +0.000 A 
ATOM     29  C   UNL     1      -1.478  12.625  20.736  0.00  0.00    +0.000 A 
ATOM     30  C   UNL     1      -0.499  11.624  20.649  0.00  0.00    +0.000 A 
ENDBRANCH  22  25
ENDBRANCH  18  19
ENDBRANCH   5  18
TORSDOF 10
ENDMDL
MODEL 7
REMARK VINA RESULT:      -7.7      2.351      4.518
REMARK  Name = 
REMARK  12 active torsions:
REMARK  status: ('A' for Active; 'I' for Inactive)
REMARK    1  A    between atoms: C_1  and  C_2
REMARK    2  A    between atoms: C_2  and  C_3
REMARK    3  A    between atoms: C_2  and  C_4
REMARK    4  A    between atoms: C_4  and  C_5
REMARK    5  A    between atoms: C_5  and  C_6
REMARK    6  A    between atoms: C_6  and  C_7
REMARK    7  A    between atoms: C_7  and  O_8
REMARK    8  A    between atoms: C_10  and  C_11
REMARK    9  A    between atoms: C_11  and  N_12
REMARK   10  A    between atoms: N_16  and  C_17
REMARK   11  A    between atoms: C_17  and  C_18
REMARK   12  A    between atoms: C_21  and  C_22
REMARK                            x       y       z     vdW  Elec       q    Type
REMARK                         _______ _______ _______ _____ _____    ______ ____
ROOT
ATOM      1  C   UNL     1       3.139   4.357  18.093  0.00  0.00    +0.000 C 
ATOM      2  C   UNL     1       3.854   3.813  16.839  0.00  0.00    +0.000 C 
ATOM      3  C   UNL     1       4.964   4.816  16.541  0.00  0.00    +0.000 C 
ATOM      4  O   UNL     1       5.004   5.634  17.715  0.00  0.00    +0.000 OA
ATOM      5  N   UNL     1       3.596   5.777  18.073  0.00  0.00    +0.000 NA
ENDROOT
BRANCH   1   6
ATOM      6  C   UNL     1       3.619   3.568  19.382  0.00  0.00    +0.000 C 
BRANCH   6   8
ATOM      7  C   UNL     1       4.810   1.717  20.647  0.00  0.00    +0.000 C 
ATOM      8  C   UNL     1       4.401   2.225  19.253  0.00  0.00    +0.000 C 
ATOM      9  C   UNL     1       3.644   1.101  18.551  0.00  0.00    +0.000 C 
ENDBRANCH   6   8
ENDBRANCH   1   6
BRANCH   1  10
ATOM     10  C   UNL     1       1.600   4.300  17.939  0.00  0.00    +0.000 C 
BRANCH  10  11
ATOM     11  C   UNL     1       0.825   3.529  19.008  0.00  0.00    +0.000 C 
BRANCH  11  12
ATOM     12  O   UNL     1       0.375   2.294  18.449  0.00  0.00    +0.000 OA
ATOM     13  H   UNL     1       1.048   1.992  17.818  0.00  0.00    +0.000 HD
ENDBRANCH  11  12
ENDBRANCH  10  11
ENDBRANCH   1  10
BRANCH   3  14
ATOM     14  C   UNL     1       6.301   4.128  16.275  0.00  0.00    +0.000 C 
BRANCH  14  15
ATOM     15  N   UNL     1       7.363   5.111  16.015  0.00  0.00    +0.000 NA
ATOM     16  N   UNL     1       7.617   5.329  14.815  0.00  0.00    +0.000 NA
ATOM     17  N   UNL     1       7.839   5.533  13.716  0.00  0.00    +0.000 NA
ENDBRANCH  14  15
ENDBRANCH   3  14
BRANCH   5  18
ATOM     18  C   UNL     1       3.525   6.518  19.343  0.00  0.00    +0.000 C 
BRANCH  18  19
ATOM     19  C   UNL     1       2.358   7.488  19.471  0.00  0.00    +0.000 A 
ATOM     20  C   UNL     1       1.649   7.648  20.667  0.00  0.00    +0.000 A 
ATOM     21  C   UNL     1       0.682   8.665  20.805  0.00  0.00    +0.000 A 
ATOM     22  C   UNL     1       0.390   9.566  19.762  0.00  0.00    +0.000 A 
ATOM     23  C   UNL     1       1.073   9.352  18.550  0.00  0.00    +0.000 A 
ATOM     24  C   UNL     1       2.024   8.328  18.402  0.00  0.00    +0.000 A 
BRANCH  22  25
ATOM     25  C   UNL     1      -0.556  10.708  19.927  0.00  0.00    +0.000 A 
ATOM     26  C   UNL     1      -0.523  11.545  21.061  0.00  0.00    +0.000 A 
ATOM     27  C   UNL     1      -1.387  12.641  21.199  0.00  0.00    +0.000 A 
ATOM     28  C   UNL     1      -2.305  12.939  20.199  0.00  0.00    +0.000 A 
ATOM     29  C   UNL     1      -2.363  12.137  19.064  0.00  0.00    +0.000 A 
ATOM     30  C   UNL     1      -1.506  11.035  18.939  0.00  0.00    +0.000 A 
ENDBRANCH  22  25
ENDBRANCH  18  19
ENDBRANCH   5  18
TORSDOF 10
ENDMDL
MODEL 8
REMARK VINA RESULT:      -7.6      0.964      1.138
REMARK  Name = 
REMARK  12 active torsions:
REMARK  status: ('A' for Active; 'I' for Inactive)
REMARK    1  A    between atoms: C_1  and  C_2
REMARK    2  A    between atoms: C_2  and  C_3
REMARK    3  A    between atoms: C_2  and  C_4
REMARK    4  A    between atoms: C_4  and  C_5
REMARK    5  A    between atoms: C_5  and  C_6
REMARK    6  A    between atoms: C_6  and  C_7
REMARK    7  A    between atoms: C_7  and  O_8
REMARK    8  A    between atoms: C_10  and  C_11
REMARK    9  A    between atoms: C_11  and  N_12
REMARK   10  A    between atoms: N_16  and  C_17
REMARK   11  A    between atoms: C_17  and  C_18
REMARK   12  A    between atoms: C_21  and  C_22
REMARK                            x       y       z     vdW  Elec       q    Type
REMARK                         _______ _______ _______ _____ _____    ______ ____
ROOT
ATOM      1  C   UNL     1       5.263   5.112  18.391  0.00  0.00    +0.000 C 
ATOM      2  C   UNL     1       5.280   3.845  19.271  0.00  0.00    +0.000 C 
ATOM      3  C   UNL     1       3.864   3.724  19.829  0.00  0.00    +0.000 C 
ATOM      4  O   UNL     1       3.116   4.670  19.058  0.00  0.00    +0.000 OA
ATOM      5  N   UNL     1       4.040   5.790  18.912  0.00  0.00    +0.000 NA
ENDROOT
BRANCH   1   6
ATOM      6  C   UNL     1       5.148   4.714  16.861  0.00  0.00    +0.000 C 
BRANCH   6   8
ATOM      7  C   UNL     1       6.527   4.410  14.750  0.00  0.00    +0.000 C 
ATOM      8  C   UNL     1       6.012   5.433  15.779  0.00  0.00    +0.000 C 
ATOM      9  C   UNL     1       5.298   6.544  15.015  0.00  0.00    +0.000 C 
ENDBRANCH   6   8
ENDBRANCH   1   6
BRANCH   1  10
ATOM     10  C   UNL     1       6.504   5.999  18.651  0.00  0.00    +0.000 C 
BRANCH  10  11
ATOM     11  C   UNL     1       7.791   5.286  19.067  0.00  0.00    +0.000 C 
BRANCH  11  12
ATOM     12  O   UNL     1       7.998   5.491  20.465  0.00  0.00    +0.000 OA
ATOM     13  H   UNL     1       7.131   5.457  20.901  0.00  0.00    +0.000 HD
ENDBRANCH  11  12
ENDBRANCH  10  11
ENDBRANCH   1  10
BRANCH   3  14
ATOM     14  C   UNL     1       3.314   2.306  19.689  0.00  0.00    +0.000 C 
BRANCH  14  15
ATOM     15  N   UNL     1       1.921   2.227  20.153  0.00  0.00    +0.000 NA
ATOM     16  N   UNL     1       1.051   2.255  19.261  0.00  0.00    +0.000 NA
ATOM     17  N   UNL     1       0.260   2.269  18.442  0.00  0.00    +0.000 NA
ENDBRANCH  14  15
ENDBRANCH   3  14
BRANCH   5  18
ATOM     18  C   UNL     1       3.406   6.787  18.035  0.00  0.00    +0.000 C 
BRANCH  18  19
ATOM     19  C   UNL     1       2.365   7.678  18.700  0.00  0.00    +0.000 A 
ATOM     20  C   UNL     1       2.024   7.547  20.050  0.00  0.00    +0.000 A 
ATOM     21  C   UNL     1       1.179   8.486  20.679  0.00  0.00    +0.000 A 
ATOM     22  C   UNL     1       0.651   9.595  19.989  0.00  0.00    +0.000 A 
ATOM     23  C   UNL     1       0.961   9.677  18.619  0.00  0.00    +0.000 A 
ATOM     24  C   UNL     1       1.786   8.734  17.984  0.00  0.00    +0.000 A 
BRANCH  22  25
ATOM     25  C   UNL     1      -0.160  10.649  20.665  0.00  0.00    +0.000 A 
ATOM     26  C   UNL     1      -0.977  11.540  19.941  0.00  0.00    +0.000 A 
ATOM     27  C   UNL     1      -1.768  12.506  20.579  0.00  0.00    +0.000 A 
ATOM     28  C   UNL     1      -1.774  12.602  21.966  0.00  0.00    +0.000 A 
ATOM     29  C   UNL     1      -0.984  11.736  22.713  0.00  0.00    +0.000 A 
ATOM     30  C   UNL     1      -0.184  10.782  22.069  0.00  0.00    +0.000 A 
ENDBRANCH  22  25
ENDBRANCH  18  19
ENDBRANCH   5  18
TORSDOF 10
ENDMDL
MODEL 9
REMARK VINA RESULT:      -7.6      5.177      9.689
REMARK  Name = 
REMARK  12 active torsions:
REMARK  status: ('A' for Active; 'I' for Inactive)
REMARK    1  A    between atoms: C_1  and  C_2
REMARK    2  A    between atoms: C_2  and  C_3
REMARK    3  A    between atoms: C_2  and  C_4
REMARK    4  A    between atoms: C_4  and  C_5
REMARK    5  A    between atoms: C_5  and  C_6
REMARK    6  A    between atoms: C_6  and  C_7
REMARK    7  A    between atoms: C_7  and  O_8
REMARK    8  A    between atoms: C_10  and  C_11
REMARK    9  A    between atoms: C_11  and  N_12
REMARK   10  A    between atoms: N_16  and  C_17
REMARK   11  A    between atoms: C_17  and  C_18
REMARK   12  A    between atoms: C_21  and  C_22
REMARK                            x       y       z     vdW  Elec       q    Type
REMARK                         _______ _______ _______ _____ _____    ______ ____
ROOT
ATOM      1  C   UNL     1      -1.012  12.694  19.629  0.00  0.00    +0.000 C 
ATOM      2  C   UNL     1      -2.436  12.972  20.155  0.00  0.00    +0.000 C 
ATOM      3  C   UNL     1      -2.569  12.127  21.419  0.00  0.00    +0.000 C 
ATOM      4  O   UNL     1      -1.230  11.696  21.680  0.00  0.00    +0.000 OA
ATOM      5  N   UNL     1      -0.698  11.425  20.348  0.00  0.00    +0.000 NA
ENDROOT
BRANCH   1   6
ATOM      6  C   UNL     1      -0.042  13.886  20.020  0.00  0.00    +0.000 C 
BRANCH   6   8
ATOM      7  C   UNL     1       0.948  16.063  19.168  0.00  0.00    +0.000 C 
ATOM      8  C   UNL     1       0.893  14.540  18.957  0.00  0.00    +0.000 C 
ATOM      9  C   UNL     1       2.327  14.018  18.949  0.00  0.00    +0.000 C 
ENDBRANCH   6   8
ENDBRANCH   1   6
BRANCH   1  10
ATOM     10  C   UNL     1      -1.010  12.445  18.102  0.00  0.00    +0.000 C 
BRANCH  10  11
ATOM     11  C   UNL     1      -1.972  11.381  17.572  0.00  0.00    +0.000 C 
BRANCH  11  12
ATOM     12  O   UNL     1      -2.274  11.673  16.208  0.00  0.00    +0.000 OA
ATOM     13  H   UNL     1      -3.236  11.780  16.134  0.00  0.00    +0.000 HD
ENDBRANCH  11  12
ENDBRANCH  10  11
ENDBRANCH   1  10
BRANCH   3  14
ATOM     14  C   UNL     1      -3.153  12.927  22.582  0.00  0.00    +0.000 C 
BRANCH  14  15
ATOM     15  N   UNL     1      -3.404  12.065  23.747  0.00  0.00    +0.000 NA
ATOM     16  N   UNL     1      -4.570  12.072  24.184  0.00  0.00    +0.000 NA
ATOM     17  N   UNL     1      -5.641  12.074  24.574  0.00  0.00    +0.000 NA
ENDBRANCH  14  15
ENDBRANCH   3  14
BRANCH   5  18
ATOM     18  C   UNL     1       0.724  11.075  20.492  0.00  0.00    +0.000 C 
BRANCH  18  19
ATOM     19  C   UNL     1       1.156   9.791  19.796  0.00  0.00    +0.000 A 
ATOM     20  C   UNL     1       1.436   9.742  18.427  0.00  0.00    +0.000 A 
ATOM     21  C   UNL     1       1.988   8.584  17.841  0.00  0.00    +0.000 A 
ATOM     22  C   UNL     1       2.290   7.435  18.598  0.00  0.00    +0.000 A 
ATOM     23  C   UNL     1       1.948   7.485  19.962  0.00  0.00    +0.000 A 
ATOM     24  C   UNL     1       1.381   8.629  20.546  0.00  0.00    +0.000 A 
BRANCH  22  25
ATOM     25  C   UNL     1       2.966   6.241  18.011  0.00  0.00    +0.000 A 
ATOM     26  C   UNL     1       2.363   4.967  18.011  0.00  0.00    +0.000 A 
ATOM     27  C   UNL     1       2.982   3.853  17.425  0.00  0.00    +0.000 A 
ATOM     28  C   UNL     1       4.222   3.984  16.811  0.00  0.00    +0.000 A 
ATOM     29  C   UNL     1       4.845   5.227  16.788  0.00  0.00    +0.000 A 
ATOM     30  C   UNL     1       4.227   6.333  17.388  0.00  0.00    +0.000 A 
ENDBRANCH  22  25
ENDBRANCH  18  19
ENDBRANCH   5  18
TORSDOF 10
ENDMDL
