MODEL 1
REMARK VINA RESULT:      -9.7      0.000      0.000
REMARK  Name = 
REMARK  6 active torsions:
REMARK  status: ('A' for Active; 'I' for Inactive)
REMARK    1  A    between atoms: C_1  and  N_2
REMARK    2  A    between atoms: N_2  and  C_3
REMARK    3  A    between atoms: C_4  and  C_6
REMARK    4  A    between atoms: C_9  and  N_10
REMARK    5  A    between atoms: C_11  and  C_13
REMARK    6  A    between atoms: N_17  and  C_18
REMARK                            x       y       z     vdW  Elec       q    Type
REMARK                         _______ _______ _______ _____ _____    ______ ____
ROOT
ATOM      1  N   UNL     1       2.408   6.390  20.442  0.00  0.00    +0.000 N 
ATOM      2  C   UNL     1       1.680   5.225  20.618  0.00  0.00    +0.000 C 
ATOM      3  O   UNL     1       0.466   5.145  20.462  0.00  0.00    +0.000 OA
ATOM      4  H   UNL     1       3.422   6.328  20.508  0.00  0.00    +0.000 HD
ENDROOT
BRANCH   1   8
ATOM      5  C   UNL     1       0.833  10.104  19.135  0.00  0.00    +0.000 A 
ATOM      6  C   UNL     1       0.658   9.707  20.462  0.00  0.00    +0.000 A 
ATOM      7  C   UNL     1       1.194   8.500  20.917  0.00  0.00    +0.000 A 
ATOM      8  C   UNL     1       1.878   7.642  20.048  0.00  0.00    +0.000 A 
ATOM      9  C   UNL     1       2.023   8.040  18.714  0.00  0.00    +0.000 A 
ATOM     10  F   UNL     1       2.648   7.226  17.848  0.00  0.00    +0.000 F 
ATOM     11  C   UNL     1       1.504   9.250  18.251  0.00  0.00    +0.000 A 
BRANCH   5  15
ATOM     12  C   UNL     1       0.016  13.850  18.959  0.00  0.00    +0.000 C 
ATOM     13  N   UNL     1       0.813  12.626  18.955  0.00  0.00    +0.000 N 
ATOM     14  C   UNL     1       2.262  12.823  18.935  0.00  0.00    +0.000 C 
ATOM     15  C   UNL     1       0.247  11.395  18.635  0.00  0.00    +0.000 C 
ATOM     16  N   UNL     1      -0.818  11.281  17.908  0.00  0.00    +0.000 NA
ATOM     17  H   UNL     1      -1.131  12.198  17.595  0.00  0.00    +0.000 HD
ENDBRANCH   5  15
ENDBRANCH   1   8
BRANCH   2  18
ATOM     18  C   UNL     1       2.460   4.069  20.976  0.00  0.00    +0.000 A 
ATOM     19  N   UNL     1       2.407   3.465  22.149  0.00  0.00    +0.000 NA
ATOM     20  N   UNL     1       3.022   2.252  21.971  0.00  0.00    +0.000 NA
ATOM     21  N   UNL     1       3.468   2.119  20.729  0.00  0.00    +0.000 NA
ATOM     22  N   UNL     1       3.224   3.303  20.116  0.00  0.00    +0.000 N 
BRANCH  22  23
ATOM     23  C   UNL     1       3.763   3.604  18.840  0.00  0.00    +0.000 A 
ATOM     24  C   UNL     1       2.997   3.450  17.678  0.00  0.00    +0.000 A 
ATOM     25  C   UNL     1       3.557   3.723  16.427  0.00  0.00    +0.000 A 
ATOM     26  C   UNL     1       4.889   4.140  16.314  0.00  0.00    +0.000 A 
ATOM     27  C   UNL     1       5.468   4.386  15.059  0.00  0.00    +0.000 A 
ATOM     28  C   UNL     1       6.803   4.775  14.967  0.00  0.00    +0.000 A 
ATOM     29 CL   UNL     1       7.502   5.066  13.422  0.00  0.00    +0.000 Cl
ATOM     30  C   UNL     1       7.575   4.927  16.115  0.00  0.00    +0.000 A 
ATOM     31  C   UNL     1       7.007   4.701  17.370  0.00  0.00    +0.000 A 
ATOM     32  C   UNL     1       5.664   4.310  17.487  0.00  0.00    +0.000 A 
ATOM     33  C   UNL     1       5.082   4.069  18.744  0.00  0.00    +0.000 A 
ENDBRANCH  22  23
ENDBRANCH   2  18
TORSDOF 4
ENDMDL
MODEL 2
REMARK VINA RESULT:      -9.5      1.136      1.916
REMARK  Name = 
REMARK  6 active torsions:
REMARK  status: ('A' for Active; 'I' for Inactive)
REMARK    1  A    between atoms: C_1  and  N_2
REMARK    2  A    between atoms: N_2  and  C_3
REMARK    3  A    between atoms: C_4  and  C_6
REMARK    4  A    between atoms: C_9  and  N_10
REMARK    5  A    between atoms: C_11  and  C_13
REMARK    6  A    between atoms: N_17  and  C_18
REMARK                            x       y       z     vdW  Elec       q    Type
REMARK                         _______ _______ _______ _____ _____    ______ ____
ROOT
ATOM      1  N   UNL     1       2.546   6.510  20.119  0.00  0.00    +0.000 N 
ATOM      2  C   UNL     1       2.222   5.251  19.640  0.00  0.00    +0.000 C 
ATOM      3  O   UNL     1       1.385   5.044  18.768  0.00  0.00    +0.000 OA
ATOM      4  H   UNL     1       3.319   6.581  20.778  0.00  0.00    +0.000 HD
ENDROOT
BRANCH   1   8
ATOM      5  C   UNL     1       0.847  10.203  18.913  0.00  0.00    +0.000 A 
ATOM      6  C   UNL     1       1.554   9.433  17.988  0.00  0.00    +0.000 A 
ATOM      7  C   UNL     1       2.097   8.200  18.360  0.00  0.00    +0.000 A 
ATOM      8  C   UNL     1       1.984   7.731  19.674  0.00  0.00    +0.000 A 
ATOM      9  C   UNL     1       1.296   8.526  20.597  0.00  0.00    +0.000 A 
ATOM     10  F   UNL     1       1.196   8.118  21.873  0.00  0.00    +0.000 F 
ATOM     11  C   UNL     1       0.737   9.753  20.234  0.00  0.00    +0.000 A 
BRANCH   5  15
ATOM     12  C   UNL     1       0.129  13.973  19.006  0.00  0.00    +0.000 C 
ATOM     13  N   UNL     1       0.889  12.731  18.885  0.00  0.00    +0.000 N 
ATOM     14  C   UNL     1       2.340  12.893  18.799  0.00  0.00    +0.000 C 
ATOM     15  C   UNL     1       0.272  11.537  18.523  0.00  0.00    +0.000 C 
ATOM     16  N   UNL     1      -0.833  11.495  17.850  0.00  0.00    +0.000 NA
ATOM     17  H   UNL     1      -1.135  12.438  17.611  0.00  0.00    +0.000 HD
ENDBRANCH   5  15
ENDBRANCH   1   8
BRANCH   2  18
ATOM     18  C   UNL     1       2.971   4.168  20.224  0.00  0.00    +0.000 A 
ATOM     19  N   UNL     1       2.620   3.522  21.320  0.00  0.00    +0.000 NA
ATOM     20  N   UNL     1       3.385   2.384  21.342  0.00  0.00    +0.000 NA
ATOM     21  N   UNL     1       4.209   2.341  20.303  0.00  0.00    +0.000 NA
ATOM     22  N   UNL     1       4.043   3.514  19.646  0.00  0.00    +0.000 N 
BRANCH  22  23
ATOM     23  C   UNL     1       4.918   3.913  18.604  0.00  0.00    +0.000 A 
ATOM     24  C   UNL     1       6.068   4.664  18.876  0.00  0.00    +0.000 A 
ATOM     25  C   UNL     1       6.902   5.073  17.832  0.00  0.00    +0.000 A 
ATOM     26  C   UNL     1       6.596   4.752  16.503  0.00  0.00    +0.000 A 
ATOM     27  C   UNL     1       7.411   5.187  15.446  0.00  0.00    +0.000 A 
ATOM     28  C   UNL     1       7.074   4.879  14.129  0.00  0.00    +0.000 A 
ATOM     29 CL   UNL     1       8.078   5.423  12.842  0.00  0.00    +0.000 Cl
ATOM     30  C   UNL     1       5.931   4.138  13.847  0.00  0.00    +0.000 A 
ATOM     31  C   UNL     1       5.120   3.687  14.891  0.00  0.00    +0.000 A 
ATOM     32  C   UNL     1       5.441   3.982  16.225  0.00  0.00    +0.000 A 
ATOM     33  C   UNL     1       4.628   3.543  17.284  0.00  0.00    +0.000 A 
ENDBRANCH  22  23
ENDBRANCH   2  18
TORSDOF 4
ENDMDL
MODEL 3
REMARK VINA RESULT:      -9.5      0.728      1.424
REMARK  Name = 
REMARK  6 active torsions:
REMARK  status: ('A' for Active; 'I' for Inactive)
REMARK    1  A    between atoms: C_1  and  N_2
REMARK    2  A    between atoms: N_2  and  C_3
REMARK    3  A    between atoms: C_4  and  C_6
REMARK    4  A    between atoms: C_9  and  N_10
REMARK    5  A    between atoms: C_11  and  C_13
REMARK    6  A    between atoms: N_17  and  C_18
REMARK                            x       y       z     vdW  Elec       q    Type
REMARK                         _______ _______ _______ _____ _____    ______ ____
ROOT
ATOM      1  N   UNL     1       2.556   6.384  20.336  0.00  0.00    +0.000 N 
ATOM      2  C   UNL     1       2.109   5.128  19.959  0.00  0.00    +0.000 C 
ATOM      3  O   UNL     1       1.150   4.935  19.220  0.00  0.00    +0.000 OA
ATOM      4  H   UNL     1       3.416   6.437  20.879  0.00  0.00    +0.000 HD
ENDROOT
BRANCH   1   8
ATOM      5  C   UNL     1       0.905  10.043  18.969  0.00  0.00    +0.000 A 
ATOM      6  C   UNL     1       0.642   9.609  20.269  0.00  0.00    +0.000 A 
ATOM      7  C   UNL     1       1.200   8.419  20.746  0.00  0.00    +0.000 A 
ATOM      8  C   UNL     1       1.996   7.617  19.922  0.00  0.00    +0.000 A 
ATOM      9  C   UNL     1       2.230   8.051  18.612  0.00  0.00    +0.000 A 
ATOM     10  F   UNL     1       2.965   7.288  17.786  0.00  0.00    +0.000 F 
ATOM     11  C   UNL     1       1.689   9.243  18.128  0.00  0.00    +0.000 A 
BRANCH   5  15
ATOM     12  C   UNL     1       0.101  13.784  18.664  0.00  0.00    +0.000 C 
ATOM     13  N   UNL     1       0.888  12.553  18.669  0.00  0.00    +0.000 N 
ATOM     14  C   UNL     1       2.334  12.736  18.550  0.00  0.00    +0.000 C 
ATOM     15  C   UNL     1       0.296  11.314  18.445  0.00  0.00    +0.000 C 
ATOM     16  N   UNL     1      -0.813  11.175  17.792  0.00  0.00    +0.000 NA
ATOM     17  H   UNL     1      -1.140  12.079  17.456  0.00  0.00    +0.000 HD
ENDBRANCH   5  15
ENDBRANCH   1   8
BRANCH   2  18
ATOM     18  C   UNL     1       2.879   4.028  20.479  0.00  0.00    +0.000 A 
ATOM     19  N   UNL     1       2.551   3.323  21.546  0.00  0.00    +0.000 NA
ATOM     20  N   UNL     1       3.331   2.196  21.502  0.00  0.00    +0.000 NA
ATOM     21  N   UNL     1       4.142   2.216  20.453  0.00  0.00    +0.000 NA
ATOM     22  N   UNL     1       3.952   3.418  19.857  0.00  0.00    +0.000 N 
BRANCH  22  23
ATOM     23  C   UNL     1       4.808   3.880  18.826  0.00  0.00    +0.000 A 
ATOM     24  C   UNL     1       5.868   4.752  19.104  0.00  0.00    +0.000 A 
ATOM     25  C   UNL     1       6.682   5.220  18.070  0.00  0.00    +0.000 A 
ATOM     26  C   UNL     1       6.446   4.838  16.743  0.00  0.00    +0.000 A 
ATOM     27  C   UNL     1       7.239   5.329  15.694  0.00  0.00    +0.000 A 
ATOM     28  C   UNL     1       6.971   4.956  14.378  0.00  0.00    +0.000 A 
ATOM     29 CL   UNL     1       7.946   5.570  13.101  0.00  0.00    +0.000 Cl
ATOM     30  C   UNL     1       5.917   4.093  14.089  0.00  0.00    +0.000 A 
ATOM     31  C   UNL     1       5.131   3.586  15.125  0.00  0.00    +0.000 A 
ATOM     32  C   UNL     1       5.384   3.945  16.458  0.00  0.00    +0.000 A 
ATOM     33  C   UNL     1       4.593   3.450  17.509  0.00  0.00    +0.000 A 
ENDBRANCH  22  23
ENDBRANCH   2  18
TORSDOF 4
ENDMDL
MODEL 4
REMARK VINA RESULT:      -9.4      0.832      1.199
REMARK  Name = 
REMARK  6 active torsions:
REMARK  status: ('A' for Active; 'I' for Inactive)
REMARK    1  A    between atoms: C_1  and  N_2
REMARK    2  A    between atoms: N_2  and  C_3
REMARK    3  A    between atoms: C_4  and  C_6
REMARK    4  A    between atoms: C_9  and  N_10
REMARK    5  A    between atoms: C_11  and  C_13
REMARK    6  A    between atoms: N_17  and  C_18
REMARK                            x       y       z     vdW  Elec       q    Type
REMARK                         _______ _______ _______ _____ _____    ______ ____
ROOT
ATOM      1  N   UNL     1       2.412   6.455  20.213  0.00  0.00    +0.000 N 
ATOM      2  C   UNL     1       1.659   5.337  20.531  0.00  0.00    +0.000 C 
ATOM      3  O   UNL     1       0.435   5.295  20.469  0.00  0.00    +0.000 OA
ATOM      4  H   UNL     1       3.426   6.357  20.211  0.00  0.00    +0.000 HD
ENDROOT
BRANCH   1   8
ATOM      5  C   UNL     1       0.865  10.206  18.981  0.00  0.00    +0.000 A 
ATOM      6  C   UNL     1       1.481   9.373  18.047  0.00  0.00    +0.000 A 
ATOM      7  C   UNL     1       1.972   8.121  18.429  0.00  0.00    +0.000 A 
ATOM      8  C   UNL     1       1.898   7.694  19.759  0.00  0.00    +0.000 A 
ATOM      9  C   UNL     1       1.301   8.551  20.691  0.00  0.00    +0.000 A 
ATOM     10  F   UNL     1       1.241   8.183  21.981  0.00  0.00    +0.000 F 
ATOM     11  C   UNL     1       0.795   9.797  20.319  0.00  0.00    +0.000 A 
BRANCH   5  15
ATOM     12  C   UNL     1       0.472  14.023  18.899  0.00  0.00    +0.000 C 
ATOM     13  N   UNL     1       1.103  12.713  18.762  0.00  0.00    +0.000 N 
ATOM     14  C   UNL     1       2.534  12.739  18.458  0.00  0.00    +0.000 C 
ATOM     15  C   UNL     1       0.347  11.560  18.580  0.00  0.00    +0.000 C 
ATOM     16  N   UNL     1      -0.846  11.576  18.077  0.00  0.00    +0.000 NA
ATOM     17  H   UNL     1      -1.104  12.525  17.814  0.00  0.00    +0.000 HD
ENDBRANCH   5  15
ENDBRANCH   1   8
BRANCH   2  18
ATOM     18  C   UNL     1       2.423   4.181  20.924  0.00  0.00    +0.000 A 
ATOM     19  N   UNL     1       2.345   3.600  22.106  0.00  0.00    +0.000 NA
ATOM     20  N   UNL     1       2.952   2.379  21.961  0.00  0.00    +0.000 NA
ATOM     21  N   UNL     1       3.418   2.219  20.730  0.00  0.00    +0.000 NA
ATOM     22  N   UNL     1       3.195   3.393  20.091  0.00  0.00    +0.000 N 
BRANCH  22  23
ATOM     23  C   UNL     1       3.759   3.667  18.820  0.00  0.00    +0.000 A 
ATOM     24  C   UNL     1       3.036   3.432  17.643  0.00  0.00    +0.000 A 
ATOM     25  C   UNL     1       3.620   3.679  16.399  0.00  0.00    +0.000 A 
ATOM     26  C   UNL     1       4.936   4.151  16.306  0.00  0.00    +0.000 A 
ATOM     27  C   UNL     1       5.541   4.372  15.059  0.00  0.00    +0.000 A 
ATOM     28  C   UNL     1       6.860   4.817  14.988  0.00  0.00    +0.000 A 
ATOM     29 CL   UNL     1       7.592   5.077  13.454  0.00  0.00    +0.000 Cl
ATOM     30  C   UNL     1       7.590   5.049  16.150  0.00  0.00    +0.000 A 
ATOM     31  C   UNL     1       6.994   4.848  17.397  0.00  0.00    +0.000 A 
ATOM     32  C   UNL     1       5.666   4.403  17.493  0.00  0.00    +0.000 A 
ATOM     33  C   UNL     1       5.058   4.186  18.741  0.00  0.00    +0.000 A 
ENDBRANCH  22  23
ENDBRANCH   2  18
TORSDOF 4
ENDMDL
MODEL 5
REMARK VINA RESULT:      -9.1      0.746      1.195
REMARK  Name = 
REMARK  6 active torsions:
REMARK  status: ('A' for Active; 'I' for Inactive)
REMARK    1  A    between atoms: C_1  and  N_2
REMARK    2  A    between atoms: N_2  and  C_3
REMARK    3  A    between atoms: C_4  and  C_6
REMARK    4  A    between atoms: C_9  and  N_10
REMARK    5  A    between atoms: C_11  and  C_13
REMARK    6  A    between atoms: N_17  and  C_18
REMARK                            x       y       z     vdW  Elec       q    Type
REMARK                         _______ _______ _______ _____ _____    ______ ____
ROOT
ATOM      1  N   UNL     1       2.277   6.275  20.902  0.00  0.00    +0.000 N 
ATOM      2  C   UNL     1       1.628   5.065  20.718  0.00  0.00    +0.000 C 
ATOM      3  O   UNL     1       0.486   4.959  20.282  0.00  0.00    +0.000 OA
ATOM      4  H   UNL     1       3.255   6.249  21.183  0.00  0.00    +0.000 HD
ENDROOT
BRANCH   1   8
ATOM      5  C   UNL     1       0.690  10.075  19.890  0.00  0.00    +0.000 A 
ATOM      6  C   UNL     1       0.458   9.545  21.160  0.00  0.00    +0.000 A 
ATOM      7  C   UNL     1       0.996   8.307  21.521  0.00  0.00    +0.000 A 
ATOM      8  C   UNL     1       1.740   7.552  20.607  0.00  0.00    +0.000 A 
ATOM      9  C   UNL     1       1.942   8.083  19.328  0.00  0.00    +0.000 A 
ATOM     10  F   UNL     1       2.626   7.369  18.419  0.00  0.00    +0.000 F 
ATOM     11  C   UNL     1       1.422   9.324  18.961  0.00  0.00    +0.000 A 
BRANCH   5  15
ATOM     12  C   UNL     1      -1.045  12.732  17.730  0.00  0.00    +0.000 C 
ATOM     13  N   UNL     1      -0.863  11.499  18.492  0.00  0.00    +0.000 N 
ATOM     14  C   UNL     1      -1.966  10.542  18.406  0.00  0.00    +0.000 C 
ATOM     15  C   UNL     1       0.102  11.400  19.490  0.00  0.00    +0.000 C 
ATOM     16  N   UNL     1       0.566  12.431  20.121  0.00  0.00    +0.000 NA
ATOM     17  H   UNL     1       0.097  13.278  19.804  0.00  0.00    +0.000 HD
ENDBRANCH   5  15
ENDBRANCH   1   8
BRANCH   2  18
ATOM     18  C   UNL     1       2.407   3.901  21.051  0.00  0.00    +0.000 A 
ATOM     19  N   UNL     1       2.351   3.269  22.208  0.00  0.00    +0.000 NA
ATOM     20  N   UNL     1       2.966   2.061  22.003  0.00  0.00    +0.000 NA
ATOM     21  N   UNL     1       3.416   1.957  20.759  0.00  0.00    +0.000 NA
ATOM     22  N   UNL     1       3.173   3.156  20.174  0.00  0.00    +0.000 N 
BRANCH  22  23
ATOM     23  C   UNL     1       3.716   3.487  18.907  0.00  0.00    +0.000 A 
ATOM     24  C   UNL     1       2.966   3.327  17.736  0.00  0.00    +0.000 A 
ATOM     25  C   UNL     1       3.529   3.631  16.494  0.00  0.00    +0.000 A 
ATOM     26  C   UNL     1       4.851   4.087  16.399  0.00  0.00    +0.000 A 
ATOM     27  C   UNL     1       5.434   4.364  15.153  0.00  0.00    +0.000 A 
ATOM     28  C   UNL     1       6.759   4.791  15.079  0.00  0.00    +0.000 A 
ATOM     29 CL   UNL     1       7.464   5.121  13.545  0.00  0.00    +0.000 Cl
ATOM     30  C   UNL     1       7.516   4.949  16.236  0.00  0.00    +0.000 A 
ATOM     31  C   UNL     1       6.942   4.691  17.482  0.00  0.00    +0.000 A 
ATOM     32  C   UNL     1       5.609   4.263  17.582  0.00  0.00    +0.000 A 
ATOM     33  C   UNL     1       5.022   3.990  18.830  0.00  0.00    +0.000 A 
ENDBRANCH  22  23
ENDBRANCH   2  18
TORSDOF 4
ENDMDL
MODEL 6
REMARK VINA RESULT:      -8.7      1.033      1.629
REMARK  Name = 
REMARK  6 active torsions:
REMARK  status: ('A' for Active; 'I' for Inactive)
REMARK    1  A    between atoms: C_1  and  N_2
REMARK    2  A    between atoms: N_2  and  C_3
REMARK    3  A    between atoms: C_4  and  C_6
REMARK    4  A    between atoms: C_9  and  N_10
REMARK    5  A    between atoms: C_11  and  C_13
REMARK    6  A    between atoms: N_17  and  C_18
REMARK                            x       y       z     vdW  Elec       q    Type
REMARK                         _______ _______ _______ _____ _____    ______ ____
ROOT
ATOM      1  N   UNL     1       2.453   6.379  20.500  0.00  0.00    +0.000 N 
ATOM      2  C   UNL     1       1.684   5.235  20.643  0.00  0.00    +0.000 C 
ATOM      3  O   UNL     1       0.470   5.200  20.473  0.00  0.00    +0.000 OA
ATOM      4  H   UNL     1       3.464   6.281  20.576  0.00  0.00    +0.000 HD
ENDROOT
BRANCH   1   8
ATOM      5  C   UNL     1       0.997  10.237  19.513  0.00  0.00    +0.000 A 
ATOM      6  C   UNL     1       1.604   9.455  18.529  0.00  0.00    +0.000 A 
ATOM      7  C   UNL     1       2.065   8.169  18.830  0.00  0.00    +0.000 A 
ATOM      8  C   UNL     1       1.969   7.656  20.128  0.00  0.00    +0.000 A 
ATOM      9  C   UNL     1       1.383   8.462  21.110  0.00  0.00    +0.000 A 
ATOM     10  F   UNL     1       1.304   8.010  22.372  0.00  0.00    +0.000 F 
ATOM     11  C   UNL     1       0.907   9.741  20.819  0.00  0.00    +0.000 A 
BRANCH   5  15
ATOM     12  C   UNL     1      -0.941  13.062  17.782  0.00  0.00    +0.000 C 
ATOM     13  N   UNL     1      -0.702  11.847  18.556  0.00  0.00    +0.000 N 
ATOM     14  C   UNL     1      -1.900  11.087  18.912  0.00  0.00    +0.000 C 
ATOM     15  C   UNL     1       0.512  11.626  19.200  0.00  0.00    +0.000 C 
ATOM     16  N   UNL     1       1.303  12.587  19.554  0.00  0.00    +0.000 NA
ATOM     17  H   UNL     1       0.886  13.488  19.326  0.00  0.00    +0.000 HD
ENDBRANCH   5  15
ENDBRANCH   1   8
BRANCH   2  18
ATOM     18  C   UNL     1       2.421   4.046  20.986  0.00  0.00    +0.000 A 
ATOM     19  N   UNL     1       2.343   3.427  22.148  0.00  0.00    +0.000 NA
ATOM     20  N   UNL     1       2.914   2.195  21.953  0.00  0.00    +0.000 NA
ATOM     21  N   UNL     1       3.360   2.066  20.710  0.00  0.00    +0.000 NA
ATOM     22  N   UNL     1       3.161   3.267  20.116  0.00  0.00    +0.000 N 
BRANCH  22  23
ATOM     23  C   UNL     1       3.715   3.569  18.846  0.00  0.00    +0.000 A 
ATOM     24  C   UNL     1       2.967   3.405  17.674  0.00  0.00    +0.000 A 
ATOM     25  C   UNL     1       3.541   3.679  16.430  0.00  0.00    +0.000 A 
ATOM     26  C   UNL     1       4.871   4.108  16.334  0.00  0.00    +0.000 A 
ATOM     27  C   UNL     1       5.465   4.355  15.087  0.00  0.00    +0.000 A 
ATOM     28  C   UNL     1       6.798   4.756  15.012  0.00  0.00    +0.000 A 
ATOM     29 CL   UNL     1       7.516   5.049  13.477  0.00  0.00    +0.000 Cl
ATOM     30  C   UNL     1       7.553   4.918  16.170  0.00  0.00    +0.000 A 
ATOM     31  C   UNL     1       6.969   4.691  17.418  0.00  0.00    +0.000 A 
ATOM     32  C   UNL     1       5.628   4.289  17.518  0.00  0.00    +0.000 A 
ATOM     33  C   UNL     1       5.030   4.046  18.767  0.00  0.00    +0.000 A 
ENDBRANCH  22  23
ENDBRANCH   2  18
TORSDOF 4
ENDMDL
MODEL 7
REMARK VINA RESULT:      -8.5      1.375      2.303
REMARK  Name = 
REMARK  6 active torsions:
REMARK  status: ('A' for Active; 'I' for Inactive)
REMARK    1  A    between atoms: C_1  and  N_2
REMARK    2  A    between atoms: N_2  and  C_3
REMARK    3  A    between atoms: C_4  and  C_6
REMARK    4  A    between atoms: C_9  and  N_10
REMARK    5  A    between atoms: C_11  and  C_13
REMARK    6  A    between atoms: N_17  and  C_18
REMARK                            x       y       z     vdW  Elec       q    Type
REMARK                         _______ _______ _______ _____ _____    ______ ____
ROOT
ATOM      1  N   UNL     1       2.750   6.280  20.212  0.00  0.00    +0.000 N 
ATOM      2  C   UNL     1       2.483   5.052  19.630  0.00  0.00    +0.000 C 
ATOM      3  O   UNL     1       1.659   4.881  18.737  0.00  0.00    +0.000 OA
ATOM      4  H   UNL     1       3.516   6.329  20.881  0.00  0.00    +0.000 HD
ENDROOT
BRANCH   1   8
ATOM      5  C   UNL     1       0.898   9.984  19.301  0.00  0.00    +0.000 A 
ATOM      6  C   UNL     1       1.626   9.315  18.316  0.00  0.00    +0.000 A 
ATOM      7  C   UNL     1       2.220   8.079  18.590  0.00  0.00    +0.000 A 
ATOM      8  C   UNL     1       2.137   7.508  19.865  0.00  0.00    +0.000 A 
ATOM      9  C   UNL     1       1.426   8.203  20.850  0.00  0.00    +0.000 A 
ATOM     10  F   UNL     1       1.352   7.695  22.091  0.00  0.00    +0.000 F 
ATOM     11  C   UNL     1       0.817   9.430  20.584  0.00  0.00    +0.000 A 
BRANCH   5  15
ATOM     12  C   UNL     1      -1.233  12.654  17.550  0.00  0.00    +0.000 C 
ATOM     13  N   UNL     1      -0.907  11.431  18.280  0.00  0.00    +0.000 N 
ATOM     14  C   UNL     1      -2.024  10.511  18.490  0.00  0.00    +0.000 C 
ATOM     15  C   UNL     1       0.269  11.320  19.017  0.00  0.00    +0.000 C 
ATOM     16  N   UNL     1       0.901  12.347  19.488  0.00  0.00    +0.000 NA
ATOM     17  H   UNL     1       0.393  13.203  19.269  0.00  0.00    +0.000 HD
ENDBRANCH   5  15
ENDBRANCH   1   8
BRANCH   2  18
ATOM     18  C   UNL     1       3.275   3.957  20.128  0.00  0.00    +0.000 A 
ATOM     19  N   UNL     1       2.982   3.251  21.203  0.00  0.00    +0.000 NA
ATOM     20  N   UNL     1       3.769   2.130  21.139  0.00  0.00    +0.000 NA
ATOM     21  N   UNL     1       4.550   2.155  20.067  0.00  0.00    +0.000 NA
ATOM     22  N   UNL     1       4.335   3.355  19.476  0.00  0.00    +0.000 N 
BRANCH  22  23
ATOM     23  C   UNL     1       5.159   3.823  18.421  0.00  0.00    +0.000 A 
ATOM     24  C   UNL     1       6.224   4.698  18.671  0.00  0.00    +0.000 A 
ATOM     25  C   UNL     1       7.005   5.171  17.614  0.00  0.00    +0.000 A 
ATOM     26  C   UNL     1       6.730   4.793  16.294  0.00  0.00    +0.000 A 
ATOM     27  C   UNL     1       7.490   5.289  15.224  0.00  0.00    +0.000 A 
ATOM     28  C   UNL     1       7.184   4.921  13.915  0.00  0.00    +0.000 A 
ATOM     29 CL   UNL     1       8.119   5.542  12.612  0.00  0.00    +0.000 Cl
ATOM     30  C   UNL     1       6.124   4.056  13.655  0.00  0.00    +0.000 A 
ATOM     31  C   UNL     1       5.370   3.543  14.712  0.00  0.00    +0.000 A 
ATOM     32  C   UNL     1       5.663   3.898  16.038  0.00  0.00    +0.000 A 
ATOM     33  C   UNL     1       4.905   3.397  17.111  0.00  0.00    +0.000 A 
ENDBRANCH  22  23
ENDBRANCH   2  18
TORSDOF 4
ENDMDL
MODEL 8
REMARK VINA RESULT:      -8.5      1.106      1.839
REMARK  Name = 
REMARK  6 active torsions:
REMARK  status: ('A' for Active; 'I' for Inactive)
REMARK    1  A    between atoms: C_1  and  N_2
REMARK    2  A    between atoms: N_2  and  C_3
REMARK    3  A    between atoms: C_4  and  C_6
REMARK    4  A    between atoms: C_9  and  N_10
REMARK    5  A    between atoms: C_11  and  C_13
REMARK    6  A    between atoms: N_17  and  C_18
REMARK                            x       y       z     vdW  Elec       q    Type
REMARK                         _______ _______ _______ _____ _____    ______ ____
ROOT
ATOM      1  N   UNL     1       2.068   6.298  21.039  0.00  0.00    +0.000 N 
ATOM      2  C   UNL     1       1.923   5.139  20.295  0.00  0.00    +0.000 C 
ATOM      3  O   UNL     1       1.231   5.054  19.286  0.00  0.00    +0.000 OA
ATOM      4  H   UNL     1       2.737   6.286  21.807  0.00  0.00    +0.000 HD
ENDROOT
BRANCH   1   8
ATOM      5  C   UNL     1       0.315  10.028  20.045  0.00  0.00    +0.000 A 
ATOM      6  C   UNL     1      -0.134   9.331  21.167  0.00  0.00    +0.000 A 
ATOM      7  C   UNL     1       0.451   8.113  21.526  0.00  0.00    +0.000 A 
ATOM      8  C   UNL     1       1.465   7.545  20.748  0.00  0.00    +0.000 A 
ATOM      9  C   UNL     1       1.887   8.243  19.610  0.00  0.00    +0.000 A 
ATOM     10  F   UNL     1       2.838   7.709  18.826  0.00  0.00    +0.000 F 
ATOM     11  C   UNL     1       1.320   9.466  19.249  0.00  0.00    +0.000 A 
BRANCH   5  15
ATOM     12  C   UNL     1      -1.106  12.791  17.790  0.00  0.00    +0.000 C 
ATOM     13  N   UNL     1      -0.971  11.482  18.424  0.00  0.00    +0.000 N 
ATOM     14  C   UNL     1      -1.858  10.442  17.904  0.00  0.00    +0.000 C 
ATOM     15  C   UNL     1      -0.320  11.332  19.645  0.00  0.00    +0.000 C 
ATOM     16  N   UNL     1      -0.203  12.296  20.500  0.00  0.00    +0.000 NA
ATOM     17  H   UNL     1      -0.679  13.130  20.158  0.00  0.00    +0.000 HD
ENDBRANCH   5  15
ENDBRANCH   1   8
BRANCH   2  18
ATOM     18  C   UNL     1       2.679   4.010  20.773  0.00  0.00    +0.000 A 
ATOM     19  N   UNL     1       2.340   3.269  21.811  0.00  0.00    +0.000 NA
ATOM     20  N   UNL     1       3.107   2.136  21.726  0.00  0.00    +0.000 NA
ATOM     21  N   UNL     1       3.920   2.185  20.679  0.00  0.00    +0.000 NA
ATOM     22  N   UNL     1       3.746   3.412  20.129  0.00  0.00    +0.000 N 
BRANCH  22  23
ATOM     23  C   UNL     1       4.609   3.902  19.118  0.00  0.00    +0.000 A 
ATOM     24  C   UNL     1       5.557   4.895  19.396  0.00  0.00    +0.000 A 
ATOM     25  C   UNL     1       6.378   5.387  18.379  0.00  0.00    +0.000 A 
ATOM     26  C   UNL     1       6.259   4.908  17.067  0.00  0.00    +0.000 A 
ATOM     27  C   UNL     1       7.058   5.420  16.034  0.00  0.00    +0.000 A 
ATOM     28  C   UNL     1       6.906   4.949  14.731  0.00  0.00    +0.000 A 
ATOM     29 CL   UNL     1       7.887   5.589  13.471  0.00  0.00    +0.000 Cl
ATOM     30  C   UNL     1       5.964   3.966  14.441  0.00  0.00    +0.000 A 
ATOM     31  C   UNL     1       5.174   3.438  15.464  0.00  0.00    +0.000 A 
ATOM     32  C   UNL     1       5.311   3.895  16.784  0.00  0.00    +0.000 A 
ATOM     33  C   UNL     1       4.515   3.380  17.821  0.00  0.00    +0.000 A 
ENDBRANCH  22  23
ENDBRANCH   2  18
TORSDOF 4
ENDMDL
MODEL 9
REMARK VINA RESULT:      -8.3      1.494      2.210
REMARK  Name = 
REMARK  6 active torsions:
REMARK  status: ('A' for Active; 'I' for Inactive)
REMARK    1  A    between atoms: C_1  and  N_2
REMARK    2  A    between atoms: N_2  and  C_3
REMARK    3  A    between atoms: C_4  and  C_6
REMARK    4  A    between atoms: C_9  and  N_10
REMARK    5  A    between atoms: C_11  and  C_13
REMARK    6  A    between atoms: N_17  and  C_18
REMARK                            x       y       z     vdW  Elec       q    Type
REMARK                         _______ _______ _______ _____ _____    ______ ____
ROOT
ATOM      1  N   UNL     1       1.829   7.370  20.318  0.00  0.00    +0.000 N 
ATOM      2  C   UNL     1       2.170   6.331  19.467  0.00  0.00    +0.000 C 
ATOM      3  O   UNL     1       2.072   6.385  18.246  0.00  0.00    +0.000 OA
ATOM      4  H   UNL     1       2.033   7.256  21.309  0.00  0.00    +0.000 HD
ENDROOT
BRANCH   1   8
ATOM      5  C   UNL     1       0.309  11.178  19.240  0.00  0.00    +0.000 A 
ATOM      6  C   UNL     1       1.270  10.565  18.435  0.00  0.00    +0.000 A 
ATOM      7  C   UNL     1       1.762   9.298  18.760  0.00  0.00    +0.000 A 
ATOM      8  C   UNL     1       1.338   8.636  19.917  0.00  0.00    +0.000 A 
ATOM      9  C   UNL     1       0.393   9.274  20.729  0.00  0.00    +0.000 A 
ATOM     10  F   UNL     1      -0.012   8.678  21.862  0.00  0.00    +0.000 F 
ATOM     11  C   UNL     1      -0.116  10.533  20.409  0.00  0.00    +0.000 A 
BRANCH   5  15
ATOM     12  C   UNL     1      -0.841  14.807  19.736  0.00  0.00    +0.000 C 
ATOM     13  N   UNL     1       0.047  13.648  19.716  0.00  0.00    +0.000 N 
ATOM     14  C   UNL     1       1.374  13.868  20.291  0.00  0.00    +0.000 C 
ATOM     15  C   UNL     1      -0.215  12.548  18.905  0.00  0.00    +0.000 C 
ATOM     16  N   UNL     1      -0.932  12.625  17.830  0.00  0.00    +0.000 NA
ATOM     17  H   UNL     1      -1.223  13.588  17.669  0.00  0.00    +0.000 HD
ENDBRANCH   5  15
ENDBRANCH   1   8
BRANCH   2  18
ATOM     18  C   UNL     1       2.692   5.158  20.120  0.00  0.00    +0.000 A 
ATOM     19  N   UNL     1       2.185   4.624  21.215  0.00  0.00    +0.000 NA
ATOM     20  N   UNL     1       2.739   3.373  21.310  0.00  0.00    +0.000 NA
ATOM     21  N   UNL     1       3.586   3.148  20.315  0.00  0.00    +0.000 NA
ATOM     22  N   UNL     1       3.657   4.306  19.616  0.00  0.00    +0.000 N 
BRANCH  22  23
ATOM     23  C   UNL     1       4.633   4.508  18.608  0.00  0.00    +0.000 A 
ATOM     24  C   UNL     1       5.872   5.088  18.907  0.00  0.00    +0.000 A 
ATOM     25  C   UNL     1       6.809   5.306  17.894  0.00  0.00    +0.000 A 
ATOM     26  C   UNL     1       6.522   4.961  16.567  0.00  0.00    +0.000 A 
ATOM     27  C   UNL     1       7.445   5.206  15.538  0.00  0.00    +0.000 A 
ATOM     28  C   UNL     1       7.129   4.880  14.220  0.00  0.00    +0.000 A 
ATOM     29 CL   UNL     1       8.267   5.191  12.968  0.00  0.00    +0.000 Cl
ATOM     30  C   UNL     1       5.900   4.306  13.910  0.00  0.00    +0.000 A 
ATOM     31  C   UNL     1       4.979   4.044  14.927  0.00  0.00    +0.000 A 
ATOM     32  C   UNL     1       5.276   4.361  16.261  0.00  0.00    +0.000 A 
ATOM     33  C   UNL     1       4.354   4.112  17.292  0.00  0.00    +0.000 A 
ENDBRANCH  22  23
ENDBRANCH   2  18
TORSDOF 4
ENDMDL
