MODEL 1
REMARK VINA RESULT:      -9.4      0.000      0.000
REMARK  Name = 
REMARK  3 active torsions:
REMARK  status: ('A' for Active; 'I' for Inactive)
REMARK    1  A    between atoms: N_12  and  C_13
REMARK    2  A    between atoms: C_17  and  C_18
REMARK    3  A    between atoms: C_22  and  O_23
REMARK                            x       y       z     vdW  Elec       q    Type
REMARK                         _______ _______ _______ _____ _____    ______ ____
ROOT
ATOM      1  O   UNL     1      -1.343  16.713  19.554  0.00  0.00    +0.000 OA
ATOM      2  C   UNL     1      -1.438  15.858  20.431  0.00  0.00    +0.000 C 
ATOM      3  C   UNL     1      -2.846  15.325  20.760  0.00  0.00    +0.000 C 
ATOM      4  C   UNL     1      -3.267  14.882  22.155  0.00  0.00    +0.000 C 
ATOM      5  C   UNL     1      -3.230  13.360  22.348  0.00  0.00    +0.000 C 
ATOM      6  C   UNL     1      -2.084  12.908  23.246  0.00  0.00    +0.000 C 
ATOM      7  C   UNL     1      -1.415  11.690  22.726  0.00  0.00    +0.000 A 
ATOM      8  C   UNL     1      -1.305  10.411  23.326  0.00  0.00    +0.000 A 
ATOM      9  N   UNL     1      -0.489   9.590  22.651  0.00  0.00    +0.000 NA
ATOM     10  N   UNL     1      -0.146  10.345  21.581  0.00  0.00    +0.000 N 
ATOM     11  C   UNL     1       0.778   9.972  20.608  0.00  0.00    +0.000 A 
ATOM     12  N   UNL     1       1.464   8.791  20.814  0.00  0.00    +0.000 N 
ATOM     13  N   UNL     1       0.947  10.771  19.591  0.00  0.00    +0.000 NA
ATOM     14  C   UNL     1       0.200  11.926  19.480  0.00  0.00    +0.000 A 
ATOM     15  N   UNL     1      -0.651  12.318  20.401  0.00  0.00    +0.000 NA
ATOM     16  C   UNL     1      -0.776  11.547  21.510  0.00  0.00    +0.000 A 
ATOM     17  N   UNL     1       0.364  12.689  18.327  0.00  0.00    +0.000 N 
ATOM     18  C   UNL     1       1.336  13.799  18.417  0.00  0.00    +0.000 A 
ATOM     19  C   UNL     1       2.613  13.444  18.845  0.00  0.00    +0.000 A 
ATOM     20  C   UNL     1       2.941  13.801  20.158  0.00  0.00    +0.000 A 
ATOM     21  C   UNL     1       1.992  14.491  20.940  0.00  0.00    +0.000 A 
ATOM     22  C   UNL     1       0.869  15.048  20.325  0.00  0.00    +0.000 A 
ATOM     23  C   UNL     1       0.820  14.987  18.938  0.00  0.00    +0.000 A 
ATOM     24  N   UNL     1      -0.339  15.288  21.036  0.00  0.00    +0.000 N 
ATOM     25  H   UNL     1       1.251   8.290  21.674  0.00  0.00    +0.000 HD
ATOM     26  H   UNL     1      -0.511  13.167  18.119  0.00  0.00    +0.000 HD
ATOM     27  H   UNL     1      -0.444  14.777  21.898  0.00  0.00    +0.000 HD
ENDROOT
BRANCH  12  28
ATOM     28  C   UNL     1       2.021   8.027  19.782  0.00  0.00    +0.000 A 
ATOM     29  C   UNL     1       2.101   8.548  18.486  0.00  0.00    +0.000 A 
ATOM     30  C   UNL     1       2.548   7.753  17.426  0.00  0.00    +0.000 A 
ATOM     31  C   UNL     1       2.958   6.438  17.656  0.00  0.00    +0.000 A 
ATOM     32  C   UNL     1       2.932   5.923  18.952  0.00  0.00    +0.000 A 
ATOM     33  C   UNL     1       2.442   6.713  19.995  0.00  0.00    +0.000 A 
BRANCH  32  34
ATOM     34  C   UNL     1       3.375   4.533  19.223  0.00  0.00    +0.000 C 
ATOM     35  O   UNL     1       4.558   4.289  19.429  0.00  0.00    +0.000 OA
ATOM     36  N   UNL     1       2.387   3.573  19.185  0.00  0.00    +0.000 N 
ATOM     37  C   UNL     1       2.557   2.143  19.446  0.00  0.00    +0.000 C 
ATOM     38  C   UNL     1       1.011   2.113  19.530  0.00  0.00    +0.000 C 
ATOM     39  C   UNL     1       1.121   3.602  19.932  0.00  0.00    +0.000 C 
BRANCH  38  40
ATOM     40  O   UNL     1       0.300   1.848  18.294  0.00  0.00    +0.000 OA
ATOM     41  H   UNL     1      -0.638   1.983  18.526  0.00  0.00    +0.000 HD
ENDBRANCH  38  40
ENDBRANCH  32  34
ENDBRANCH  12  28
TORSDOF 3
ENDMDL
MODEL 2
REMARK VINA RESULT:      -9.3      0.927      1.462
REMARK  Name = 
REMARK  3 active torsions:
REMARK  status: ('A' for Active; 'I' for Inactive)
REMARK    1  A    between atoms: N_12  and  C_13
REMARK    2  A    between atoms: C_17  and  C_18
REMARK    3  A    between atoms: C_22  and  O_23
REMARK                            x       y       z     vdW  Elec       q    Type
REMARK                         _______ _______ _______ _____ _____    ______ ____
ROOT
ATOM      1  O   UNL     1      -1.526  16.198  19.595  0.00  0.00    +0.000 OA
ATOM      2  C   UNL     1      -1.526  15.351  20.485  0.00  0.00    +0.000 C 
ATOM      3  C   UNL     1      -2.885  14.772  20.923  0.00  0.00    +0.000 C 
ATOM      4  C   UNL     1      -3.186  14.331  22.349  0.00  0.00    +0.000 C 
ATOM      5  C   UNL     1      -3.080  12.814  22.553  0.00  0.00    +0.000 C 
ATOM      6  C   UNL     1      -1.856  12.414  23.368  0.00  0.00    +0.000 C 
ATOM      7  C   UNL     1      -1.182  11.215  22.811  0.00  0.00    +0.000 A 
ATOM      8  C   UNL     1      -0.982   9.948  23.414  0.00  0.00    +0.000 A 
ATOM      9  N   UNL     1      -0.188   9.149  22.688  0.00  0.00    +0.000 NA
ATOM     10  N   UNL     1       0.047   9.902  21.589  0.00  0.00    +0.000 N 
ATOM     11  C   UNL     1       0.910   9.550  20.554  0.00  0.00    +0.000 A 
ATOM     12  N   UNL     1       1.653   8.397  20.720  0.00  0.00    +0.000 N 
ATOM     13  N   UNL     1       0.975  10.342  19.520  0.00  0.00    +0.000 NA
ATOM     14  C   UNL     1       0.180  11.469  19.453  0.00  0.00    +0.000 A 
ATOM     15  N   UNL     1      -0.615  11.841  20.431  0.00  0.00    +0.000 NA
ATOM     16  C   UNL     1      -0.630  11.080  21.553  0.00  0.00    +0.000 A 
ATOM     17  N   UNL     1       0.232  12.223  18.284  0.00  0.00    +0.000 N 
ATOM     18  C   UNL     1       1.166  13.368  18.292  0.00  0.00    +0.000 A 
ATOM     19  C   UNL     1       2.484  13.064  18.628  0.00  0.00    +0.000 A 
ATOM     20  C   UNL     1       2.894  13.449  19.910  0.00  0.00    +0.000 A 
ATOM     21  C   UNL     1       1.979  14.113  20.752  0.00  0.00    +0.000 A 
ATOM     22  C   UNL     1       0.795  14.623  20.217  0.00  0.00    +0.000 A 
ATOM     23  C   UNL     1       0.646  14.543  18.838  0.00  0.00    +0.000 A 
ATOM     24  N   UNL     1      -0.365  14.828  21.013  0.00  0.00    +0.000 N 
ATOM     25  H   UNL     1       1.521   7.900  21.598  0.00  0.00    +0.000 HD
ATOM     26  H   UNL     1      -0.673  12.667  18.137  0.00  0.00    +0.000 HD
ATOM     27  H   UNL     1      -0.388  14.324  21.885  0.00  0.00    +0.000 HD
ENDROOT
BRANCH  12  28
ATOM     28  C   UNL     1       2.160   7.641  19.657  0.00  0.00    +0.000 A 
ATOM     29  C   UNL     1       2.843   8.270  18.610  0.00  0.00    +0.000 A 
ATOM     30  C   UNL     1       3.252   7.541  17.488  0.00  0.00    +0.000 A 
ATOM     31  C   UNL     1       3.017   6.166  17.418  0.00  0.00    +0.000 A 
ATOM     32  C   UNL     1       2.384   5.519  18.478  0.00  0.00    +0.000 A 
ATOM     33  C   UNL     1       1.941   6.265  19.573  0.00  0.00    +0.000 A 
BRANCH  32  34
ATOM     34  C   UNL     1       2.135   4.057  18.432  0.00  0.00    +0.000 C 
ATOM     35  O   UNL     1       1.140   3.614  17.870  0.00  0.00    +0.000 OA
ATOM     36  N   UNL     1       3.063   3.272  19.084  0.00  0.00    +0.000 N 
ATOM     37  C   UNL     1       3.063   1.811  19.158  0.00  0.00    +0.000 C 
ATOM     38  C   UNL     1       4.516   1.972  19.669  0.00  0.00    +0.000 C 
ATOM     39  C   UNL     1       4.519   3.303  18.883  0.00  0.00    +0.000 C 
BRANCH  38  40
ATOM     40  O   UNL     1       4.689   2.090  21.104  0.00  0.00    +0.000 OA
ATOM     41  H   UNL     1       5.599   2.429  21.206  0.00  0.00    +0.000 HD
ENDBRANCH  38  40
ENDBRANCH  32  34
ENDBRANCH  12  28
TORSDOF 3
ENDMDL
MODEL 3
REMARK VINA RESULT:      -9.0      1.623      2.269
REMARK  Name = 
REMARK  3 active torsions:
REMARK  status: ('A' for Active; 'I' for Inactive)
REMARK    1  A    between atoms: N_12  and  C_13
REMARK    2  A    between atoms: C_17  and  C_18
REMARK    3  A    between atoms: C_22  and  O_23
REMARK                            x       y       z     vdW  Elec       q    Type
REMARK                         _______ _______ _______ _____ _____    ______ ____
ROOT
ATOM      1  O   UNL     1      -2.718  17.432  19.587  0.00  0.00    +0.000 OA
ATOM      2  C   UNL     1      -2.709  16.604  20.494  0.00  0.00    +0.000 C 
ATOM      3  C   UNL     1      -4.052  15.958  20.887  0.00  0.00    +0.000 C 
ATOM      4  C   UNL     1      -4.389  15.528  22.308  0.00  0.00    +0.000 C 
ATOM      5  C   UNL     1      -4.208  14.024  22.549  0.00  0.00    +0.000 C 
ATOM      6  C   UNL     1      -2.999  13.708  23.422  0.00  0.00    +0.000 C 
ATOM      7  C   UNL     1      -2.237  12.538  22.920  0.00  0.00    +0.000 A 
ATOM      8  C   UNL     1      -1.993  11.296  23.557  0.00  0.00    +0.000 A 
ATOM      9  N   UNL     1      -1.127  10.529  22.883  0.00  0.00    +0.000 NA
ATOM     10  N   UNL     1      -0.886  11.273  21.778  0.00  0.00    +0.000 N 
ATOM     11  C   UNL     1       0.038  10.951  20.787  0.00  0.00    +0.000 A 
ATOM     12  N   UNL     1       0.835   9.845  21.009  0.00  0.00    +0.000 N 
ATOM     13  N   UNL     1       0.103  11.726  19.741  0.00  0.00    +0.000 NA
ATOM     14  C   UNL     1      -0.749  12.805  19.617  0.00  0.00    +0.000 A 
ATOM     15  N   UNL     1      -1.604  13.150  20.552  0.00  0.00    +0.000 NA
ATOM     16  C   UNL     1      -1.625  12.411  21.689  0.00  0.00    +0.000 A 
ATOM     17  N   UNL     1      -0.689  13.538  18.435  0.00  0.00    +0.000 N 
ATOM     18  C   UNL     1       0.179  14.734  18.458  0.00  0.00    +0.000 A 
ATOM     19  C   UNL     1       1.496  14.510  18.855  0.00  0.00    +0.000 A 
ATOM     20  C   UNL     1       1.829  14.942  20.144  0.00  0.00    +0.000 A 
ATOM     21  C   UNL     1       0.845  15.570  20.933  0.00  0.00    +0.000 A 
ATOM     22  C   UNL     1      -0.342  16.002  20.338  0.00  0.00    +0.000 A 
ATOM     23  C   UNL     1      -0.427  15.888  18.956  0.00  0.00    +0.000 A 
ATOM     24  N   UNL     1      -1.545  16.157  21.081  0.00  0.00    +0.000 N 
ATOM     25  H   UNL     1       0.694   9.358  21.891  0.00  0.00    +0.000 HD
ATOM     26  H   UNL     1      -1.610  13.928  18.241  0.00  0.00    +0.000 HD
ATOM     27  H   UNL     1      -1.577  15.669  21.962  0.00  0.00    +0.000 HD
ENDROOT
BRANCH  12  28
ATOM     28  C   UNL     1       1.429   9.098  19.985  0.00  0.00    +0.000 A 
ATOM     29  C   UNL     1       1.575   9.650  18.707  0.00  0.00    +0.000 A 
ATOM     30  C   UNL     1       2.060   8.875  17.648  0.00  0.00    +0.000 A 
ATOM     31  C   UNL     1       2.440   7.549  17.864  0.00  0.00    +0.000 A 
ATOM     32  C   UNL     1       2.347   7.002  19.143  0.00  0.00    +0.000 A 
ATOM     33  C   UNL     1       1.821   7.773  20.183  0.00  0.00    +0.000 A 
BRANCH  32  34
ATOM     34  C   UNL     1       2.758   5.600  19.399  0.00  0.00    +0.000 C 
ATOM     35  O   UNL     1       1.923   4.754  19.696  0.00  0.00    +0.000 OA
ATOM     36  N   UNL     1       4.111   5.349  19.317  0.00  0.00    +0.000 N 
ATOM     37  C   UNL     1       4.764   4.051  19.494  0.00  0.00    +0.000 C 
ATOM     38  C   UNL     1       6.003   4.744  18.874  0.00  0.00    +0.000 C 
ATOM     39  C   UNL     1       4.987   5.682  18.185  0.00  0.00    +0.000 C 
BRANCH  38  40
ATOM     40  O   UNL     1       6.920   5.381  19.799  0.00  0.00    +0.000 OA
ATOM     41  H   UNL     1       6.682   5.004  20.667  0.00  0.00    +0.000 HD
ENDBRANCH  38  40
ENDBRANCH  32  34
ENDBRANCH  12  28
TORSDOF 3
ENDMDL
MODEL 4
REMARK VINA RESULT:      -8.8      1.270      1.427
REMARK  Name = 
REMARK  3 active torsions:
REMARK  status: ('A' for Active; 'I' for Inactive)
REMARK    1  A    between atoms: N_12  and  C_13
REMARK    2  A    between atoms: C_17  and  C_18
REMARK    3  A    between atoms: C_22  and  O_23
REMARK                            x       y       z     vdW  Elec       q    Type
REMARK                         _______ _______ _______ _____ _____    ______ ____
ROOT
ATOM      1  O   UNL     1      -0.658  17.442  19.163  0.00  0.00    +0.000 OA
ATOM      2  C   UNL     1      -0.933  16.672  20.079  0.00  0.00    +0.000 C 
ATOM      3  C   UNL     1      -2.419  16.336  20.310  0.00  0.00    +0.000 C 
ATOM      4  C   UNL     1      -3.008  16.049  21.685  0.00  0.00    +0.000 C 
ATOM      5  C   UNL     1      -3.178  14.552  21.976  0.00  0.00    +0.000 C 
ATOM      6  C   UNL     1      -2.177  14.034  23.001  0.00  0.00    +0.000 C 
ATOM      7  C   UNL     1      -1.624  12.711  22.623  0.00  0.00    +0.000 A 
ATOM      8  C   UNL     1      -1.725  11.475  23.309  0.00  0.00    +0.000 A 
ATOM      9  N   UNL     1      -0.965  10.516  22.765  0.00  0.00    +0.000 NA
ATOM     10  N   UNL     1      -0.441  11.143  21.686  0.00  0.00    +0.000 N 
ATOM     11  C   UNL     1       0.507  10.592  20.828  0.00  0.00    +0.000 A 
ATOM     12  N   UNL     1       1.021   9.357  21.170  0.00  0.00    +0.000 N 
ATOM     13  N   UNL     1       0.859  11.289  19.784  0.00  0.00    +0.000 NA
ATOM     14  C   UNL     1       0.275  12.514  19.532  0.00  0.00    +0.000 A 
ATOM     15  N   UNL     1      -0.595  13.070  20.344  0.00  0.00    +0.000 NA
ATOM     16  C   UNL     1      -0.908  12.403  21.482  0.00  0.00    +0.000 A 
ATOM     17  N   UNL     1       0.629  13.165  18.353  0.00  0.00    +0.000 N 
ATOM     18  C   UNL     1       1.721  14.155  18.463  0.00  0.00    +0.000 A 
ATOM     19  C   UNL     1       2.904  13.683  19.029  0.00  0.00    +0.000 A 
ATOM     20  C   UNL     1       3.162  14.095  20.342  0.00  0.00    +0.000 A 
ATOM     21  C   UNL     1       2.244  14.947  20.987  0.00  0.00    +0.000 A 
ATOM     22  C   UNL     1       1.255  15.588  20.238  0.00  0.00    +0.000 A 
ATOM     23  C   UNL     1       1.315  15.431  18.859  0.00  0.00    +0.000 A 
ATOM     24  N   UNL     1       0.031  16.021  20.818  0.00  0.00    +0.000 N 
ATOM     25  H   UNL     1       0.675   8.950  22.036  0.00  0.00    +0.000 HD
ATOM     26  H   UNL     1      -0.159  13.727  18.036  0.00  0.00    +0.000 HD
ATOM     27  H   UNL     1      -0.208  15.591  21.697  0.00  0.00    +0.000 HD
ENDROOT
BRANCH  12  28
ATOM     28  C   UNL     1       1.562   8.458  20.244  0.00  0.00    +0.000 A 
ATOM     29  C   UNL     1       1.766   8.854  18.917  0.00  0.00    +0.000 A 
ATOM     30  C   UNL     1       2.198   7.932  17.958  0.00  0.00    +0.000 A 
ATOM     31  C   UNL     1       2.468   6.611  18.323  0.00  0.00    +0.000 A 
ATOM     32  C   UNL     1       2.318   6.217  19.652  0.00  0.00    +0.000 A 
ATOM     33  C   UNL     1       1.845   7.136  20.592  0.00  0.00    +0.000 A 
BRANCH  32  34
ATOM     34  C   UNL     1       2.612   4.823  20.066  0.00  0.00    +0.000 C 
ATOM     35  O   UNL     1       2.392   4.458  21.215  0.00  0.00    +0.000 OA
ATOM     36  N   UNL     1       3.169   4.017  19.096  0.00  0.00    +0.000 N 
ATOM     37  C   UNL     1       3.521   2.604  19.241  0.00  0.00    +0.000 C 
ATOM     38  C   UNL     1       3.640   2.615  17.697  0.00  0.00    +0.000 C 
ATOM     39  C   UNL     1       2.634   3.788  17.746  0.00  0.00    +0.000 C 
BRANCH  38  40
ATOM     40  O   UNL     1       4.945   2.930  17.150  0.00  0.00    +0.000 OA
ATOM     41  H   UNL     1       5.497   2.164  17.398  0.00  0.00    +0.000 HD
ENDBRANCH  38  40
ENDBRANCH  32  34
ENDBRANCH  12  28
TORSDOF 3
ENDMDL
MODEL 5
REMARK VINA RESULT:      -8.8      1.714      2.360
REMARK  Name = 
REMARK  3 active torsions:
REMARK  status: ('A' for Active; 'I' for Inactive)
REMARK    1  A    between atoms: N_12  and  C_13
REMARK    2  A    between atoms: C_17  and  C_18
REMARK    3  A    between atoms: C_22  and  O_23
REMARK                            x       y       z     vdW  Elec       q    Type
REMARK                         _______ _______ _______ _____ _____    ______ ____
ROOT
ATOM      1  O   UNL     1       0.025  18.184  20.536  0.00  0.00    +0.000 OA
ATOM      2  C   UNL     1      -0.374  17.285  21.272  0.00  0.00    +0.000 C 
ATOM      3  C   UNL     1      -1.894  17.047  21.352  0.00  0.00    +0.000 C 
ATOM      4  C   UNL     1      -2.600  16.564  22.612  0.00  0.00    +0.000 C 
ATOM      5  C   UNL     1      -2.907  15.061  22.601  0.00  0.00    +0.000 C 
ATOM      6  C   UNL     1      -2.025  14.273  23.562  0.00  0.00    +0.000 C 
ATOM      7  C   UNL     1      -1.551  12.998  22.968  0.00  0.00    +0.000 A 
ATOM      8  C   UNL     1      -1.798  11.671  23.399  0.00  0.00    +0.000 A 
ATOM      9  N   UNL     1      -1.078  10.765  22.724  0.00  0.00    +0.000 NA
ATOM     10  N   UNL     1      -0.432  11.533  21.815  0.00  0.00    +0.000 N 
ATOM     11  C   UNL     1       0.529  11.068  20.920  0.00  0.00    +0.000 A 
ATOM     12  N   UNL     1       0.919   9.749  21.048  0.00  0.00    +0.000 N 
ATOM     13  N   UNL     1       1.008  11.912  20.050  0.00  0.00    +0.000 NA
ATOM     14  C   UNL     1       0.540  13.210  20.005  0.00  0.00    +0.000 A 
ATOM     15  N   UNL     1      -0.339  13.682  20.860  0.00  0.00    +0.000 NA
ATOM     16  C   UNL     1      -0.783  12.845  21.831  0.00  0.00    +0.000 A 
ATOM     17  N   UNL     1       1.027  14.034  18.994  0.00  0.00    +0.000 N 
ATOM     18  C   UNL     1       2.183  14.883  19.352  0.00  0.00    +0.000 A 
ATOM     19  C   UNL     1       3.282  14.210  19.880  0.00  0.00    +0.000 A 
ATOM     20  C   UNL     1       3.478  14.345  21.260  0.00  0.00    +0.000 A 
ATOM     21  C   UNL     1       2.586  15.142  22.005  0.00  0.00    +0.000 A 
ATOM     22  C   UNL     1       1.706  15.997  21.339  0.00  0.00    +0.000 A 
ATOM     23  C   UNL     1       1.851  16.095  19.961  0.00  0.00    +0.000 A 
ATOM     24  N   UNL     1       0.482  16.423  21.924  0.00  0.00    +0.000 N 
ATOM     25  H   UNL     1       0.482   9.220  21.799  0.00  0.00    +0.000 HD
ATOM     26  H   UNL     1       0.311  14.714  18.748  0.00  0.00    +0.000 HD
ATOM     27  H   UNL     1       0.147  15.861  22.689  0.00  0.00    +0.000 HD
ENDROOT
BRANCH  12  28
ATOM     28  C   UNL     1       1.453   8.993  19.997  0.00  0.00    +0.000 A 
ATOM     29  C   UNL     1       1.494   9.520  18.702  0.00  0.00    +0.000 A 
ATOM     30  C   UNL     1       1.918   8.733  17.626  0.00  0.00    +0.000 A 
ATOM     31  C   UNL     1       2.342   7.420  17.840  0.00  0.00    +0.000 A 
ATOM     32  C   UNL     1       2.355   6.899  19.133  0.00  0.00    +0.000 A 
ATOM     33  C   UNL     1       1.889   7.681  20.193  0.00  0.00    +0.000 A 
BRANCH  32  34
ATOM     34  C   UNL     1       2.815   5.512  19.386  0.00  0.00    +0.000 C 
ATOM     35  O   UNL     1       2.009   4.632  19.665  0.00  0.00    +0.000 OA
ATOM     36  N   UNL     1       4.178   5.313  19.322  0.00  0.00    +0.000 N 
ATOM     37  C   UNL     1       4.878   4.040  19.501  0.00  0.00    +0.000 C 
ATOM     38  C   UNL     1       6.098   4.783  18.903  0.00  0.00    +0.000 C 
ATOM     39  C   UNL     1       5.057   5.687  18.205  0.00  0.00    +0.000 C 
BRANCH  38  40
ATOM     40  O   UNL     1       6.977   5.448  19.846  0.00  0.00    +0.000 OA
ATOM     41  H   UNL     1       7.034   6.363  19.511  0.00  0.00    +0.000 HD
ENDBRANCH  38  40
ENDBRANCH  32  34
ENDBRANCH  12  28
TORSDOF 3
ENDMDL
MODEL 6
REMARK VINA RESULT:      -8.4      4.558      7.839
REMARK  Name = 
REMARK  3 active torsions:
REMARK  status: ('A' for Active; 'I' for Inactive)
REMARK    1  A    between atoms: N_12  and  C_13
REMARK    2  A    between atoms: C_17  and  C_18
REMARK    3  A    between atoms: C_22  and  O_23
REMARK                            x       y       z     vdW  Elec       q    Type
REMARK                         _______ _______ _______ _____ _____    ______ ____
ROOT
ATOM      1  O   UNL     1      -6.079  13.427  19.652  0.00  0.00    +0.000 OA
ATOM      2  C   UNL     1      -5.189  12.618  19.401  0.00  0.00    +0.000 C 
ATOM      3  C   UNL     1      -4.979  12.221  17.927  0.00  0.00    +0.000 C 
ATOM      4  C   UNL     1      -4.513  10.837  17.492  0.00  0.00    +0.000 C 
ATOM      5  C   UNL     1      -3.015  10.773  17.166  0.00  0.00    +0.000 C 
ATOM      6  C   UNL     1      -2.215  10.012  18.215  0.00  0.00    +0.000 C 
ATOM      7  C   UNL     1      -0.931  10.682  18.534  0.00  0.00    +0.000 A 
ATOM      8  C   UNL     1       0.391  10.199  18.361  0.00  0.00    +0.000 A 
ATOM      9  N   UNL     1       1.312  11.003  18.909  0.00  0.00    +0.000 NA
ATOM     10  N   UNL     1       0.559  12.032  19.364  0.00  0.00    +0.000 N 
ATOM     11  C   UNL     1       1.044  13.104  20.109  0.00  0.00    +0.000 A 
ATOM     12  N   UNL     1       2.369  13.051  20.495  0.00  0.00    +0.000 N 
ATOM     13  N   UNL     1       0.212  14.061  20.410  0.00  0.00    +0.000 NA
ATOM     14  C   UNL     1      -1.094  14.017  19.965  0.00  0.00    +0.000 A 
ATOM     15  N   UNL     1      -1.584  13.001  19.291  0.00  0.00    +0.000 NA
ATOM     16  C   UNL     1      -0.760  11.953  19.045  0.00  0.00    +0.000 A 
ATOM     17  N   UNL     1      -1.905  15.113  20.244  0.00  0.00    +0.000 N 
ATOM     18  C   UNL     1      -2.736  15.011  21.462  0.00  0.00    +0.000 A 
ATOM     19  C   UNL     1      -2.045  14.718  22.636  0.00  0.00    +0.000 A 
ATOM     20  C   UNL     1      -2.182  13.411  23.117  0.00  0.00    +0.000 A 
ATOM     21  C   UNL     1      -2.998  12.501  22.413  0.00  0.00    +0.000 A 
ATOM     22  C   UNL     1      -3.866  12.976  21.428  0.00  0.00    +0.000 A 
ATOM     23  C   UNL     1      -3.956  14.354  21.285  0.00  0.00    +0.000 A 
ATOM     24  N   UNL     1      -4.315  12.152  20.360  0.00  0.00    +0.000 N 
ATOM     25  H   UNL     1       2.887  12.221  20.216  0.00  0.00    +0.000 HD
ATOM     26  H   UNL     1      -2.597  15.210  19.502  0.00  0.00    +0.000 HD
ATOM     27  H   UNL     1      -3.762  11.329  20.183  0.00  0.00    +0.000 HD
ENDROOT
BRANCH  12  28
ATOM     28  C   UNL     1       3.138  14.184  20.786  0.00  0.00    +0.000 A 
ATOM     29  C   UNL     1       2.955  14.867  21.994  0.00  0.00    +0.000 A 
ATOM     30  C   UNL     1       3.634  16.063  22.245  0.00  0.00    +0.000 A 
ATOM     31  C   UNL     1       4.535  16.571  21.307  0.00  0.00    +0.000 A 
ATOM     32  C   UNL     1       4.765  15.873  20.122  0.00  0.00    +0.000 A 
ATOM     33  C   UNL     1       4.049  14.702  19.864  0.00  0.00    +0.000 A 
BRANCH  32  34
ATOM     34  C   UNL     1       5.728  16.387  19.116  0.00  0.00    +0.000 C 
ATOM     35  O   UNL     1       5.662  17.548  18.731  0.00  0.00    +0.000 OA
ATOM     36  N   UNL     1       6.641  15.470  18.641  0.00  0.00    +0.000 N 
ATOM     37  C   UNL     1       7.708  15.731  17.674  0.00  0.00    +0.000 C 
ATOM     38  C   UNL     1       8.267  14.358  18.126  0.00  0.00    +0.000 C 
ATOM     39  C   UNL     1       7.529  14.629  19.457  0.00  0.00    +0.000 C 
BRANCH  38  40
ATOM     40  O   UNL     1       7.816  13.199  17.382  0.00  0.00    +0.000 OA
ATOM     41  H   UNL     1       7.400  12.630  18.058  0.00  0.00    +0.000 HD
ENDBRANCH  38  40
ENDBRANCH  32  34
ENDBRANCH  12  28
TORSDOF 3
ENDMDL
MODEL 7
REMARK VINA RESULT:      -8.4      4.927      8.103
REMARK  Name = 
REMARK  3 active torsions:
REMARK  status: ('A' for Active; 'I' for Inactive)
REMARK    1  A    between atoms: N_12  and  C_13
REMARK    2  A    between atoms: C_17  and  C_18
REMARK    3  A    between atoms: C_22  and  O_23
REMARK                            x       y       z     vdW  Elec       q    Type
REMARK                         _______ _______ _______ _____ _____    ______ ____
ROOT
ATOM      1  O   UNL     1       2.780  13.471  17.767  0.00  0.00    +0.000 OA
ATOM      2  C   UNL     1       2.588  14.005  18.856  0.00  0.00    +0.000 C 
ATOM      3  C   UNL     1       2.712  15.539  18.932  0.00  0.00    +0.000 C 
ATOM      4  C   UNL     1       3.215  16.277  20.166  0.00  0.00    +0.000 C 
ATOM      5  C   UNL     1       2.088  16.862  21.028  0.00  0.00    +0.000 C 
ATOM      6  C   UNL     1       1.900  16.110  22.340  0.00  0.00    +0.000 C 
ATOM      7  C   UNL     1       0.467  15.906  22.667  0.00  0.00    +0.000 A 
ATOM      8  C   UNL     1      -0.267  16.383  23.782  0.00  0.00    +0.000 A 
ATOM      9  N   UNL     1      -1.504  15.871  23.845  0.00  0.00    +0.000 NA
ATOM     10  N   UNL     1      -1.562  15.125  22.717  0.00  0.00    +0.000 N 
ATOM     11  C   UNL     1      -2.628  14.302  22.362  0.00  0.00    +0.000 A 
ATOM     12  N   UNL     1      -3.647  14.163  23.284  0.00  0.00    +0.000 N 
ATOM     13  N   UNL     1      -2.575  13.704  21.205  0.00  0.00    +0.000 NA
ATOM     14  C   UNL     1      -1.509  13.920  20.355  0.00  0.00    +0.000 A 
ATOM     15  N   UNL     1      -0.476  14.664  20.680  0.00  0.00    +0.000 NA
ATOM     16  C   UNL     1      -0.468  15.222  21.916  0.00  0.00    +0.000 A 
ATOM     17  N   UNL     1      -1.558  13.323  19.098  0.00  0.00    +0.000 N 
ATOM     18  C   UNL     1      -0.878  12.017  18.975  0.00  0.00    +0.000 A 
ATOM     19  C   UNL     1      -1.275  11.046  19.892  0.00  0.00    +0.000 A 
ATOM     20  C   UNL     1      -0.373  10.778  20.929  0.00  0.00    +0.000 A 
ATOM     21  C   UNL     1       0.850  11.477  20.972  0.00  0.00    +0.000 A 
ATOM     22  C   UNL     1       1.268  12.204  19.856  0.00  0.00    +0.000 A 
ATOM     23  C   UNL     1       0.490  12.092  18.710  0.00  0.00    +0.000 A 
ATOM     24  N   UNL     1       2.162  13.304  19.963  0.00  0.00    +0.000 N 
ATOM     25  H   UNL     1      -3.532  14.664  24.162  0.00  0.00    +0.000 HD
ATOM     26  H   UNL     1      -1.053  13.908  18.435  0.00  0.00    +0.000 HD
ATOM     27  H   UNL     1       2.241  13.711  20.881  0.00  0.00    +0.000 HD
ENDROOT
BRANCH  12  28
ATOM     28  C   UNL     1      -4.960  13.818  22.942  0.00  0.00    +0.000 A 
ATOM     29  C   UNL     1      -6.037  14.365  23.650  0.00  0.00    +0.000 A 
ATOM     30  C   UNL     1      -7.345  13.941  23.394  0.00  0.00    +0.000 A 
ATOM     31  C   UNL     1      -7.596  12.992  22.401  0.00  0.00    +0.000 A 
ATOM     32  C   UNL     1      -6.537  12.478  21.654  0.00  0.00    +0.000 A 
ATOM     33  C   UNL     1      -5.231  12.877  21.948  0.00  0.00    +0.000 A 
BRANCH  32  34
ATOM     34  C   UNL     1      -6.781  11.478  20.584  0.00  0.00    +0.000 C 
ATOM     35  O   UNL     1      -7.481  10.497  20.801  0.00  0.00    +0.000 OA
ATOM     36  N   UNL     1      -6.145  11.720  19.386  0.00  0.00    +0.000 N 
ATOM     37  C   UNL     1      -6.246  10.908  18.172  0.00  0.00    +0.000 C 
ATOM     38  C   UNL     1      -5.587  12.121  17.469  0.00  0.00    +0.000 C 
ATOM     39  C   UNL     1      -6.205  12.965  18.607  0.00  0.00    +0.000 C 
BRANCH  38  40
ATOM     40  O   UNL     1      -4.139  12.122  17.401  0.00  0.00    +0.000 OA
ATOM     41  H   UNL     1      -3.858  11.905  18.310  0.00  0.00    +0.000 HD
ENDBRANCH  38  40
ENDBRANCH  32  34
ENDBRANCH  12  28
TORSDOF 3
ENDMDL
MODEL 8
REMARK VINA RESULT:      -8.3      2.001      2.908
REMARK  Name = 
REMARK  3 active torsions:
REMARK  status: ('A' for Active; 'I' for Inactive)
REMARK    1  A    between atoms: N_12  and  C_13
REMARK    2  A    between atoms: C_17  and  C_18
REMARK    3  A    between atoms: C_22  and  O_23
REMARK                            x       y       z     vdW  Elec       q    Type
REMARK                         _______ _______ _______ _____ _____    ______ ____
ROOT
ATOM      1  O   UNL     1      -1.371  15.550  19.246  0.00  0.00    +0.000 OA
ATOM      2  C   UNL     1      -1.309  14.786  20.206  0.00  0.00    +0.000 C 
ATOM      3  C   UNL     1      -2.636  14.299  20.820  0.00  0.00    +0.000 C 
ATOM      4  C   UNL     1      -2.810  13.998  22.303  0.00  0.00    +0.000 C 
ATOM      5  C   UNL     1      -2.728  12.503  22.635  0.00  0.00    +0.000 C 
ATOM      6  C   UNL     1      -1.443  12.131  23.365  0.00  0.00    +0.000 C 
ATOM      7  C   UNL     1      -0.860  10.863  22.860  0.00  0.00    +0.000 A 
ATOM      8  C   UNL     1      -0.639   9.648  23.556  0.00  0.00    +0.000 A 
ATOM      9  N   UNL     1       0.057   8.758  22.836  0.00  0.00    +0.000 NA
ATOM     10  N   UNL     1       0.207   9.402  21.654  0.00  0.00    +0.000 N 
ATOM     11  C   UNL     1       0.956   8.927  20.580  0.00  0.00    +0.000 A 
ATOM     12  N   UNL     1       1.678   7.767  20.781  0.00  0.00    +0.000 N 
ATOM     13  N   UNL     1       0.943   9.622  19.476  0.00  0.00    +0.000 NA
ATOM     14  C   UNL     1       0.178  10.767  19.381  0.00  0.00    +0.000 A 
ATOM     15  N   UNL     1      -0.508  11.254  20.390  0.00  0.00    +0.000 NA
ATOM     16  C   UNL     1      -0.436  10.596  21.574  0.00  0.00    +0.000 A 
ATOM     17  N   UNL     1       0.138  11.411  18.147  0.00  0.00    +0.000 N 
ATOM     18  C   UNL     1       1.101  12.517  17.963  0.00  0.00    +0.000 A 
ATOM     19  C   UNL     1       2.436  12.196  18.200  0.00  0.00    +0.000 A 
ATOM     20  C   UNL     1       2.979  12.677  19.397  0.00  0.00    +0.000 A 
ATOM     21  C   UNL     1       2.169  13.448  20.257  0.00  0.00    +0.000 A 
ATOM     22  C   UNL     1       0.953  13.951  19.790  0.00  0.00    +0.000 A 
ATOM     23  C   UNL     1       0.671  13.754  18.444  0.00  0.00    +0.000 A 
ATOM     24  N   UNL     1      -0.118  14.269  20.669  0.00  0.00    +0.000 N 
ATOM     25  H   UNL     1       1.618   7.355  21.710  0.00  0.00    +0.000 HD
ATOM     26  H   UNL     1      -0.764  11.874  18.045  0.00  0.00    +0.000 HD
ATOM     27  H   UNL     1      -0.071  13.846  21.582  0.00  0.00    +0.000 HD
ENDROOT
BRANCH  12  28
ATOM     28  C   UNL     1       2.058   6.901  19.750  0.00  0.00    +0.000 A 
ATOM     29  C   UNL     1       1.370   5.699  19.551  0.00  0.00    +0.000 A 
ATOM     30  C   UNL     1       1.812   4.774  18.600  0.00  0.00    +0.000 A 
ATOM     31  C   UNL     1       2.927   5.058  17.809  0.00  0.00    +0.000 A 
ATOM     32  C   UNL     1       3.591   6.274  17.961  0.00  0.00    +0.000 A 
ATOM     33  C   UNL     1       3.166   7.171  18.944  0.00  0.00    +0.000 A 
BRANCH  32  34
ATOM     34  C   UNL     1       4.770   6.603  17.122  0.00  0.00    +0.000 C 
ATOM     35  O   UNL     1       4.664   7.382  16.182  0.00  0.00    +0.000 OA
ATOM     36  N   UNL     1       5.939   5.953  17.453  0.00  0.00    +0.000 N 
ATOM     37  C   UNL     1       7.240   6.124  16.805  0.00  0.00    +0.000 C 
ATOM     38  C   UNL     1       7.801   5.370  18.036  0.00  0.00    +0.000 C 
ATOM     39  C   UNL     1       6.561   5.912  18.785  0.00  0.00    +0.000 C 
BRANCH  38  40
ATOM     40  O   UNL     1       7.887   3.927  17.928  0.00  0.00    +0.000 OA
ATOM     41  H   UNL     1       7.676   3.608  18.826  0.00  0.00    +0.000 HD
ENDBRANCH  38  40
ENDBRANCH  32  34
ENDBRANCH  12  28
TORSDOF 3
ENDMDL
MODEL 9
REMARK VINA RESULT:      -8.3      4.187      6.516
REMARK  Name = 
REMARK  3 active torsions:
REMARK  status: ('A' for Active; 'I' for Inactive)
REMARK    1  A    between atoms: N_12  and  C_13
REMARK    2  A    between atoms: C_17  and  C_18
REMARK    3  A    between atoms: C_22  and  O_23
REMARK                            x       y       z     vdW  Elec       q    Type
REMARK                         _______ _______ _______ _____ _____    ______ ____
ROOT
ATOM      1  O   UNL     1      -3.419  17.184  25.327  0.00  0.00    +0.000 OA
ATOM      2  C   UNL     1      -4.398  16.780  24.705  0.00  0.00    +0.000 C 
ATOM      3  C   UNL     1      -5.213  17.814  23.904  0.00  0.00    +0.000 C 
ATOM      4  C   UNL     1      -6.719  17.714  23.699  0.00  0.00    +0.000 C 
ATOM      5  C   UNL     1      -7.111  17.141  22.331  0.00  0.00    +0.000 C 
ATOM      6  C   UNL     1      -7.674  15.727  22.423  0.00  0.00    +0.000 C 
ATOM      7  C   UNL     1      -7.158  14.849  21.344  0.00  0.00    +0.000 A 
ATOM      8  C   UNL     1      -7.876  14.188  20.316  0.00  0.00    +0.000 A 
ATOM      9  N   UNL     1      -7.112  13.342  19.612  0.00  0.00    +0.000 NA
ATOM     10  N   UNL     1      -5.890  13.535  20.163  0.00  0.00    +0.000 N 
ATOM     11  C   UNL     1      -4.747  12.808  19.837  0.00  0.00    +0.000 A 
ATOM     12  N   UNL     1      -4.905  11.749  18.965  0.00  0.00    +0.000 N 
ATOM     13  N   UNL     1      -3.623  13.161  20.395  0.00  0.00    +0.000 NA
ATOM     14  C   UNL     1      -3.577  14.245  21.249  0.00  0.00    +0.000 A 
ATOM     15  N   UNL     1      -4.646  14.924  21.599  0.00  0.00    +0.000 NA
ATOM     16  C   UNL     1      -5.840  14.517  21.101  0.00  0.00    +0.000 A 
ATOM     17  N   UNL     1      -2.331  14.623  21.740  0.00  0.00    +0.000 N 
ATOM     18  C   UNL     1      -1.959  14.072  23.060  0.00  0.00    +0.000 A 
ATOM     19  C   UNL     1      -2.026  12.684  23.170  0.00  0.00    +0.000 A 
ATOM     20  C   UNL     1      -3.111  12.179  23.896  0.00  0.00    +0.000 A 
ATOM     21  C   UNL     1      -4.034  13.078  24.466  0.00  0.00    +0.000 A 
ATOM     22  C   UNL     1      -3.716  14.436  24.543  0.00  0.00    +0.000 A 
ATOM     23  C   UNL     1      -2.433  14.800  24.152  0.00  0.00    +0.000 A 
ATOM     24  N   UNL     1      -4.717  15.443  24.607  0.00  0.00    +0.000 N 
ATOM     25  H   UNL     1      -5.852  11.571  18.638  0.00  0.00    +0.000 HD
ATOM     26  H   UNL     1      -2.331  15.628  21.903  0.00  0.00    +0.000 HD
ATOM     27  H   UNL     1      -5.635  15.162  24.301  0.00  0.00    +0.000 HD
ENDROOT
BRANCH  12  28
ATOM     28  C   UNL     1      -3.875  11.245  18.162  0.00  0.00    +0.000 A 
ATOM     29  C   UNL     1      -4.090  11.031  16.796  0.00  0.00    +0.000 A 
ATOM     30  C   UNL     1      -3.109  10.422  16.008  0.00  0.00    +0.000 A 
ATOM     31  C   UNL     1      -1.884  10.054  16.569  0.00  0.00    +0.000 A 
ATOM     32  C   UNL     1      -1.638  10.308  17.917  0.00  0.00    +0.000 A 
ATOM     33  C   UNL     1      -2.642  10.878  18.704  0.00  0.00    +0.000 A 
BRANCH  32  34
ATOM     34  C   UNL     1      -0.339   9.938  18.532  0.00  0.00    +0.000 C 
ATOM     35  O   UNL     1       0.631   9.686  17.828  0.00  0.00    +0.000 OA
ATOM     36  N   UNL     1      -0.329   9.867  19.909  0.00  0.00    +0.000 N 
ATOM     37  C   UNL     1       0.825   9.555  20.753  0.00  0.00    +0.000 C 
ATOM     38  C   UNL     1      -0.054  10.079  21.915  0.00  0.00    +0.000 C 
ATOM     39  C   UNL     1      -0.775  10.918  20.835  0.00  0.00    +0.000 C 
BRANCH  38  40
ATOM     40  O   UNL     1      -0.874   9.098  22.599  0.00  0.00    +0.000 OA
ATOM     41  H   UNL     1      -0.269   8.697  23.252  0.00  0.00    +0.000 HD
ENDBRANCH  38  40
ENDBRANCH  32  34
ENDBRANCH  12  28
TORSDOF 3
ENDMDL
