MODEL 1
REMARK VINA RESULT:      -7.1      0.000      0.000
REMARK  Name = 
REMARK  7 active torsions:
REMARK  status: ('A' for Active; 'I' for Inactive)
REMARK    1  A    between atoms: C_1  and  C_2
REMARK    2  A    between atoms: C_2  and  N_3
REMARK    3  A    between atoms: N_7  and  S_8
REMARK    4  A    between atoms: S_8  and  C_11
REMARK    5  A    between atoms: C_15  and  C_16
REMARK    6  A    between atoms: C_16  and  S_17
REMARK    7  A    between atoms: S_17  and  C_18
REMARK                            x       y       z     vdW  Elec       q    Type
REMARK                         _______ _______ _______ _____ _____    ______ ____
ROOT
ATOM      1  S   UNL     1       6.405   6.174  16.173  0.00  0.00    +0.000 S 
ATOM      2  O   UNL     1       7.384   7.015  16.830  0.00  0.00    +0.000 OA
ATOM      3  O   UNL     1       5.474   6.740  15.218  0.00  0.00    +0.000 OA
ENDROOT
BRANCH   1   8
ATOM      4  N   UNL     1       6.301   3.581  12.458  0.00  0.00    +0.000 N 
ATOM      5  C   UNL     1       7.194   4.469  11.932  0.00  0.00    +0.000 A 
ATOM      6  C   UNL     1       7.720   5.152  13.010  0.00  0.00    +0.000 A 
ATOM      7  C   UNL     1       7.062   4.614  14.130  0.00  0.00    +0.000 A 
ATOM      8  N   UNL     1       7.267   4.932  15.455  0.00  0.00    +0.000 N 
ATOM      9  N   UNL     1       6.209   3.650  13.797  0.00  0.00    +0.000 NA
ATOM     10  H   UNL     1       8.170   4.757  15.881  0.00  0.00    +0.000 HD
BRANCH   4  12
ATOM     11  C   UNL     1       4.181   3.172  11.267  0.00  0.00    +0.000 C 
ATOM     12  C   UNL     1       5.507   2.605  11.739  0.00  0.00    +0.000 C 
ENDBRANCH   4  12
ENDBRANCH   1   8
BRANCH   1  13
ATOM     13  C   UNL     1       5.488   5.317  17.426  0.00  0.00    +0.000 A 
ATOM     14  C   UNL     1       6.008   5.210  18.717  0.00  0.00    +0.000 A 
ATOM     15  C   UNL     1       5.306   4.480  19.673  0.00  0.00    +0.000 A 
ATOM     16  C   UNL     1       4.098   3.862  19.340  0.00  0.00    +0.000 A 
ATOM     17  C   UNL     1       3.552   3.992  18.052  0.00  0.00    +0.000 A 
ATOM     18  C   UNL     1       4.254   4.741  17.098  0.00  0.00    +0.000 A 
BRANCH  17  19
ATOM     19  C   UNL     1       2.279   3.279  17.667  0.00  0.00    +0.000 C 
BRANCH  19  20
ATOM     20  S   UNL     1       1.518   2.310  19.006  0.00  0.00    +0.000 S 
ATOM     21  C   UNL     1       0.788   3.655  19.972  0.00  0.00    +0.000 C 
ENDBRANCH  19  20
ENDBRANCH  17  19
ENDBRANCH   1  13
TORSDOF 5
ENDMDL
MODEL 2
REMARK VINA RESULT:      -7.1      1.301      1.651
REMARK  Name = 
REMARK  7 active torsions:
REMARK  status: ('A' for Active; 'I' for Inactive)
REMARK    1  A    between atoms: C_1  and  C_2
REMARK    2  A    between atoms: C_2  and  N_3
REMARK    3  A    between atoms: N_7  and  S_8
REMARK    4  A    between atoms: S_8  and  C_11
REMARK    5  A    between atoms: C_15  and  C_16
REMARK    6  A    between atoms: C_16  and  S_17
REMARK    7  A    between atoms: S_17  and  C_18
REMARK                            x       y       z     vdW  Elec       q    Type
REMARK                         _______ _______ _______ _____ _____    ______ ____
ROOT
ATOM      1  S   UNL     1       5.604   6.415  16.159  0.00  0.00    +0.000 S 
ATOM      2  O   UNL     1       6.513   7.121  17.038  0.00  0.00    +0.000 OA
ATOM      3  O   UNL     1       5.113   7.045  14.950  0.00  0.00    +0.000 OA
ENDROOT
BRANCH   1   8
ATOM      4  N   UNL     1       6.049   3.554  12.673  0.00  0.00    +0.000 N 
ATOM      5  C   UNL     1       7.225   4.200  12.420  0.00  0.00    +0.000 A 
ATOM      6  C   UNL     1       7.543   4.866  13.586  0.00  0.00    +0.000 A 
ATOM      7  C   UNL     1       6.486   4.573  14.465  0.00  0.00    +0.000 A 
ATOM      8  N   UNL     1       6.354   4.968  15.779  0.00  0.00    +0.000 N 
ATOM      9  N   UNL     1       5.585   3.765  13.916  0.00  0.00    +0.000 NA
ATOM     10  H   UNL     1       7.034   4.663  16.467  0.00  0.00    +0.000 HD
BRANCH   4  12
ATOM     11  C   UNL     1       4.033   3.325  11.273  0.00  0.00    +0.000 C 
ATOM     12  C   UNL     1       5.314   2.686  11.775  0.00  0.00    +0.000 C 
ENDBRANCH   4  12
ENDBRANCH   1   8
BRANCH   1  13
ATOM     13  C   UNL     1       4.216   5.874  17.124  0.00  0.00    +0.000 A 
ATOM     14  C   UNL     1       3.543   6.783  17.941  0.00  0.00    +0.000 A 
ATOM     15  C   UNL     1       2.496   6.330  18.741  0.00  0.00    +0.000 A 
ATOM     16  C   UNL     1       2.130   4.981  18.723  0.00  0.00    +0.000 A 
ATOM     17  C   UNL     1       2.782   4.067  17.879  0.00  0.00    +0.000 A 
ATOM     18  C   UNL     1       3.824   4.531  17.065  0.00  0.00    +0.000 A 
BRANCH  17  19
ATOM     19  C   UNL     1       2.433   2.599  17.899  0.00  0.00    +0.000 C 
BRANCH  19  20
ATOM     20  S   UNL     1       3.778   1.506  18.450  0.00  0.00    +0.000 S 
ATOM     21  C   UNL     1       4.237   2.347  19.985  0.00  0.00    +0.000 C 
ENDBRANCH  19  20
ENDBRANCH  17  19
ENDBRANCH   1  13
TORSDOF 5
ENDMDL
MODEL 3
REMARK VINA RESULT:      -7.1      3.035      4.189
REMARK  Name = 
REMARK  7 active torsions:
REMARK  status: ('A' for Active; 'I' for Inactive)
REMARK    1  A    between atoms: C_1  and  C_2
REMARK    2  A    between atoms: C_2  and  N_3
REMARK    3  A    between atoms: N_7  and  S_8
REMARK    4  A    between atoms: S_8  and  C_11
REMARK    5  A    between atoms: C_15  and  C_16
REMARK    6  A    between atoms: C_16  and  S_17
REMARK    7  A    between atoms: S_17  and  C_18
REMARK                            x       y       z     vdW  Elec       q    Type
REMARK                         _______ _______ _______ _____ _____    ______ ____
ROOT
ATOM      1  S   UNL     1       3.389   2.614  17.790  0.00  0.00    +0.000 S 
ATOM      2  O   UNL     1       2.691   2.849  16.543  0.00  0.00    +0.000 OA
ATOM      3  O   UNL     1       3.518   1.272  18.320  0.00  0.00    +0.000 OA
ENDROOT
BRANCH   1   8
ATOM      4  N   UNL     1       6.045   4.346  14.553  0.00  0.00    +0.000 N 
ATOM      5  C   UNL     1       5.572   5.562  14.952  0.00  0.00    +0.000 A 
ATOM      6  C   UNL     1       5.042   5.362  16.211  0.00  0.00    +0.000 A 
ATOM      7  C   UNL     1       5.227   3.991  16.462  0.00  0.00    +0.000 A 
ATOM      8  N   UNL     1       4.905   3.299  17.610  0.00  0.00    +0.000 N 
ATOM      9  N   UNL     1       5.849   3.376  15.462  0.00  0.00    +0.000 NA
ATOM     10  H   UNL     1       5.356   3.539  18.486  0.00  0.00    +0.000 HD
BRANCH   4  12
ATOM     11  C   UNL     1       5.812   3.375  12.299  0.00  0.00    +0.000 C 
ATOM     12  C   UNL     1       6.728   4.033  13.313  0.00  0.00    +0.000 C 
ENDBRANCH   4  12
ENDBRANCH   1   8
BRANCH   1  13
ATOM     13  C   UNL     1       2.657   3.650  19.032  0.00  0.00    +0.000 A 
ATOM     14  C   UNL     1       1.921   3.076  20.069  0.00  0.00    +0.000 A 
ATOM     15  C   UNL     1       1.299   3.905  21.000  0.00  0.00    +0.000 A 
ATOM     16  C   UNL     1       1.411   5.294  20.891  0.00  0.00    +0.000 A 
ATOM     17  C   UNL     1       2.177   5.878  19.868  0.00  0.00    +0.000 A 
ATOM     18  C   UNL     1       2.814   5.038  18.943  0.00  0.00    +0.000 A 
BRANCH  17  19
ATOM     19  C   UNL     1       2.254   7.376  19.709  0.00  0.00    +0.000 C 
BRANCH  19  20
ATOM     20  S   UNL     1       2.616   7.942  18.018  0.00  0.00    +0.000 S 
ATOM     21  C   UNL     1       1.593   9.435  17.976  0.00  0.00    +0.000 C 
ENDBRANCH  19  20
ENDBRANCH  17  19
ENDBRANCH   1  13
TORSDOF 5
ENDMDL
MODEL 4
REMARK VINA RESULT:      -6.8      3.648      6.792
REMARK  Name = 
REMARK  7 active torsions:
REMARK  status: ('A' for Active; 'I' for Inactive)
REMARK    1  A    between atoms: C_1  and  C_2
REMARK    2  A    between atoms: C_2  and  N_3
REMARK    3  A    between atoms: N_7  and  S_8
REMARK    4  A    between atoms: S_8  and  C_11
REMARK    5  A    between atoms: C_15  and  C_16
REMARK    6  A    between atoms: C_16  and  S_17
REMARK    7  A    between atoms: S_17  and  C_18
REMARK                            x       y       z     vdW  Elec       q    Type
REMARK                         _______ _______ _______ _____ _____    ______ ____
ROOT
ATOM      1  S   UNL     1       4.872   5.131  16.769  0.00  0.00    +0.000 S 
ATOM      2  O   UNL     1       5.213   4.964  15.372  0.00  0.00    +0.000 OA
ATOM      3  O   UNL     1       3.681   5.861  17.153  0.00  0.00    +0.000 OA
ENDROOT
BRANCH   1   8
ATOM      4  N   UNL     1       2.324   2.622  19.553  0.00  0.00    +0.000 N 
ATOM      5  C   UNL     1       1.746   2.128  18.419  0.00  0.00    +0.000 A 
ATOM      6  C   UNL     1       2.621   2.426  17.394  0.00  0.00    +0.000 A 
ATOM      7  C   UNL     1       3.677   3.116  18.014  0.00  0.00    +0.000 A 
ATOM      8  N   UNL     1       4.828   3.592  17.424  0.00  0.00    +0.000 N 
ATOM      9  N   UNL     1       3.504   3.224  19.328  0.00  0.00    +0.000 NA
ATOM     10  H   UNL     1       5.480   2.943  16.997  0.00  0.00    +0.000 HD
BRANCH   4  12
ATOM     11  C   UNL     1       2.239   3.714  21.761  0.00  0.00    +0.000 C 
ATOM     12  C   UNL     1       1.816   2.535  20.907  0.00  0.00    +0.000 C 
ENDBRANCH   4  12
ENDBRANCH   1   8
BRANCH   1  13
ATOM     13  C   UNL     1       6.271   5.847  17.593  0.00  0.00    +0.000 A 
ATOM     14  C   UNL     1       6.948   5.120  18.573  0.00  0.00    +0.000 A 
ATOM     15  C   UNL     1       8.004   5.720  19.255  0.00  0.00    +0.000 A 
ATOM     16  C   UNL     1       8.377   7.034  18.960  0.00  0.00    +0.000 A 
ATOM     17  C   UNL     1       7.721   7.761  17.952  0.00  0.00    +0.000 A 
ATOM     18  C   UNL     1       6.669   7.148  17.258  0.00  0.00    +0.000 A 
BRANCH  17  19
ATOM     19  C   UNL     1       8.078   9.200  17.669  0.00  0.00    +0.000 C 
BRANCH  19  20
ATOM     20  S   UNL     1       9.058  10.008  18.971  0.00  0.00    +0.000 S 
ATOM     21  C   UNL     1       9.945  11.225  17.967  0.00  0.00    +0.000 C 
ENDBRANCH  19  20
ENDBRANCH  17  19
ENDBRANCH   1  13
TORSDOF 5
ENDMDL
MODEL 5
REMARK VINA RESULT:      -6.8      1.158      1.548
REMARK  Name = 
REMARK  7 active torsions:
REMARK  status: ('A' for Active; 'I' for Inactive)
REMARK    1  A    between atoms: C_1  and  C_2
REMARK    2  A    between atoms: C_2  and  N_3
REMARK    3  A    between atoms: N_7  and  S_8
REMARK    4  A    between atoms: S_8  and  C_11
REMARK    5  A    between atoms: C_15  and  C_16
REMARK    6  A    between atoms: C_16  and  S_17
REMARK    7  A    between atoms: S_17  and  C_18
REMARK                            x       y       z     vdW  Elec       q    Type
REMARK                         _______ _______ _______ _____ _____    ______ ____
ROOT
ATOM      1  S   UNL     1       5.899   6.500  16.148  0.00  0.00    +0.000 S 
ATOM      2  O   UNL     1       6.916   7.316  16.780  0.00  0.00    +0.000 OA
ATOM      3  O   UNL     1       5.136   7.013  15.028  0.00  0.00    +0.000 OA
ENDROOT
BRANCH   1   8
ATOM      4  N   UNL     1       6.092   3.608  12.665  0.00  0.00    +0.000 N 
ATOM      5  C   UNL     1       7.216   4.285  12.292  0.00  0.00    +0.000 A 
ATOM      6  C   UNL     1       7.625   4.977  13.414  0.00  0.00    +0.000 A 
ATOM      7  C   UNL     1       6.669   4.663  14.395  0.00  0.00    +0.000 A 
ATOM      8  N   UNL     1       6.654   5.072  15.711  0.00  0.00    +0.000 N 
ATOM      9  N   UNL     1       5.744   3.820  13.946  0.00  0.00    +0.000 NA
ATOM     10  H   UNL     1       7.407   4.797  16.332  0.00  0.00    +0.000 HD
BRANCH   4  12
ATOM     11  C   UNL     1       4.085   3.385  11.251  0.00  0.00    +0.000 C 
ATOM     12  C   UNL     1       5.299   2.706  11.853  0.00  0.00    +0.000 C 
ENDBRANCH   4  12
ENDBRANCH   1   8
BRANCH   1  13
ATOM     13  C   UNL     1       4.772   5.957  17.406  0.00  0.00    +0.000 A 
ATOM     14  C   UNL     1       3.778   6.821  17.868  0.00  0.00    +0.000 A 
ATOM     15  C   UNL     1       2.941   6.404  18.900  0.00  0.00    +0.000 A 
ATOM     16  C   UNL     1       3.100   5.135  19.465  0.00  0.00    +0.000 A 
ATOM     17  C   UNL     1       4.077   4.248  18.983  0.00  0.00    +0.000 A 
ATOM     18  C   UNL     1       4.905   4.667  17.933  0.00  0.00    +0.000 A 
BRANCH  17  19
ATOM     19  C   UNL     1       4.293   2.900  19.627  0.00  0.00    +0.000 C 
BRANCH  19  20
ATOM     20  S   UNL     1       3.651   1.491  18.672  0.00  0.00    +0.000 S 
ATOM     21  C   UNL     1       2.195   2.269  17.931  0.00  0.00    +0.000 C 
ENDBRANCH  19  20
ENDBRANCH  17  19
ENDBRANCH   1  13
TORSDOF 5
ENDMDL
MODEL 6
REMARK VINA RESULT:      -6.8      1.130      1.533
REMARK  Name = 
REMARK  7 active torsions:
REMARK  status: ('A' for Active; 'I' for Inactive)
REMARK    1  A    between atoms: C_1  and  C_2
REMARK    2  A    between atoms: C_2  and  N_3
REMARK    3  A    between atoms: N_7  and  S_8
REMARK    4  A    between atoms: S_8  and  C_11
REMARK    5  A    between atoms: C_15  and  C_16
REMARK    6  A    between atoms: C_16  and  S_17
REMARK    7  A    between atoms: S_17  and  C_18
REMARK                            x       y       z     vdW  Elec       q    Type
REMARK                         _______ _______ _______ _____ _____    ______ ____
ROOT
ATOM      1  S   UNL     1       6.160   6.014  16.389  0.00  0.00    +0.000 S 
ATOM      2  O   UNL     1       6.959   6.598  17.446  0.00  0.00    +0.000 OA
ATOM      3  O   UNL     1       5.535   6.857  15.390  0.00  0.00    +0.000 OA
ENDROOT
BRANCH   1   8
ATOM      4  N   UNL     1       6.433   3.704  12.501  0.00  0.00    +0.000 N 
ATOM      5  C   UNL     1       7.303   4.675  12.098  0.00  0.00    +0.000 A 
ATOM      6  C   UNL     1       7.722   5.303  13.254  0.00  0.00    +0.000 A 
ATOM      7  C   UNL     1       7.029   4.649  14.287  0.00  0.00    +0.000 A 
ATOM      8  N   UNL     1       7.134   4.877  15.642  0.00  0.00    +0.000 N 
ATOM      9  N   UNL     1       6.256   3.668  13.832  0.00  0.00    +0.000 NA
ATOM     10  H   UNL     1       8.019   4.720  16.112  0.00  0.00    +0.000 HD
BRANCH   4  12
ATOM     11  C   UNL     1       4.303   3.139  11.394  0.00  0.00    +0.000 C 
ATOM     12  C   UNL     1       5.742   2.743  11.664  0.00  0.00    +0.000 C 
ENDBRANCH   4  12
ENDBRANCH   1   8
BRANCH   1  13
ATOM     13  C   UNL     1       4.913   5.001  17.142  0.00  0.00    +0.000 A 
ATOM     14  C   UNL     1       4.699   3.703  16.677  0.00  0.00    +0.000 A 
ATOM     15  C   UNL     1       3.674   2.941  17.235  0.00  0.00    +0.000 A 
ATOM     16  C   UNL     1       2.871   3.476  18.245  0.00  0.00    +0.000 A 
ATOM     17  C   UNL     1       3.101   4.771  18.741  0.00  0.00    +0.000 A 
ATOM     18  C   UNL     1       4.143   5.526  18.187  0.00  0.00    +0.000 A 
BRANCH  17  19
ATOM     19  C   UNL     1       2.200   5.377  19.789  0.00  0.00    +0.000 C 
BRANCH  19  20
ATOM     20  S   UNL     1       1.020   4.214  20.540  0.00  0.00    +0.000 S 
ATOM     21  C   UNL     1       2.109   3.417  21.745  0.00  0.00    +0.000 C 
ENDBRANCH  19  20
ENDBRANCH  17  19
ENDBRANCH   1  13
TORSDOF 5
ENDMDL
MODEL 7
REMARK VINA RESULT:      -6.7      1.180      1.574
REMARK  Name = 
REMARK  7 active torsions:
REMARK  status: ('A' for Active; 'I' for Inactive)
REMARK    1  A    between atoms: C_1  and  C_2
REMARK    2  A    between atoms: C_2  and  N_3
REMARK    3  A    between atoms: N_7  and  S_8
REMARK    4  A    between atoms: S_8  and  C_11
REMARK    5  A    between atoms: C_15  and  C_16
REMARK    6  A    between atoms: C_16  and  S_17
REMARK    7  A    between atoms: S_17  and  C_18
REMARK                            x       y       z     vdW  Elec       q    Type
REMARK                         _______ _______ _______ _____ _____    ______ ____
ROOT
ATOM      1  S   UNL     1       6.848   5.891  17.301  0.00  0.00    +0.000 S 
ATOM      2  O   UNL     1       7.529   5.757  18.573  0.00  0.00    +0.000 OA
ATOM      3  O   UNL     1       6.946   7.121  16.542  0.00  0.00    +0.000 OA
ENDROOT
BRANCH   1   8
ATOM      4  N   UNL     1       6.053   4.028  13.248  0.00  0.00    +0.000 N 
ATOM      5  C   UNL     1       7.137   4.738  12.818  0.00  0.00    +0.000 A 
ATOM      6  C   UNL     1       7.830   5.088  13.959  0.00  0.00    +0.000 A 
ATOM      7  C   UNL     1       7.068   4.561  15.016  0.00  0.00    +0.000 A 
ATOM      8  N   UNL     1       7.360   4.604  16.363  0.00  0.00    +0.000 N 
ATOM      9  N   UNL     1       5.995   3.904  14.585  0.00  0.00    +0.000 NA
ATOM     10  H   UNL     1       8.194   4.145  16.712  0.00  0.00    +0.000 HD
BRANCH   4  12
ATOM     11  C   UNL     1       5.579   2.281  11.574  0.00  0.00    +0.000 C 
ATOM     12  C   UNL     1       5.030   3.406  12.430  0.00  0.00    +0.000 C 
ENDBRANCH   4  12
ENDBRANCH   1   8
BRANCH   1  13
ATOM     13  C   UNL     1       5.134   5.511  17.554  0.00  0.00    +0.000 A 
ATOM     14  C   UNL     1       4.187   6.536  17.551  0.00  0.00    +0.000 A 
ATOM     15  C   UNL     1       2.854   6.231  17.814  0.00  0.00    +0.000 A 
ATOM     16  C   UNL     1       2.473   4.912  18.079  0.00  0.00    +0.000 A 
ATOM     17  C   UNL     1       3.415   3.870  18.052  0.00  0.00    +0.000 A 
ATOM     18  C   UNL     1       4.753   4.181  17.771  0.00  0.00    +0.000 A 
BRANCH  17  19
ATOM     19  C   UNL     1       3.023   2.454  18.396  0.00  0.00    +0.000 C 
BRANCH  19  20
ATOM     20  S   UNL     1       1.340   2.274  19.063  0.00  0.00    +0.000 S 
ATOM     21  C   UNL     1       1.677   2.587  20.814  0.00  0.00    +0.000 C 
ENDBRANCH  19  20
ENDBRANCH  17  19
ENDBRANCH   1  13
TORSDOF 5
ENDMDL
MODEL 8
REMARK VINA RESULT:      -6.6      3.789      6.669
REMARK  Name = 
REMARK  7 active torsions:
REMARK  status: ('A' for Active; 'I' for Inactive)
REMARK    1  A    between atoms: C_1  and  C_2
REMARK    2  A    between atoms: C_2  and  N_3
REMARK    3  A    between atoms: N_7  and  S_8
REMARK    4  A    between atoms: S_8  and  C_11
REMARK    5  A    between atoms: C_15  and  C_16
REMARK    6  A    between atoms: C_16  and  S_17
REMARK    7  A    between atoms: S_17  and  C_18
REMARK                            x       y       z     vdW  Elec       q    Type
REMARK                         _______ _______ _______ _____ _____    ______ ____
ROOT
ATOM      1  S   UNL     1       5.189   5.037  16.399  0.00  0.00    +0.000 S 
ATOM      2  O   UNL     1       5.104   3.647  16.796  0.00  0.00    +0.000 OA
ATOM      3  O   UNL     1       5.369   5.394  15.006  0.00  0.00    +0.000 OA
ENDROOT
BRANCH   1   8
ATOM      4  N   UNL     1       1.908   4.307  19.437  0.00  0.00    +0.000 N 
ATOM      5  C   UNL     1       2.656   5.072  20.284  0.00  0.00    +0.000 A 
ATOM      6  C   UNL     1       3.531   5.772  19.479  0.00  0.00    +0.000 A 
ATOM      7  C   UNL     1       3.240   5.340  18.173  0.00  0.00    +0.000 A 
ATOM      8  N   UNL     1       3.813   5.777  16.999  0.00  0.00    +0.000 N 
ATOM      9  N   UNL     1       2.244   4.460  18.145  0.00  0.00    +0.000 NA
ATOM     10  H   UNL     1       3.711   6.747  16.719  0.00  0.00    +0.000 HD
BRANCH   4  12
ATOM     11  C   UNL     1       0.693   2.250  18.824  0.00  0.00    +0.000 C 
ATOM     12  C   UNL     1       0.821   3.414  19.789  0.00  0.00    +0.000 C 
ENDBRANCH   4  12
ENDBRANCH   1   8
BRANCH   1  13
ATOM     13  C   UNL     1       6.472   5.803  17.355  0.00  0.00    +0.000 A 
ATOM     14  C   UNL     1       7.121   5.077  18.354  0.00  0.00    +0.000 A 
ATOM     15  C   UNL     1       8.082   5.711  19.139  0.00  0.00    +0.000 A 
ATOM     16  C   UNL     1       8.388   7.058  18.926  0.00  0.00    +0.000 A 
ATOM     17  C   UNL     1       7.762   7.786  17.900  0.00  0.00    +0.000 A 
ATOM     18  C   UNL     1       6.808   7.139  17.103  0.00  0.00    +0.000 A 
BRANCH  17  19
ATOM     19  C   UNL     1       8.044   9.256  17.702  0.00  0.00    +0.000 C 
BRANCH  19  20
ATOM     20  S   UNL     1       9.121   9.998  18.965  0.00  0.00    +0.000 S 
ATOM     21  C   UNL     1       9.240  11.680  18.307  0.00  0.00    +0.000 C 
ENDBRANCH  19  20
ENDBRANCH  17  19
ENDBRANCH   1  13
TORSDOF 5
ENDMDL
MODEL 9
REMARK VINA RESULT:      -6.6      1.721      2.080
REMARK  Name = 
REMARK  7 active torsions:
REMARK  status: ('A' for Active; 'I' for Inactive)
REMARK    1  A    between atoms: C_1  and  C_2
REMARK    2  A    between atoms: C_2  and  N_3
REMARK    3  A    between atoms: N_7  and  S_8
REMARK    4  A    between atoms: S_8  and  C_11
REMARK    5  A    between atoms: C_15  and  C_16
REMARK    6  A    between atoms: C_16  and  S_17
REMARK    7  A    between atoms: S_17  and  C_18
REMARK                            x       y       z     vdW  Elec       q    Type
REMARK                         _______ _______ _______ _____ _____    ______ ____
ROOT
ATOM      1  S   UNL     1       6.746   4.851  15.387  0.00  0.00    +0.000 S 
ATOM      2  O   UNL     1       7.824   4.569  16.312  0.00  0.00    +0.000 OA
ATOM      3  O   UNL     1       6.873   5.918  14.415  0.00  0.00    +0.000 OA
ENDROOT
BRANCH   1   8
ATOM      4  N   UNL     1       4.628   3.328  11.682  0.00  0.00    +0.000 N 
ATOM      5  C   UNL     1       5.861   3.330  11.096  0.00  0.00    +0.000 A 
ATOM      6  C   UNL     1       6.768   3.368  12.135  0.00  0.00    +0.000 A 
ATOM      7  C   UNL     1       5.979   3.408  13.298  0.00  0.00    +0.000 A 
ATOM      8  N   UNL     1       6.413   3.410  14.606  0.00  0.00    +0.000 N 
ATOM      9  N   UNL     1       4.679   3.369  13.024  0.00  0.00    +0.000 NA
ATOM     10  H   UNL     1       6.933   2.617  14.965  0.00  0.00    +0.000 HD
BRANCH   4  12
ATOM     11  C   UNL     1       3.273   4.150   9.794  0.00  0.00    +0.000 C 
ATOM     12  C   UNL     1       3.341   3.259  11.019  0.00  0.00    +0.000 C 
ENDBRANCH   4  12
ENDBRANCH   1   8
BRANCH   1  13
ATOM     13  C   UNL     1       5.267   5.114  16.333  0.00  0.00    +0.000 A 
ATOM     14  C   UNL     1       4.959   6.392  16.800  0.00  0.00    +0.000 A 
ATOM     15  C   UNL     1       3.829   6.570  17.594  0.00  0.00    +0.000 A 
ATOM     16  C   UNL     1       3.017   5.480  17.918  0.00  0.00    +0.000 A 
ATOM     17  C   UNL     1       3.303   4.195  17.425  0.00  0.00    +0.000 A 
ATOM     18  C   UNL     1       4.433   4.024  16.613  0.00  0.00    +0.000 A 
BRANCH  17  19
ATOM     19  C   UNL     1       2.466   3.003  17.819  0.00  0.00    +0.000 C 
BRANCH  19  20
ATOM     20  S   UNL     1       3.399   1.640  18.582  0.00  0.00    +0.000 S 
ATOM     21  C   UNL     1       4.194   2.541  19.936  0.00  0.00    +0.000 C 
ENDBRANCH  19  20
ENDBRANCH  17  19
ENDBRANCH   1  13
TORSDOF 5
ENDMDL
