MODEL 1
REMARK VINA RESULT:      -7.0      0.000      0.000
REMARK  Name = 
REMARK  7 active torsions:
REMARK  status: ('A' for Active; 'I' for Inactive)
REMARK    1  A    between atoms: C_1  and  O_2
REMARK    2  A    between atoms: O_2  and  C_3
REMARK    3  A    between atoms: C_4  and  C_5
REMARK    4  A    between atoms: C_5  and  C_6
REMARK    5  A    between atoms: C_7  and  C_8
REMARK    6  A    between atoms: C_7  and  N_9
REMARK    7  A    between atoms: C_25  and  O_26
REMARK                            x       y       z     vdW  Elec       q    Type
REMARK                         _______ _______ _______ _____ _____    ______ ____
ROOT
ATOM      1  C   UNL     1      -0.333  12.507  19.524  0.00  0.00    +0.000 C 
ATOM      2  C   UNL     1       0.277  13.711  19.411  0.00  0.00    +0.000 C 
ATOM      3  C   UNL     1       1.710  13.932  19.069  0.00  0.00    +0.000 C 
ATOM      4  O   UNL     1       2.678  13.269  19.380  0.00  0.00    +0.000 OA
ATOM      5  C   UNL     1       1.774  15.252  18.464  0.00  0.00    +0.000 A 
ATOM      6  C   UNL     1       2.820  15.792  17.739  0.00  0.00    +0.000 A 
ATOM      7  C   UNL     1       2.705  17.126  17.352  0.00  0.00    +0.000 A 
ATOM      8  C   UNL     1       1.566  17.878  17.704  0.00  0.00    +0.000 A 
ATOM      9  C   UNL     1       0.498  17.293  18.398  0.00  0.00    +0.000 A 
ATOM     10  C   UNL     1       0.617  15.962  18.753  0.00  0.00    +0.000 A 
ATOM     11  C   UNL     1      -0.350  15.082  19.434  0.00  0.00    +0.000 C 
ATOM     12  O   UNL     1      -1.422  15.435  19.866  0.00  0.00    +0.000 OA
ENDROOT
BRANCH   1  14
ATOM     13  C   UNL     1      -2.075  12.680  21.445  0.00  0.00    +0.000 A 
ATOM     14  C   UNL     1      -1.739  12.513  20.068  0.00  0.00    +0.000 A 
ATOM     15  C   UNL     1      -2.791  12.342  19.124  0.00  0.00    +0.000 A 
ATOM     16  C   UNL     1      -4.144  12.363  19.468  0.00  0.00    +0.000 A 
ATOM     17  C   UNL     1      -4.424  12.550  20.812  0.00  0.00    +0.000 A 
ATOM     18  O   UNL     1      -5.672  12.602  21.348  0.00  0.00    +0.000 OA
ATOM     19  C   UNL     1      -5.522  12.777  22.686  0.00  0.00    +0.000 A 
ATOM     20  C   UNL     1      -4.188  12.837  23.014  0.00  0.00    +0.000 A 
ATOM     21  C   UNL     1      -3.453  12.697  21.796  0.00  0.00    +0.000 A 
BRANCH  13  23
ATOM     22  C   UNL     1      -0.841  14.037  23.008  0.00  0.00    +0.000 C 
ATOM     23  O   UNL     1      -1.227  12.769  22.513  0.00  0.00    +0.000 OA
ENDBRANCH  13  23
BRANCH  15  24
ATOM     24  O   UNL     1      -2.574  12.135  17.781  0.00  0.00    +0.000 OA
ATOM     25  H   UNL     1      -2.622  12.974  17.299  0.00  0.00    +0.000 HD
ENDBRANCH  15  24
ENDBRANCH   1  14
BRANCH   1  26
ATOM     26  C   UNL     1       0.310  11.178  19.337  0.00  0.00    +0.000 C 
ATOM     27  C   UNL     1       0.735  10.185  20.164  0.00  0.00    +0.000 C 
ATOM     28  C   UNL     1       0.725  10.272  21.677  0.00  0.00    +0.000 C 
BRANCH  27  29
ATOM     29  N   UNL     1       1.225   8.961  19.644  0.00  0.00    +0.000 N 
ATOM     30  C   UNL     1       1.969   8.833  18.379  0.00  0.00    +0.000 C 
ATOM     31  C   UNL     1       2.129   7.331  18.210  0.00  0.00    +0.000 C 
ATOM     32  C   UNL     1       2.396   6.860  19.625  0.00  0.00    +0.000 C 
ATOM     33  C   UNL     1       1.641   7.846  20.518  0.00  0.00    +0.000 C 
ENDBRANCH  27  29
ENDBRANCH   1  26
TORSDOF 5
ENDMDL
MODEL 2
REMARK VINA RESULT:      -6.8      0.936      1.363
REMARK  Name = 
REMARK  7 active torsions:
REMARK  status: ('A' for Active; 'I' for Inactive)
REMARK    1  A    between atoms: C_1  and  O_2
REMARK    2  A    between atoms: O_2  and  C_3
REMARK    3  A    between atoms: C_4  and  C_5
REMARK    4  A    between atoms: C_5  and  C_6
REMARK    5  A    between atoms: C_7  and  C_8
REMARK    6  A    between atoms: C_7  and  N_9
REMARK    7  A    between atoms: C_25  and  O_26
REMARK                            x       y       z     vdW  Elec       q    Type
REMARK                         _______ _______ _______ _____ _____    ______ ____
ROOT
ATOM      1  C   UNL     1      -0.840  12.741  20.466  0.00  0.00    +0.000 C 
ATOM      2  C   UNL     1      -0.290  13.948  20.196  0.00  0.00    +0.000 C 
ATOM      3  C   UNL     1       1.137  14.198  19.851  0.00  0.00    +0.000 C 
ATOM      4  O   UNL     1       2.130  13.638  20.268  0.00  0.00    +0.000 OA
ATOM      5  C   UNL     1       1.149  15.423  19.067  0.00  0.00    +0.000 A 
ATOM      6  C   UNL     1       2.183  15.913  18.292  0.00  0.00    +0.000 A 
ATOM      7  C   UNL     1       2.009  17.172  17.720  0.00  0.00    +0.000 A 
ATOM      8  C   UNL     1       0.824  17.902  17.943  0.00  0.00    +0.000 A 
ATOM      9  C   UNL     1      -0.229  17.361  18.694  0.00  0.00    +0.000 A 
ATOM     10  C   UNL     1      -0.050  16.102  19.234  0.00  0.00    +0.000 A 
ATOM     11  C   UNL     1      -0.987  15.274  20.016  0.00  0.00    +0.000 C 
ATOM     12  O   UNL     1      -2.086  15.625  20.375  0.00  0.00    +0.000 OA
ENDROOT
BRANCH   1  14
ATOM     13  C   UNL     1      -2.623  12.913  22.349  0.00  0.00    +0.000 A 
ATOM     14  C   UNL     1      -2.258  12.746  20.979  0.00  0.00    +0.000 A 
ATOM     15  C   UNL     1      -3.289  12.573  20.013  0.00  0.00    +0.000 A 
ATOM     16  C   UNL     1      -4.649  12.594  20.327  0.00  0.00    +0.000 A 
ATOM     17  C   UNL     1      -4.958  12.781  21.666  0.00  0.00    +0.000 A 
ATOM     18  O   UNL     1      -6.217  12.833  22.175  0.00  0.00    +0.000 OA
ATOM     19  C   UNL     1      -6.096  13.008  23.515  0.00  0.00    +0.000 A 
ATOM     20  C   UNL     1      -4.770  13.069  23.871  0.00  0.00    +0.000 A 
ATOM     21  C   UNL     1      -4.009  12.929  22.670  0.00  0.00    +0.000 A 
BRANCH  13  23
ATOM     22  C   UNL     1      -1.287  14.260  23.834  0.00  0.00    +0.000 C 
ATOM     23  O   UNL     1      -1.798  13.003  23.435  0.00  0.00    +0.000 OA
ENDBRANCH  13  23
BRANCH  15  24
ATOM     24  O   UNL     1      -3.042  12.366  18.674  0.00  0.00    +0.000 OA
ATOM     25  H   UNL     1      -2.448  13.051  18.332  0.00  0.00    +0.000 HD
ENDBRANCH  15  24
ENDBRANCH   1  14
BRANCH   1  26
ATOM     26  C   UNL     1      -0.125  11.436  20.478  0.00  0.00    +0.000 C 
ATOM     27  C   UNL     1       0.064  10.430  19.582  0.00  0.00    +0.000 C 
ATOM     28  C   UNL     1      -0.581  10.374  18.212  0.00  0.00    +0.000 C 
BRANCH  27  29
ATOM     29  N   UNL     1       0.912   9.334  19.884  0.00  0.00    +0.000 N 
ATOM     30  C   UNL     1       0.658   8.355  20.954  0.00  0.00    +0.000 C 
ATOM     31  C   UNL     1       1.912   7.496  20.956  0.00  0.00    +0.000 C 
ATOM     32  C   UNL     1       2.230   7.363  19.480  0.00  0.00    +0.000 C 
ATOM     33  C   UNL     1       1.723   8.660  18.849  0.00  0.00    +0.000 C 
ENDBRANCH  27  29
ENDBRANCH   1  26
TORSDOF 5
ENDMDL
MODEL 3
REMARK VINA RESULT:      -6.7      1.469      2.130
REMARK  Name = 
REMARK  7 active torsions:
REMARK  status: ('A' for Active; 'I' for Inactive)
REMARK    1  A    between atoms: C_1  and  O_2
REMARK    2  A    between atoms: O_2  and  C_3
REMARK    3  A    between atoms: C_4  and  C_5
REMARK    4  A    between atoms: C_5  and  C_6
REMARK    5  A    between atoms: C_7  and  C_8
REMARK    6  A    between atoms: C_7  and  N_9
REMARK    7  A    between atoms: C_25  and  O_26
REMARK                            x       y       z     vdW  Elec       q    Type
REMARK                         _______ _______ _______ _____ _____    ______ ____
ROOT
ATOM      1  C   UNL     1      -1.974  12.925  20.681  0.00  0.00    +0.000 C 
ATOM      2  C   UNL     1      -1.478  14.165  20.464  0.00  0.00    +0.000 C 
ATOM      3  C   UNL     1      -0.065  14.491  20.122  0.00  0.00    +0.000 C 
ATOM      4  O   UNL     1       0.954  13.955  20.505  0.00  0.00    +0.000 OA
ATOM      5  C   UNL     1      -0.112  15.750  19.396  0.00  0.00    +0.000 A 
ATOM      6  C   UNL     1       0.894  16.319  18.638  0.00  0.00    +0.000 A 
ATOM      7  C   UNL     1       0.663  17.595  18.127  0.00  0.00    +0.000 A 
ATOM      8  C   UNL     1      -0.550  18.263  18.392  0.00  0.00    +0.000 A 
ATOM      9  C   UNL     1      -1.573  17.644  19.124  0.00  0.00    +0.000 A 
ATOM     10  C   UNL     1      -1.337  16.370  19.603  0.00  0.00    +0.000 A 
ATOM     11  C   UNL     1      -2.232  15.467  20.351  0.00  0.00    +0.000 C 
ATOM     12  O   UNL     1      -3.342  15.754  20.733  0.00  0.00    +0.000 OA
ENDROOT
BRANCH   1  14
ATOM     13  C   UNL     1      -3.747  12.937  22.581  0.00  0.00    +0.000 A 
ATOM     14  C   UNL     1      -3.386  12.846  21.203  0.00  0.00    +0.000 A 
ATOM     15  C   UNL     1      -4.418  12.670  20.236  0.00  0.00    +0.000 A 
ATOM     16  C   UNL     1      -5.775  12.619  20.560  0.00  0.00    +0.000 A 
ATOM     17  C   UNL     1      -6.080  12.733  21.907  0.00  0.00    +0.000 A 
ATOM     18  O   UNL     1      -7.336  12.708  22.426  0.00  0.00    +0.000 OA
ATOM     19  C   UNL     1      -7.211  12.830  23.772  0.00  0.00    +0.000 A 
ATOM     20  C   UNL     1      -5.886  12.933  24.122  0.00  0.00    +0.000 A 
ATOM     21  C   UNL     1      -5.129  12.878  22.911  0.00  0.00    +0.000 A 
BRANCH  13  23
ATOM     22  C   UNL     1      -2.431  14.272  24.094  0.00  0.00    +0.000 C 
ATOM     23  O   UNL     1      -2.918  13.015  23.664  0.00  0.00    +0.000 OA
ENDBRANCH  13  23
BRANCH  15  24
ATOM     24  O   UNL     1      -4.173  12.533  18.889  0.00  0.00    +0.000 OA
ATOM     25  H   UNL     1      -3.284  12.852  18.673  0.00  0.00    +0.000 HD
ENDBRANCH  15  24
ENDBRANCH   1  14
BRANCH   1  26
ATOM     26  C   UNL     1      -1.205  11.652  20.627  0.00  0.00    +0.000 C 
ATOM     27  C   UNL     1      -0.843  10.783  19.645  0.00  0.00    +0.000 C 
ATOM     28  C   UNL     1      -1.285  10.894  18.200  0.00  0.00    +0.000 C 
BRANCH  27  29
ATOM     29  N   UNL     1       0.007   9.682  19.922  0.00  0.00    +0.000 N 
ATOM     30  C   UNL     1       1.300   9.442  19.259  0.00  0.00    +0.000 C 
ATOM     31  C   UNL     1       1.727   8.084  19.794  0.00  0.00    +0.000 C 
ATOM     32  C   UNL     1       1.299   8.145  21.246  0.00  0.00    +0.000 C 
ATOM     33  C   UNL     1       0.068   9.052  21.256  0.00  0.00    +0.000 C 
ENDBRANCH  27  29
ENDBRANCH   1  26
TORSDOF 5
ENDMDL
MODEL 4
REMARK VINA RESULT:      -6.7      1.010      1.182
REMARK  Name = 
REMARK  7 active torsions:
REMARK  status: ('A' for Active; 'I' for Inactive)
REMARK    1  A    between atoms: C_1  and  O_2
REMARK    2  A    between atoms: O_2  and  C_3
REMARK    3  A    between atoms: C_4  and  C_5
REMARK    4  A    between atoms: C_5  and  C_6
REMARK    5  A    between atoms: C_7  and  C_8
REMARK    6  A    between atoms: C_7  and  N_9
REMARK    7  A    between atoms: C_25  and  O_26
REMARK                            x       y       z     vdW  Elec       q    Type
REMARK                         _______ _______ _______ _____ _____    ______ ____
ROOT
ATOM      1  C   UNL     1      -0.945  13.057  20.086  0.00  0.00    +0.000 C 
ATOM      2  C   UNL     1      -0.479  14.317  19.913  0.00  0.00    +0.000 C 
ATOM      3  C   UNL     1       0.846  14.684  19.341  0.00  0.00    +0.000 C 
ATOM      4  O   UNL     1       1.911  14.114  19.459  0.00  0.00    +0.000 OA
ATOM      5  C   UNL     1       0.681  16.015  18.779  0.00  0.00    +0.000 A 
ATOM      6  C   UNL     1       1.531  16.668  17.906  0.00  0.00    +0.000 A 
ATOM      7  C   UNL     1       1.226  17.991  17.590  0.00  0.00    +0.000 A 
ATOM      8  C   UNL     1       0.100  18.621  18.156  0.00  0.00    +0.000 A 
ATOM      9  C   UNL     1      -0.774  17.921  19.001  0.00  0.00    +0.000 A 
ATOM     10  C   UNL     1      -0.470  16.602  19.285  0.00  0.00    +0.000 A 
ATOM     11  C   UNL     1      -1.219  15.619  20.089  0.00  0.00    +0.000 C 
ATOM     12  O   UNL     1      -2.229  15.857  20.708  0.00  0.00    +0.000 OA
ENDROOT
BRANCH   1  14
ATOM     13  C   UNL     1      -2.341  13.043  22.278  0.00  0.00    +0.000 A 
ATOM     14  C   UNL     1      -2.230  12.915  20.861  0.00  0.00    +0.000 A 
ATOM     15  C   UNL     1      -3.405  12.637  20.106  0.00  0.00    +0.000 A 
ATOM     16  C   UNL     1      -4.675  12.517  20.674  0.00  0.00    +0.000 A 
ATOM     17  C   UNL     1      -4.738  12.670  22.050  0.00  0.00    +0.000 A 
ATOM     18  O   UNL     1      -5.875  12.590  22.791  0.00  0.00    +0.000 OA
ATOM     19  C   UNL     1      -5.517  12.776  24.087  0.00  0.00    +0.000 A 
ATOM     20  C   UNL     1      -4.160  12.975  24.185  0.00  0.00    +0.000 A 
ATOM     21  C   UNL     1      -3.634  12.914  22.857  0.00  0.00    +0.000 A 
BRANCH  13  23
ATOM     22  C   UNL     1      -1.030  14.513  23.665  0.00  0.00    +0.000 C 
ATOM     23  O   UNL     1      -1.337  13.217  23.188  0.00  0.00    +0.000 OA
ENDBRANCH  13  23
BRANCH  15  24
ATOM     24  O   UNL     1      -3.400  12.457  18.741  0.00  0.00    +0.000 OA
ATOM     25  H   UNL     1      -3.461  13.312  18.288  0.00  0.00    +0.000 HD
ENDBRANCH  15  24
ENDBRANCH   1  14
BRANCH   1  26
ATOM     26  C   UNL     1      -0.222  11.802  19.747  0.00  0.00    +0.000 C 
ATOM     27  C   UNL     1       0.174  10.698  20.437  0.00  0.00    +0.000 C 
ATOM     28  C   UNL     1       0.021  10.527  21.935  0.00  0.00    +0.000 C 
BRANCH  27  29
ATOM     29  N   UNL     1       0.771   9.597  19.773  0.00  0.00    +0.000 N 
ATOM     30  C   UNL     1       1.468   9.684  18.478  0.00  0.00    +0.000 C 
ATOM     31  C   UNL     1       1.782   8.235  18.144  0.00  0.00    +0.000 C 
ATOM     32  C   UNL     1       2.160   7.654  19.491  0.00  0.00    +0.000 C 
ATOM     33  C   UNL     1       1.343   8.451  20.508  0.00  0.00    +0.000 C 
ENDBRANCH  27  29
ENDBRANCH   1  26
TORSDOF 5
ENDMDL
MODEL 5
REMARK VINA RESULT:      -6.6      0.904      1.252
REMARK  Name = 
REMARK  7 active torsions:
REMARK  status: ('A' for Active; 'I' for Inactive)
REMARK    1  A    between atoms: C_1  and  O_2
REMARK    2  A    between atoms: O_2  and  C_3
REMARK    3  A    between atoms: C_4  and  C_5
REMARK    4  A    between atoms: C_5  and  C_6
REMARK    5  A    between atoms: C_7  and  C_8
REMARK    6  A    between atoms: C_7  and  N_9
REMARK    7  A    between atoms: C_25  and  O_26
REMARK                            x       y       z     vdW  Elec       q    Type
REMARK                         _______ _______ _______ _____ _____    ______ ____
ROOT
ATOM      1  C   UNL     1      -0.109  12.339  20.015  0.00  0.00    +0.000 C 
ATOM      2  C   UNL     1       0.516  13.522  19.815  0.00  0.00    +0.000 C 
ATOM      3  C   UNL     1       1.902  13.698  19.298  0.00  0.00    +0.000 C 
ATOM      4  O   UNL     1       2.881  13.009  19.495  0.00  0.00    +0.000 OA
ATOM      5  C   UNL     1       1.930  15.012  18.675  0.00  0.00    +0.000 A 
ATOM      6  C   UNL     1       2.894  15.515  17.821  0.00  0.00    +0.000 A 
ATOM      7  C   UNL     1       2.771  16.849  17.437  0.00  0.00    +0.000 A 
ATOM      8  C   UNL     1       1.706  17.637  17.917  0.00  0.00    +0.000 A 
ATOM      9  C   UNL     1       0.714  17.089  18.743  0.00  0.00    +0.000 A 
ATOM     10  C   UNL     1       0.838  15.758  19.096  0.00  0.00    +0.000 A 
ATOM     11  C   UNL     1      -0.063  14.912  19.900  0.00  0.00    +0.000 C 
ATOM     12  O   UNL     1      -1.064  15.300  20.454  0.00  0.00    +0.000 OA
ENDROOT
BRANCH   1  14
ATOM     13  C   UNL     1      -1.612  12.212  22.132  0.00  0.00    +0.000 A 
ATOM     14  C   UNL     1      -1.438  12.391  20.726  0.00  0.00    +0.000 A 
ATOM     15  C   UNL     1      -2.586  12.639  19.921  0.00  0.00    +0.000 A 
ATOM     16  C   UNL     1      -3.878  12.755  20.438  0.00  0.00    +0.000 A 
ATOM     17  C   UNL     1      -3.997  12.596  21.810  0.00  0.00    +0.000 A 
ATOM     18  O   UNL     1      -5.162  12.672  22.505  0.00  0.00    +0.000 OA
ATOM     19  C   UNL     1      -4.863  12.443  23.809  0.00  0.00    +0.000 A 
ATOM     20  C   UNL     1      -3.514  12.221  23.958  0.00  0.00    +0.000 A 
ATOM     21  C   UNL     1      -2.929  12.324  22.657  0.00  0.00    +0.000 A 
BRANCH  13  23
ATOM     22  C   UNL     1      -0.363  10.520  23.306  0.00  0.00    +0.000 C 
ATOM     23  O   UNL     1      -0.667  11.879  23.061  0.00  0.00    +0.000 OA
ENDBRANCH  13  23
BRANCH  15  24
ATOM     24  O   UNL     1      -2.531  12.787  18.554  0.00  0.00    +0.000 OA
ATOM     25  H   UNL     1      -3.139  13.486  18.266  0.00  0.00    +0.000 HD
ENDBRANCH  15  24
ENDBRANCH   1  14
BRANCH   1  26
ATOM     26  C   UNL     1       0.467  10.990  19.765  0.00  0.00    +0.000 C 
ATOM     27  C   UNL     1       0.273  10.012  18.839  0.00  0.00    +0.000 C 
ATOM     28  C   UNL     1      -0.789  10.058  17.759  0.00  0.00    +0.000 C 
BRANCH  27  29
ATOM     29  N   UNL     1       1.086   8.851  18.822  0.00  0.00    +0.000 N 
ATOM     30  C   UNL     1       2.157   8.599  17.843  0.00  0.00    +0.000 C 
ATOM     31  C   UNL     1       2.608   7.184  18.164  0.00  0.00    +0.000 C 
ATOM     32  C   UNL     1       2.554   7.149  19.678  0.00  0.00    +0.000 C 
ATOM     33  C   UNL     1       1.429   8.113  20.055  0.00  0.00    +0.000 C 
ENDBRANCH  27  29
ENDBRANCH   1  26
TORSDOF 5
ENDMDL
MODEL 6
REMARK VINA RESULT:      -6.6      0.675      2.098
REMARK  Name = 
REMARK  7 active torsions:
REMARK  status: ('A' for Active; 'I' for Inactive)
REMARK    1  A    between atoms: C_1  and  O_2
REMARK    2  A    between atoms: O_2  and  C_3
REMARK    3  A    between atoms: C_4  and  C_5
REMARK    4  A    between atoms: C_5  and  C_6
REMARK    5  A    between atoms: C_7  and  C_8
REMARK    6  A    between atoms: C_7  and  N_9
REMARK    7  A    between atoms: C_25  and  O_26
REMARK                            x       y       z     vdW  Elec       q    Type
REMARK                         _______ _______ _______ _____ _____    ______ ____
ROOT
ATOM      1  C   UNL     1      -0.183  12.410  19.456  0.00  0.00    +0.000 C 
ATOM      2  C   UNL     1       0.429  13.612  19.344  0.00  0.00    +0.000 C 
ATOM      3  C   UNL     1       1.861  13.831  18.997  0.00  0.00    +0.000 C 
ATOM      4  O   UNL     1       2.829  13.165  19.302  0.00  0.00    +0.000 OA
ATOM      5  C   UNL     1       1.927  15.153  18.395  0.00  0.00    +0.000 A 
ATOM      6  C   UNL     1       2.971  15.693  17.668  0.00  0.00    +0.000 A 
ATOM      7  C   UNL     1       2.858  17.028  17.285  0.00  0.00    +0.000 A 
ATOM      8  C   UNL     1       1.722  17.782  17.644  0.00  0.00    +0.000 A 
ATOM      9  C   UNL     1       0.655  17.197  18.341  0.00  0.00    +0.000 A 
ATOM     10  C   UNL     1       0.773  15.865  18.692  0.00  0.00    +0.000 A 
ATOM     11  C   UNL     1      -0.194  14.986  19.374  0.00  0.00    +0.000 C 
ATOM     12  O   UNL     1      -1.264  15.340  19.811  0.00  0.00    +0.000 OA
ENDROOT
BRANCH   1  14
ATOM     13  C   UNL     1      -2.763  12.192  19.229  0.00  0.00    +0.000 A 
ATOM     14  C   UNL     1      -1.587  12.418  20.006  0.00  0.00    +0.000 A 
ATOM     15  C   UNL     1      -1.728  12.669  21.400  0.00  0.00    +0.000 A 
ATOM     16  C   UNL     1      -2.957  12.670  22.062  0.00  0.00    +0.000 A 
ATOM     17  C   UNL     1      -4.069  12.424  21.272  0.00  0.00    +0.000 A 
ATOM     18  O   UNL     1      -5.351  12.381  21.723  0.00  0.00    +0.000 OA
ATOM     19  C   UNL     1      -6.141  12.134  20.648  0.00  0.00    +0.000 A 
ATOM     20  C   UNL     1      -5.379  12.018  19.510  0.00  0.00    +0.000 A 
ATOM     21  C   UNL     1      -4.016  12.198  19.902  0.00  0.00    +0.000 A 
BRANCH  13  23
ATOM     22  C   UNL     1      -2.719  10.735  17.311  0.00  0.00    +0.000 C 
ATOM     23  O   UNL     1      -2.858  12.023  17.876  0.00  0.00    +0.000 OA
ENDBRANCH  13  23
BRANCH  15  24
ATOM     24  O   UNL     1      -0.663  12.938  22.230  0.00  0.00    +0.000 OA
ATOM     25  H   UNL     1      -0.934  13.534  22.944  0.00  0.00    +0.000 HD
ENDBRANCH  15  24
ENDBRANCH   1  14
BRANCH   1  26
ATOM     26  C   UNL     1       0.455  11.080  19.262  0.00  0.00    +0.000 C 
ATOM     27  C   UNL     1       0.859  10.073  20.083  0.00  0.00    +0.000 C 
ATOM     28  C   UNL     1       0.821  10.139  21.597  0.00  0.00    +0.000 C 
BRANCH  27  29
ATOM     29  N   UNL     1       1.352   8.854  19.554  0.00  0.00    +0.000 N 
ATOM     30  C   UNL     1       2.106   8.737  18.295  0.00  0.00    +0.000 C 
ATOM     31  C   UNL     1       2.265   7.236  18.112  0.00  0.00    +0.000 C 
ATOM     32  C   UNL     1       2.520   6.751  19.525  0.00  0.00    +0.000 C 
ATOM     33  C   UNL     1       1.759   7.729  20.421  0.00  0.00    +0.000 C 
ENDBRANCH  27  29
ENDBRANCH   1  26
TORSDOF 5
ENDMDL
MODEL 7
REMARK VINA RESULT:      -6.6      2.814      6.320
REMARK  Name = 
REMARK  7 active torsions:
REMARK  status: ('A' for Active; 'I' for Inactive)
REMARK    1  A    between atoms: C_1  and  O_2
REMARK    2  A    between atoms: O_2  and  C_3
REMARK    3  A    between atoms: C_4  and  C_5
REMARK    4  A    between atoms: C_5  and  C_6
REMARK    5  A    between atoms: C_7  and  C_8
REMARK    6  A    between atoms: C_7  and  N_9
REMARK    7  A    between atoms: C_25  and  O_26
REMARK                            x       y       z     vdW  Elec       q    Type
REMARK                         _______ _______ _______ _____ _____    ______ ____
ROOT
ATOM      1  C   UNL     1      -1.260  12.750  21.278  0.00  0.00    +0.000 C 
ATOM      2  C   UNL     1      -0.571  13.907  21.408  0.00  0.00    +0.000 C 
ATOM      3  C   UNL     1      -1.165  15.253  21.641  0.00  0.00    +0.000 C 
ATOM      4  O   UNL     1      -2.204  15.711  21.213  0.00  0.00    +0.000 OA
ATOM      5  C   UNL     1      -0.137  16.031  22.313  0.00  0.00    +0.000 A 
ATOM      6  C   UNL     1      -0.294  17.233  22.978  0.00  0.00    +0.000 A 
ATOM      7  C   UNL     1       0.860  17.857  23.448  0.00  0.00    +0.000 A 
ATOM      8  C   UNL     1       2.126  17.274  23.236  0.00  0.00    +0.000 A 
ATOM      9  C   UNL     1       2.254  16.030  22.602  0.00  0.00    +0.000 A 
ATOM     10  C   UNL     1       1.097  15.413  22.163  0.00  0.00    +0.000 A 
ATOM     11  C   UNL     1       0.921  14.100  21.516  0.00  0.00    +0.000 C 
ATOM     12  O   UNL     1       1.822  13.360  21.197  0.00  0.00    +0.000 OA
ENDROOT
BRANCH   1  14
ATOM     13  C   UNL     1      -0.099  11.240  19.509  0.00  0.00    +0.000 A 
ATOM     14  C   UNL     1      -0.468  11.538  20.856  0.00  0.00    +0.000 A 
ATOM     15  C   UNL     1      -0.068  10.642  21.888  0.00  0.00    +0.000 A 
ATOM     16  C   UNL     1       0.702   9.500  21.660  0.00  0.00    +0.000 A 
ATOM     17  C   UNL     1       1.055   9.262  20.341  0.00  0.00    +0.000 A 
ATOM     18  O   UNL     1       1.799   8.208  19.912  0.00  0.00    +0.000 OA
ATOM     19  C   UNL     1       1.907   8.323  18.564  0.00  0.00    +0.000 A 
ATOM     20  C   UNL     1       1.239   9.440  18.123  0.00  0.00    +0.000 A 
ATOM     21  C   UNL     1       0.680  10.073  19.277  0.00  0.00    +0.000 A 
BRANCH  13  23
ATOM     22  C   UNL     1      -1.735  11.718  17.807  0.00  0.00    +0.000 C 
ATOM     23  O   UNL     1      -0.453  11.910  18.372  0.00  0.00    +0.000 OA
ENDBRANCH  13  23
BRANCH  15  24
ATOM     24  O   UNL     1      -0.404  10.817  23.211  0.00  0.00    +0.000 OA
ATOM     25  H   UNL     1      -1.106  11.481  23.295  0.00  0.00    +0.000 HD
ENDBRANCH  15  24
ENDBRANCH   1  14
BRANCH   1  26
ATOM     26  C   UNL     1      -2.739  12.599  21.335  0.00  0.00    +0.000 C 
ATOM     27  C   UNL     1      -3.678  12.641  22.319  0.00  0.00    +0.000 C 
ATOM     28  C   UNL     1      -3.362  12.781  23.795  0.00  0.00    +0.000 C 
BRANCH  27  29
ATOM     29  N   UNL     1      -5.060  12.560  22.013  0.00  0.00    +0.000 N 
ATOM     30  C   UNL     1      -6.137  13.034  22.898  0.00  0.00    +0.000 C 
ATOM     31  C   UNL     1      -7.404  12.588  22.188  0.00  0.00    +0.000 C 
ATOM     32  C   UNL     1      -7.075  12.831  20.729  0.00  0.00    +0.000 C 
ATOM     33  C   UNL     1      -5.564  12.626  20.626  0.00  0.00    +0.000 C 
ENDBRANCH  27  29
ENDBRANCH   1  26
TORSDOF 5
ENDMDL
MODEL 8
REMARK VINA RESULT:      -6.6      2.510      5.552
REMARK  Name = 
REMARK  7 active torsions:
REMARK  status: ('A' for Active; 'I' for Inactive)
REMARK    1  A    between atoms: C_1  and  O_2
REMARK    2  A    between atoms: O_2  and  C_3
REMARK    3  A    between atoms: C_4  and  C_5
REMARK    4  A    between atoms: C_5  and  C_6
REMARK    5  A    between atoms: C_7  and  C_8
REMARK    6  A    between atoms: C_7  and  N_9
REMARK    7  A    between atoms: C_25  and  O_26
REMARK                            x       y       z     vdW  Elec       q    Type
REMARK                         _______ _______ _______ _____ _____    ______ ____
ROOT
ATOM      1  C   UNL     1       0.813  10.989  18.933  0.00  0.00    +0.000 C 
ATOM      2  C   UNL     1      -0.446  11.166  18.468  0.00  0.00    +0.000 C 
ATOM      3  C   UNL     1      -1.295  10.121  17.833  0.00  0.00    +0.000 C 
ATOM      4  O   UNL     1      -0.962   9.208  17.105  0.00  0.00    +0.000 OA
ATOM      5  C   UNL     1      -2.671  10.530  18.065  0.00  0.00    +0.000 A 
ATOM      6  C   UNL     1      -3.811   9.764  17.915  0.00  0.00    +0.000 A 
ATOM      7  C   UNL     1      -5.037  10.405  18.083  0.00  0.00    +0.000 A 
ATOM      8  C   UNL     1      -5.089  11.781  18.383  0.00  0.00    +0.000 A 
ATOM      9  C   UNL     1      -3.917  12.526  18.578  0.00  0.00    +0.000 A 
ATOM     10  C   UNL     1      -2.710  11.869  18.432  0.00  0.00    +0.000 A 
ATOM     11  C   UNL     1      -1.337  12.374  18.620  0.00  0.00    +0.000 C 
ATOM     12  O   UNL     1      -1.051  13.519  18.880  0.00  0.00    +0.000 OA
ENDROOT
BRANCH   1  14
ATOM     13  C   UNL     1       1.516  12.786  20.674  0.00  0.00    +0.000 A 
ATOM     14  C   UNL     1       1.555  12.231  19.360  0.00  0.00    +0.000 A 
ATOM     15  C   UNL     1       2.345  12.877  18.368  0.00  0.00    +0.000 A 
ATOM     16  C   UNL     1       3.119  14.012  18.620  0.00  0.00    +0.000 A 
ATOM     17  C   UNL     1       3.068  14.504  19.915  0.00  0.00    +0.000 A 
ATOM     18  O   UNL     1       3.746  15.594  20.361  0.00  0.00    +0.000 OA
ATOM     19  C   UNL     1       3.418  15.757  21.668  0.00  0.00    +0.000 A 
ATOM     20  C   UNL     1       2.536  14.780  22.065  0.00  0.00    +0.000 A 
ATOM     21  C   UNL     1       2.300  13.945  20.929  0.00  0.00    +0.000 A 
BRANCH  13  23
ATOM     22  C   UNL     1      -0.414  13.088  22.085  0.00  0.00    +0.000 C 
ATOM     23  O   UNL     1       0.760  12.380  21.738  0.00  0.00    +0.000 OA
ENDBRANCH  13  23
BRANCH  15  24
ATOM     24  O   UNL     1       2.419  12.446  17.063  0.00  0.00    +0.000 OA
ATOM     25  H   UNL     1       1.970  11.593  16.964  0.00  0.00    +0.000 HD
ENDBRANCH  15  24
ENDBRANCH   1  14
BRANCH   1  26
ATOM     26  C   UNL     1       1.591   9.722  18.893  0.00  0.00    +0.000 C 
ATOM     27  C   UNL     1       1.691   8.623  19.689  0.00  0.00    +0.000 C 
ATOM     28  C   UNL     1       0.996   8.473  21.028  0.00  0.00    +0.000 C 
BRANCH  27  29
ATOM     29  N   UNL     1       2.474   7.507  19.300  0.00  0.00    +0.000 N 
ATOM     30  C   UNL     1       2.307   6.146  19.835  0.00  0.00    +0.000 C 
ATOM     31  C   UNL     1       3.463   5.376  19.217  0.00  0.00    +0.000 C 
ATOM     32  C   UNL     1       3.529   5.939  17.812  0.00  0.00    +0.000 C 
ATOM     33  C   UNL     1       3.047   7.384  17.944  0.00  0.00    +0.000 C 
ENDBRANCH  27  29
ENDBRANCH   1  26
TORSDOF 5
ENDMDL
MODEL 9
REMARK VINA RESULT:      -6.5      1.478      2.809
REMARK  Name = 
REMARK  7 active torsions:
REMARK  status: ('A' for Active; 'I' for Inactive)
REMARK    1  A    between atoms: C_1  and  O_2
REMARK    2  A    between atoms: O_2  and  C_3
REMARK    3  A    between atoms: C_4  and  C_5
REMARK    4  A    between atoms: C_5  and  C_6
REMARK    5  A    between atoms: C_7  and  C_8
REMARK    6  A    between atoms: C_7  and  N_9
REMARK    7  A    between atoms: C_25  and  O_26
REMARK                            x       y       z     vdW  Elec       q    Type
REMARK                         _______ _______ _______ _____ _____    ______ ____
ROOT
ATOM      1  C   UNL     1      -1.495  13.147  20.628  0.00  0.00    +0.000 C 
ATOM      2  C   UNL     1      -1.107  14.408  20.324  0.00  0.00    +0.000 C 
ATOM      3  C   UNL     1       0.125  14.784  19.578  0.00  0.00    +0.000 C 
ATOM      4  O   UNL     1       1.221  14.262  19.605  0.00  0.00    +0.000 OA
ATOM      5  C   UNL     1      -0.161  16.069  18.960  0.00  0.00    +0.000 A 
ATOM      6  C   UNL     1       0.554  16.693  17.954  0.00  0.00    +0.000 A 
ATOM      7  C   UNL     1       0.158  17.981  17.597  0.00  0.00    +0.000 A 
ATOM      8  C   UNL     1      -0.923  18.605  18.253  0.00  0.00    +0.000 A 
ATOM      9  C   UNL     1      -1.661  17.931  19.236  0.00  0.00    +0.000 A 
ATOM     10  C   UNL     1      -1.270  16.646  19.561  0.00  0.00    +0.000 A 
ATOM     11  C   UNL     1      -1.878  15.692  20.507  0.00  0.00    +0.000 C 
ATOM     12  O   UNL     1      -2.819  15.933  21.225  0.00  0.00    +0.000 OA
ENDROOT
BRANCH   1  14
ATOM     13  C   UNL     1      -4.038  12.971  21.133  0.00  0.00    +0.000 A 
ATOM     14  C   UNL     1      -2.675  13.009  21.555  0.00  0.00    +0.000 A 
ATOM     15  C   UNL     1      -2.388  12.910  22.947  0.00  0.00    +0.000 A 
ATOM     16  C   UNL     1      -3.370  12.740  23.924  0.00  0.00    +0.000 A 
ATOM     17  C   UNL     1      -4.677  12.686  23.466  0.00  0.00    +0.000 A 
ATOM     18  O   UNL     1      -5.773  12.524  24.254  0.00  0.00    +0.000 OA
ATOM     19  C   UNL     1      -6.856  12.542  23.436  0.00  0.00    +0.000 A 
ATOM     20  C   UNL     1      -6.465  12.713  22.129  0.00  0.00    +0.000 A 
ATOM     21  C   UNL     1      -5.038  12.803  22.129  0.00  0.00    +0.000 A 
BRANCH  13  23
ATOM     22  C   UNL     1      -4.893  12.010  19.095  0.00  0.00    +0.000 C 
ATOM     23  O   UNL     1      -4.532  13.138  19.869  0.00  0.00    +0.000 OA
ENDBRANCH  13  23
BRANCH  15  24
ATOM     24  O   UNL     1      -1.113  12.976  23.461  0.00  0.00    +0.000 OA
ATOM     25  H   UNL     1      -1.137  13.268  24.385  0.00  0.00    +0.000 HD
ENDBRANCH  15  24
ENDBRANCH   1  14
BRANCH   1  26
ATOM     26  C   UNL     1      -0.762  11.898  20.283  0.00  0.00    +0.000 C 
ATOM     27  C   UNL     1      -0.680  11.097  19.186  0.00  0.00    +0.000 C 
ATOM     28  C   UNL     1      -1.507  11.284  17.929  0.00  0.00    +0.000 C 
BRANCH  27  29
ATOM     29  N   UNL     1       0.220  10.003  19.146  0.00  0.00    +0.000 N 
ATOM     30  C   UNL     1       1.358   9.895  18.218  0.00  0.00    +0.000 C 
ATOM     31  C   UNL     1       1.900   8.499  18.479  0.00  0.00    +0.000 C 
ATOM     32  C   UNL     1       1.768   8.363  19.982  0.00  0.00    +0.000 C 
ATOM     33  C   UNL     1       0.553   9.215  20.350  0.00  0.00    +0.000 C 
ENDBRANCH  27  29
ENDBRANCH   1  26
TORSDOF 5
ENDMDL
