MODEL 1
REMARK VINA RESULT:      -8.2      0.000      0.000
REMARK  Name = 
REMARK  5 active torsions:
REMARK  status: ('A' for Active; 'I' for Inactive)
REMARK    1  A    between atoms: C_1  and  C_2
REMARK    2  A    between atoms: C_5  and  C_6
REMARK    3  A    between atoms: C_8  and  C_9
REMARK    4  A    between atoms: C_15  and  C_16
REMARK    5  A    between atoms: C_22  and  C_23
REMARK                            x       y       z     vdW  Elec       q    Type
REMARK                         _______ _______ _______ _____ _____    ______ ____
ROOT
ATOM      1  C   UNL     1       1.842   6.863  19.916  0.00  0.00    +0.000 A 
ATOM      2  N   UNL     1       2.502   6.592  18.810  0.00  0.00    +0.000 NA
ATOM      3  C   UNL     1       2.802   5.238  18.699  0.00  0.00    +0.000 A 
ATOM      4  C   UNL     1       2.336   4.481  19.759  0.00  0.00    +0.000 A 
ATOM      5  S   UNL     1       1.528   5.472  20.893  0.00  0.00    +0.000 S 
ENDROOT
BRANCH   1  10
ATOM      6  C   UNL     1      -0.058  12.102  21.609  0.00  0.00    +0.000 C 
ATOM      7  C   UNL     1       0.453  10.760  21.178  0.00  0.00    +0.000 A 
ATOM      8  C   UNL     1       0.647   9.734  22.097  0.00  0.00    +0.000 A 
ATOM      9  C   UNL     1       1.107   8.485  21.670  0.00  0.00    +0.000 A 
ATOM     10  C   UNL     1       1.372   8.210  20.311  0.00  0.00    +0.000 A 
ATOM     11  C   UNL     1       1.191   9.259  19.379  0.00  0.00    +0.000 A 
ATOM     12  C   UNL     1       1.464   9.157  17.899  0.00  0.00    +0.000 C 
ATOM     13  C   UNL     1       0.740  10.519  19.832  0.00  0.00    +0.000 A 
ENDBRANCH   1  10
BRANCH   3  14
ATOM     14  C   UNL     1       3.469   4.652  17.526  0.00  0.00    +0.000 C 
ATOM     15  O   UNL     1       2.906   3.761  16.885  0.00  0.00    +0.000 OA
ATOM     16  N   UNL     1       4.726   5.134  17.145  0.00  0.00    +0.000 N 
ATOM     17  C   UNL     1       5.256   4.767  15.838  0.00  0.00    +0.000 C 
ATOM     18  C   UNL     1       6.542   3.963  15.988  0.00  0.00    +0.000 C 
ATOM     19  C   UNL     1       7.566   4.720  16.835  0.00  0.00    +0.000 C 
ATOM     20  C   UNL     1       6.969   5.141  18.184  0.00  0.00    +0.000 C 
ATOM     21  C   UNL     1       5.649   5.900  17.994  0.00  0.00    +0.000 C 
BRANCH  20  22
ATOM     22  C   UNL     1       7.949   5.993  18.974  0.00  0.00    +0.000 C 
ATOM     23  N   UNL     1       8.431   5.411  20.112  0.00  0.00    +0.000 N 
ATOM     24  O   UNL     1       8.311   7.117  18.652  0.00  0.00    +0.000 OA
ATOM     25  H   UNL     1       8.074   4.542  20.482  0.00  0.00    +0.000 HD
ATOM     26  H   UNL     1       9.051   5.966  20.687  0.00  0.00    +0.000 HD
ENDBRANCH  20  22
ENDBRANCH   3  14
TORSDOF 3
ENDMDL
MODEL 2
REMARK VINA RESULT:      -7.6      3.332      8.165
REMARK  Name = 
REMARK  5 active torsions:
REMARK  status: ('A' for Active; 'I' for Inactive)
REMARK    1  A    between atoms: C_1  and  C_2
REMARK    2  A    between atoms: C_5  and  C_6
REMARK    3  A    between atoms: C_8  and  C_9
REMARK    4  A    between atoms: C_15  and  C_16
REMARK    5  A    between atoms: C_22  and  C_23
REMARK                            x       y       z     vdW  Elec       q    Type
REMARK                         _______ _______ _______ _____ _____    ______ ____
ROOT
ATOM      1  C   UNL     1       2.383   6.826  19.281  0.00  0.00    +0.000 A 
ATOM      2  N   UNL     1       2.198   8.128  19.328  0.00  0.00    +0.000 NA
ATOM      3  C   UNL     1       1.390   8.503  20.396  0.00  0.00    +0.000 A 
ATOM      4  C   UNL     1       0.972   7.437  21.173  0.00  0.00    +0.000 A 
ATOM      5  S   UNL     1       1.591   5.968  20.556  0.00  0.00    +0.000 S 
ENDROOT
BRANCH   1  10
ATOM      6  C   UNL     1       5.683   4.205  15.262  0.00  0.00    +0.000 C 
ATOM      7  C   UNL     1       4.847   4.870  16.313  0.00  0.00    +0.000 A 
ATOM      8  C   UNL     1       5.199   6.111  16.835  0.00  0.00    +0.000 A 
ATOM      9  C   UNL     1       4.395   6.721  17.801  0.00  0.00    +0.000 A 
ATOM     10  C   UNL     1       3.204   6.125  18.268  0.00  0.00    +0.000 A 
ATOM     11  C   UNL     1       2.855   4.855  17.750  0.00  0.00    +0.000 A 
ATOM     12  C   UNL     1       1.645   4.056  18.163  0.00  0.00    +0.000 C 
ATOM     13  C   UNL     1       3.688   4.247  16.785  0.00  0.00    +0.000 A 
ENDBRANCH   1  10
BRANCH   3  14
ATOM     14  C   UNL     1       1.084   9.904  20.725  0.00  0.00    +0.000 C 
ATOM     15  O   UNL     1       1.362  10.345  21.843  0.00  0.00    +0.000 OA
ATOM     16  N   UNL     1       0.499  10.720  19.751  0.00  0.00    +0.000 N 
ATOM     17  C   UNL     1       0.458  12.161  19.968  0.00  0.00    +0.000 C 
ATOM     18  C   UNL     1      -0.983  12.652  20.041  0.00  0.00    +0.000 C 
ATOM     19  C   UNL     1      -1.768  12.232  18.798  0.00  0.00    +0.000 C 
ATOM     20  C   UNL     1      -1.668  10.720  18.560  0.00  0.00    +0.000 C 
ATOM     21  C   UNL     1      -0.205  10.256  18.547  0.00  0.00    +0.000 C 
BRANCH  20  22
ATOM     22  C   UNL     1      -2.350  10.324  17.261  0.00  0.00    +0.000 C 
ATOM     23  N   UNL     1      -2.204  11.217  16.238  0.00  0.00    +0.000 N 
ATOM     24  O   UNL     1      -2.990   9.295  17.097  0.00  0.00    +0.000 OA
ATOM     25  H   UNL     1      -1.791  12.131  16.356  0.00  0.00    +0.000 HD
ATOM     26  H   UNL     1      -2.682  11.008  15.371  0.00  0.00    +0.000 HD
ENDBRANCH  20  22
ENDBRANCH   3  14
TORSDOF 3
ENDMDL
MODEL 3
REMARK VINA RESULT:      -7.3      3.079      7.986
REMARK  Name = 
REMARK  5 active torsions:
REMARK  status: ('A' for Active; 'I' for Inactive)
REMARK    1  A    between atoms: C_1  and  C_2
REMARK    2  A    between atoms: C_5  and  C_6
REMARK    3  A    between atoms: C_8  and  C_9
REMARK    4  A    between atoms: C_15  and  C_16
REMARK    5  A    between atoms: C_22  and  C_23
REMARK                            x       y       z     vdW  Elec       q    Type
REMARK                         _______ _______ _______ _____ _____    ______ ____
ROOT
ATOM      1  C   UNL     1       2.832   6.361  19.102  0.00  0.00    +0.000 A 
ATOM      2  N   UNL     1       2.629   7.597  19.506  0.00  0.00    +0.000 NA
ATOM      3  C   UNL     1       1.664   7.668  20.505  0.00  0.00    +0.000 A 
ATOM      4  C   UNL     1       1.143   6.436  20.858  0.00  0.00    +0.000 A 
ATOM      5  S   UNL     1       1.863   5.194  19.930  0.00  0.00    +0.000 S 
ENDROOT
BRANCH   1  10
ATOM      6  C   UNL     1       6.601   4.906  14.907  0.00  0.00    +0.000 C 
ATOM      7  C   UNL     1       5.648   5.290  15.999  0.00  0.00    +0.000 A 
ATOM      8  C   UNL     1       5.025   6.535  16.006  0.00  0.00    +0.000 A 
ATOM      9  C   UNL     1       4.127   6.865  17.024  0.00  0.00    +0.000 A 
ATOM     10  C   UNL     1       3.804   5.962  18.059  0.00  0.00    +0.000 A 
ATOM     11  C   UNL     1       4.451   4.703  18.061  0.00  0.00    +0.000 A 
ATOM     12  C   UNL     1       4.259   3.635  19.108  0.00  0.00    +0.000 C 
ATOM     13  C   UNL     1       5.368   4.393  17.033  0.00  0.00    +0.000 A 
ENDBRANCH   1  10
BRANCH   3  14
ATOM     14  C   UNL     1       1.297   8.919  21.187  0.00  0.00    +0.000 C 
ATOM     15  O   UNL     1       1.403   9.001  22.414  0.00  0.00    +0.000 OA
ATOM     16  N   UNL     1       0.855  10.006  20.426  0.00  0.00    +0.000 N 
ATOM     17  C   UNL     1       0.767  11.319  21.053  0.00  0.00    +0.000 C 
ATOM     18  C   UNL     1      -0.674  11.814  21.059  0.00  0.00    +0.000 C 
ATOM     19  C   UNL     1      -1.263  11.807  19.648  0.00  0.00    +0.000 C 
ATOM     20  C   UNL     1      -1.112  10.431  18.989  0.00  0.00    +0.000 C 
ATOM     21  C   UNL     1       0.341   9.942  19.050  0.00  0.00    +0.000 C 
BRANCH  20  22
ATOM     22  C   UNL     1      -1.591  10.459  17.547  0.00  0.00    +0.000 C 
ATOM     23  N   UNL     1      -1.811  11.707  17.037  0.00  0.00    +0.000 N 
ATOM     24  O   UNL     1      -1.777   9.466  16.856  0.00  0.00    +0.000 OA
ATOM     25  H   UNL     1      -1.789  12.546  17.600  0.00  0.00    +0.000 HD
ATOM     26  H   UNL     1      -2.173  11.763  16.094  0.00  0.00    +0.000 HD
ENDBRANCH  20  22
ENDBRANCH   3  14
TORSDOF 3
ENDMDL
MODEL 4
REMARK VINA RESULT:      -7.2      5.295     10.248
REMARK  Name = 
REMARK  5 active torsions:
REMARK  status: ('A' for Active; 'I' for Inactive)
REMARK    1  A    between atoms: C_1  and  C_2
REMARK    2  A    between atoms: C_5  and  C_6
REMARK    3  A    between atoms: C_8  and  C_9
REMARK    4  A    between atoms: C_15  and  C_16
REMARK    5  A    between atoms: C_22  and  C_23
REMARK                            x       y       z     vdW  Elec       q    Type
REMARK                         _______ _______ _______ _____ _____    ______ ____
ROOT
ATOM      1  C   UNL     1       0.496  10.601  19.684  0.00  0.00    +0.000 A 
ATOM      2  N   UNL     1       0.848  11.470  20.607  0.00  0.00    +0.000 NA
ATOM      3  C   UNL     1      -0.092  12.485  20.754  0.00  0.00    +0.000 A 
ATOM      4  C   UNL     1      -1.183  12.353  19.914  0.00  0.00    +0.000 A 
ATOM      5  S   UNL     1      -1.023  10.958  18.939  0.00  0.00    +0.000 S 
ENDROOT
BRANCH   1  10
ATOM      6  C   UNL     1       3.574   5.937  18.042  0.00  0.00    +0.000 C 
ATOM      7  C   UNL     1       2.801   7.148  18.471  0.00  0.00    +0.000 A 
ATOM      8  C   UNL     1       2.598   8.217  17.604  0.00  0.00    +0.000 A 
ATOM      9  C   UNL     1       1.860   9.329  18.019  0.00  0.00    +0.000 A 
ATOM     10  C   UNL     1       1.283   9.406  19.305  0.00  0.00    +0.000 A 
ATOM     11  C   UNL     1       1.504   8.326  20.193  0.00  0.00    +0.000 A 
ATOM     12  C   UNL     1       1.000   8.256  21.612  0.00  0.00    +0.000 C 
ATOM     13  C   UNL     1       2.266   7.218  19.760  0.00  0.00    +0.000 A 
ENDBRANCH   1  10
BRANCH   3  14
ATOM     14  C   UNL     1       0.015  13.546  21.769  0.00  0.00    +0.000 C 
ATOM     15  O   UNL     1       1.125  13.981  22.084  0.00  0.00    +0.000 OA
ATOM     16  N   UNL     1      -1.153  14.058  22.344  0.00  0.00    +0.000 N 
ATOM     17  C   UNL     1      -1.075  15.288  23.123  0.00  0.00    +0.000 C 
ATOM     18  C   UNL     1      -1.479  15.032  24.570  0.00  0.00    +0.000 C 
ATOM     19  C   UNL     1      -2.862  14.385  24.647  0.00  0.00    +0.000 C 
ATOM     20  C   UNL     1      -2.936  13.123  23.778  0.00  0.00    +0.000 C 
ATOM     21  C   UNL     1      -2.471  13.408  22.344  0.00  0.00    +0.000 C 
BRANCH  20  22
ATOM     22  C   UNL     1      -4.343  12.550  23.764  0.00  0.00    +0.000 C 
ATOM     23  N   UNL     1      -4.828  12.181  24.987  0.00  0.00    +0.000 N 
ATOM     24  O   UNL     1      -5.029  12.413  22.760  0.00  0.00    +0.000 OA
ATOM     25  H   UNL     1      -4.261  12.161  25.823  0.00  0.00    +0.000 HD
ATOM     26  H   UNL     1      -5.744  11.754  25.010  0.00  0.00    +0.000 HD
ENDBRANCH  20  22
ENDBRANCH   3  14
TORSDOF 3
ENDMDL
MODEL 5
REMARK VINA RESULT:      -7.2      3.235      5.093
REMARK  Name = 
REMARK  5 active torsions:
REMARK  status: ('A' for Active; 'I' for Inactive)
REMARK    1  A    between atoms: C_1  and  C_2
REMARK    2  A    between atoms: C_5  and  C_6
REMARK    3  A    between atoms: C_8  and  C_9
REMARK    4  A    between atoms: C_15  and  C_16
REMARK    5  A    between atoms: C_22  and  C_23
REMARK                            x       y       z     vdW  Elec       q    Type
REMARK                         _______ _______ _______ _____ _____    ______ ____
ROOT
ATOM      1  C   UNL     1      -0.345   9.688  18.862  0.00  0.00    +0.000 A 
ATOM      2  N   UNL     1       0.563   9.210  18.039  0.00  0.00    +0.000 NA
ATOM      3  C   UNL     1       1.643   8.655  18.717  0.00  0.00    +0.000 A 
ATOM      4  C   UNL     1       1.521   8.717  20.094  0.00  0.00    +0.000 A 
ATOM      5  S   UNL     1       0.055   9.477  20.531  0.00  0.00    +0.000 S 
ENDROOT
BRANCH   1  10
ATOM      6  C   UNL     1      -5.324  12.128  17.080  0.00  0.00    +0.000 C 
ATOM      7  C   UNL     1      -4.054  11.487  17.554  0.00  0.00    +0.000 A 
ATOM      8  C   UNL     1      -3.584  10.309  16.980  0.00  0.00    +0.000 A 
ATOM      9  C   UNL     1      -2.389   9.738  17.425  0.00  0.00    +0.000 A 
ATOM     10  C   UNL     1      -1.611  10.330  18.444  0.00  0.00    +0.000 A 
ATOM     11  C   UNL     1      -2.098  11.518  19.039  0.00  0.00    +0.000 A 
ATOM     12  C   UNL     1      -1.422  12.260  20.164  0.00  0.00    +0.000 C 
ATOM     13  C   UNL     1      -3.316  12.071  18.586  0.00  0.00    +0.000 A 
ENDBRANCH   1  10
BRANCH   3  14
ATOM     14  C   UNL     1       2.764   7.982  18.041  0.00  0.00    +0.000 C 
ATOM     15  O   UNL     1       3.424   8.593  17.197  0.00  0.00    +0.000 OA
ATOM     16  N   UNL     1       3.074   6.662  18.386  0.00  0.00    +0.000 N 
ATOM     17  C   UNL     1       4.339   6.094  17.938  0.00  0.00    +0.000 C 
ATOM     18  C   UNL     1       4.097   4.908  17.013  0.00  0.00    +0.000 C 
ATOM     19  C   UNL     1       3.200   3.866  17.681  0.00  0.00    +0.000 C 
ATOM     20  C   UNL     1       1.898   4.496  18.191  0.00  0.00    +0.000 C 
ATOM     21  C   UNL     1       2.181   5.719  19.074  0.00  0.00    +0.000 C 
BRANCH  20  22
ATOM     22  C   UNL     1       1.062   3.484  18.957  0.00  0.00    +0.000 C 
ATOM     23  N   UNL     1       0.750   3.845  20.236  0.00  0.00    +0.000 N 
ATOM     24  O   UNL     1       0.674   2.416  18.502  0.00  0.00    +0.000 OA
ATOM     25  H   UNL     1       1.145   4.653  20.695  0.00  0.00    +0.000 HD
ATOM     26  H   UNL     1       0.233   3.175  20.791  0.00  0.00    +0.000 HD
ENDBRANCH  20  22
ENDBRANCH   3  14
TORSDOF 3
ENDMDL
MODEL 6
REMARK VINA RESULT:      -7.1      5.459     10.123
REMARK  Name = 
REMARK  5 active torsions:
REMARK  status: ('A' for Active; 'I' for Inactive)
REMARK    1  A    between atoms: C_1  and  C_2
REMARK    2  A    between atoms: C_5  and  C_6
REMARK    3  A    between atoms: C_8  and  C_9
REMARK    4  A    between atoms: C_15  and  C_16
REMARK    5  A    between atoms: C_22  and  C_23
REMARK                            x       y       z     vdW  Elec       q    Type
REMARK                         _______ _______ _______ _____ _____    ______ ____
ROOT
ATOM      1  C   UNL     1       0.446  10.720  19.785  0.00  0.00    +0.000 A 
ATOM      2  N   UNL     1      -0.669  10.717  20.484  0.00  0.00    +0.000 NA
ATOM      3  C   UNL     1      -1.138  12.005  20.724  0.00  0.00    +0.000 A 
ATOM      4  C   UNL     1      -0.343  12.994  20.171  0.00  0.00    +0.000 A 
ATOM      5  S   UNL     1       0.992  12.303  19.358  0.00  0.00    +0.000 S 
ENDROOT
BRANCH   1  10
ATOM      6  C   UNL     1       3.302   5.980  17.969  0.00  0.00    +0.000 C 
ATOM      7  C   UNL     1       2.587   7.210  18.441  0.00  0.00    +0.000 A 
ATOM      8  C   UNL     1       2.300   8.256  17.568  0.00  0.00    +0.000 A 
ATOM      9  C   UNL     1       1.617   9.386  18.025  0.00  0.00    +0.000 A 
ATOM     10  C   UNL     1       1.180   9.506  19.362  0.00  0.00    +0.000 A 
ATOM     11  C   UNL     1       1.487   8.451  20.253  0.00  0.00    +0.000 A 
ATOM     12  C   UNL     1       1.136   8.428  21.719  0.00  0.00    +0.000 C 
ATOM     13  C   UNL     1       2.192   7.324  19.776  0.00  0.00    +0.000 A 
ENDBRANCH   1  10
BRANCH   3  14
ATOM     14  C   UNL     1      -2.405  12.288  21.417  0.00  0.00    +0.000 C 
ATOM     15  O   UNL     1      -2.471  12.169  22.643  0.00  0.00    +0.000 OA
ATOM     16  N   UNL     1      -3.509  12.711  20.671  0.00  0.00    +0.000 N 
ATOM     17  C   UNL     1      -4.664  13.263  21.369  0.00  0.00    +0.000 C 
ATOM     18  C   UNL     1      -5.896  12.398  21.133  0.00  0.00    +0.000 C 
ATOM     19  C   UNL     1      -6.159  12.213  19.638  0.00  0.00    +0.000 C 
ATOM     20  C   UNL     1      -4.914  11.681  18.916  0.00  0.00    +0.000 C 
ATOM     21  C   UNL     1      -3.684  12.546  19.221  0.00  0.00    +0.000 C 
BRANCH  20  22
ATOM     22  C   UNL     1      -5.141  11.610  17.415  0.00  0.00    +0.000 C 
ATOM     23  N   UNL     1      -6.380  12.008  17.000  0.00  0.00    +0.000 N 
ATOM     24  O   UNL     1      -4.307  11.235  16.602  0.00  0.00    +0.000 OA
ATOM     25  H   UNL     1      -7.138  12.210  17.636  0.00  0.00    +0.000 HD
ATOM     26  H   UNL     1      -6.582  11.932  16.012  0.00  0.00    +0.000 HD
ENDBRANCH  20  22
ENDBRANCH   3  14
TORSDOF 3
ENDMDL
MODEL 7
REMARK VINA RESULT:      -7.1      5.829     10.483
REMARK  Name = 
REMARK  5 active torsions:
REMARK  status: ('A' for Active; 'I' for Inactive)
REMARK    1  A    between atoms: C_1  and  C_2
REMARK    2  A    between atoms: C_5  and  C_6
REMARK    3  A    between atoms: C_8  and  C_9
REMARK    4  A    between atoms: C_15  and  C_16
REMARK    5  A    between atoms: C_22  and  C_23
REMARK                            x       y       z     vdW  Elec       q    Type
REMARK                         _______ _______ _______ _____ _____    ______ ____
ROOT
ATOM      1  C   UNL     1      -0.111  11.270  20.725  0.00  0.00    +0.000 A 
ATOM      2  N   UNL     1      -1.336  11.120  21.181  0.00  0.00    +0.000 NA
ATOM      3  C   UNL     1      -1.813  12.278  21.788  0.00  0.00    +0.000 A 
ATOM      4  C   UNL     1      -0.908  13.324  21.768  0.00  0.00    +0.000 A 
ATOM      5  S   UNL     1       0.539  12.849  20.994  0.00  0.00    +0.000 S 
ENDROOT
BRANCH   1  10
ATOM      6  C   UNL     1       2.878   7.204  17.818  0.00  0.00    +0.000 C 
ATOM      7  C   UNL     1       2.128   8.262  18.570  0.00  0.00    +0.000 A 
ATOM      8  C   UNL     1       1.654   9.402  17.929  0.00  0.00    +0.000 A 
ATOM      9  C   UNL     1       0.942  10.367  18.645  0.00  0.00    +0.000 A 
ATOM     10  C   UNL     1       0.662  10.222  20.022  0.00  0.00    +0.000 A 
ATOM     11  C   UNL     1       1.159   9.071  20.677  0.00  0.00    +0.000 A 
ATOM     12  C   UNL     1       0.992   8.773  22.146  0.00  0.00    +0.000 C 
ATOM     13  C   UNL     1       1.890   8.114  19.939  0.00  0.00    +0.000 A 
ENDBRANCH   1  10
BRANCH   3  14
ATOM     14  C   UNL     1      -3.180  12.410  22.316  0.00  0.00    +0.000 C 
ATOM     15  O   UNL     1      -3.408  12.140  23.498  0.00  0.00    +0.000 OA
ATOM     16  N   UNL     1      -4.197  12.863  21.469  0.00  0.00    +0.000 N 
ATOM     17  C   UNL     1      -5.472  13.266  22.048  0.00  0.00    +0.000 C 
ATOM     18  C   UNL     1      -6.598  12.374  21.540  0.00  0.00    +0.000 C 
ATOM     19  C   UNL     1      -6.637  12.358  20.011  0.00  0.00    +0.000 C 
ATOM     20  C   UNL     1      -5.271  11.983  19.423  0.00  0.00    +0.000 C 
ATOM     21  C   UNL     1      -4.157  12.867  19.999  0.00  0.00    +0.000 C 
BRANCH  20  22
ATOM     22  C   UNL     1      -5.282  12.083  17.906  0.00  0.00    +0.000 C 
ATOM     23  N   UNL     1      -4.054  11.994  17.314  0.00  0.00    +0.000 N 
ATOM     24  O   UNL     1      -6.288  12.229  17.226  0.00  0.00    +0.000 OA
ATOM     25  H   UNL     1      -3.188  11.996  17.834  0.00  0.00    +0.000 HD
ATOM     26  H   UNL     1      -4.019  12.102  16.309  0.00  0.00    +0.000 HD
ENDBRANCH  20  22
ENDBRANCH   3  14
TORSDOF 3
ENDMDL
MODEL 8
REMARK VINA RESULT:      -7.1      3.479      8.277
REMARK  Name = 
REMARK  5 active torsions:
REMARK  status: ('A' for Active; 'I' for Inactive)
REMARK    1  A    between atoms: C_1  and  C_2
REMARK    2  A    between atoms: C_5  and  C_6
REMARK    3  A    between atoms: C_8  and  C_9
REMARK    4  A    between atoms: C_15  and  C_16
REMARK    5  A    between atoms: C_22  and  C_23
REMARK                            x       y       z     vdW  Elec       q    Type
REMARK                         _______ _______ _______ _____ _____    ______ ____
ROOT
ATOM      1  C   UNL     1       2.827   7.310  18.380  0.00  0.00    +0.000 A 
ATOM      2  N   UNL     1       2.522   8.519  17.961  0.00  0.00    +0.000 NA
ATOM      3  C   UNL     1       1.753   9.215  18.889  0.00  0.00    +0.000 A 
ATOM      4  C   UNL     1       1.490   8.493  20.040  0.00  0.00    +0.000 A 
ATOM      5  S   UNL     1       2.204   6.943  19.951  0.00  0.00    +0.000 S 
ENDROOT
BRANCH   1  10
ATOM      6  C   UNL     1       6.114   3.592  15.333  0.00  0.00    +0.000 C 
ATOM      7  C   UNL     1       5.280   4.543  16.136  0.00  0.00    +0.000 A 
ATOM      8  C   UNL     1       5.673   5.866  16.321  0.00  0.00    +0.000 A 
ATOM      9  C   UNL     1       4.871   6.740  17.059  0.00  0.00    +0.000 A 
ATOM     10  C   UNL     1       3.642   6.334  17.623  0.00  0.00    +0.000 A 
ATOM     11  C   UNL     1       3.251   4.985  17.449  0.00  0.00    +0.000 A 
ATOM     12  C   UNL     1       1.996   4.369  18.013  0.00  0.00    +0.000 C 
ATOM     13  C   UNL     1       4.083   4.112  16.713  0.00  0.00    +0.000 A 
ENDBRANCH   1  10
BRANCH   3  14
ATOM     14  C   UNL     1       1.337  10.615  18.707  0.00  0.00    +0.000 C 
ATOM     15  O   UNL     1       1.974  11.349  17.948  0.00  0.00    +0.000 OA
ATOM     16  N   UNL     1       0.206  11.082  19.386  0.00  0.00    +0.000 N 
ATOM     17  C   UNL     1      -0.372  12.362  18.995  0.00  0.00    +0.000 C 
ATOM     18  C   UNL     1      -0.305  13.355  20.149  0.00  0.00    +0.000 C 
ATOM     19  C   UNL     1      -0.963  12.782  21.405  0.00  0.00    +0.000 C 
ATOM     20  C   UNL     1      -0.375  11.413  21.766  0.00  0.00    +0.000 C 
ATOM     21  C   UNL     1      -0.411  10.459  20.565  0.00  0.00    +0.000 C 
BRANCH  20  22
ATOM     22  C   UNL     1      -1.111  10.795  22.944  0.00  0.00    +0.000 C 
ATOM     23  N   UNL     1      -0.563   9.639  23.423  0.00  0.00    +0.000 N 
ATOM     24  O   UNL     1      -2.118  11.262  23.457  0.00  0.00    +0.000 OA
ATOM     25  H   UNL     1       0.191   9.151  22.960  0.00  0.00    +0.000 HD
ATOM     26  H   UNL     1      -1.052   9.175  24.177  0.00  0.00    +0.000 HD
ENDBRANCH  20  22
ENDBRANCH   3  14
TORSDOF 3
ENDMDL
MODEL 9
REMARK VINA RESULT:      -7.1      5.348      9.077
REMARK  Name = 
REMARK  5 active torsions:
REMARK  status: ('A' for Active; 'I' for Inactive)
REMARK    1  A    between atoms: C_1  and  C_2
REMARK    2  A    between atoms: C_5  and  C_6
REMARK    3  A    between atoms: C_8  and  C_9
REMARK    4  A    between atoms: C_15  and  C_16
REMARK    5  A    between atoms: C_22  and  C_23
REMARK                            x       y       z     vdW  Elec       q    Type
REMARK                         _______ _______ _______ _____ _____    ______ ____
ROOT
ATOM      1  C   UNL     1       0.860  10.731  19.611  0.00  0.00    +0.000 A 
ATOM      2  N   UNL     1       1.444  11.647  20.352  0.00  0.00    +0.000 NA
ATOM      3  C   UNL     1       0.643  12.773  20.519  0.00  0.00    +0.000 A 
ATOM      4  C   UNL     1      -0.583  12.676  19.885  0.00  0.00    +0.000 A 
ATOM      5  S   UNL     1      -0.723  11.176  19.078  0.00  0.00    +0.000 S 
ENDROOT
BRANCH   1  10
ATOM      6  C   UNL     1       3.183   5.611  18.091  0.00  0.00    +0.000 C 
ATOM      7  C   UNL     1       2.606   6.936  18.488  0.00  0.00    +0.000 A 
ATOM      8  C   UNL     1       2.540   7.993  17.585  0.00  0.00    +0.000 A 
ATOM      9  C   UNL     1       1.982   9.214  17.971  0.00  0.00    +0.000 A 
ATOM     10  C   UNL     1       1.454   9.420  19.264  0.00  0.00    +0.000 A 
ATOM     11  C   UNL     1       1.537   8.351  20.187  0.00  0.00    +0.000 A 
ATOM     12  C   UNL     1       1.064   8.407  21.618  0.00  0.00    +0.000 C 
ATOM     13  C   UNL     1       2.119   7.130  19.783  0.00  0.00    +0.000 A 
ENDBRANCH   1  10
BRANCH   3  14
ATOM     14  C   UNL     1       1.021  13.916  21.364  0.00  0.00    +0.000 C 
ATOM     15  O   UNL     1       0.446  14.099  22.440  0.00  0.00    +0.000 OA
ATOM     16  N   UNL     1       2.047  14.767  20.939  0.00  0.00    +0.000 N 
ATOM     17  C   UNL     1       2.616  15.716  21.887  0.00  0.00    +0.000 C 
ATOM     18  C   UNL     1       2.378  17.148  21.421  0.00  0.00    +0.000 C 
ATOM     19  C   UNL     1       2.911  17.357  20.003  0.00  0.00    +0.000 C 
ATOM     20  C   UNL     1       2.340  16.315  19.033  0.00  0.00    +0.000 C 
ATOM     21  C   UNL     1       2.550  14.890  19.563  0.00  0.00    +0.000 C 
BRANCH  20  22
ATOM     22  C   UNL     1       2.961  16.453  17.653  0.00  0.00    +0.000 C 
ATOM     23  N   UNL     1       3.628  15.348  17.208  0.00  0.00    +0.000 N 
ATOM     24  O   UNL     1       2.891  17.457  16.956  0.00  0.00    +0.000 OA
ATOM     25  H   UNL     1       3.817  14.544  17.790  0.00  0.00    +0.000 HD
ATOM     26  H   UNL     1       4.092  15.419  16.312  0.00  0.00    +0.000 HD
ENDBRANCH  20  22
ENDBRANCH   3  14
TORSDOF 3
ENDMDL
