MODEL 1
REMARK VINA RESULT:      -7.3      0.000      0.000
REMARK  Name = 
REMARK  5 active torsions:
REMARK  status: ('A' for Active; 'I' for Inactive)
REMARK    1  A    between atoms: C_1  and  N_2
REMARK    2  A    between atoms: N_7  and  C_8
REMARK    3  A    between atoms: C_8  and  C_9
REMARK    4  A    between atoms: N_11  and  C_12
REMARK    5  A    between atoms: C_12  and  C_13
REMARK                            x       y       z     vdW  Elec       q    Type
REMARK                         _______ _______ _______ _____ _____    ______ ____
ROOT
ATOM      1  C   UNL     1       3.207   3.980  20.058  0.00  0.00    +0.000 C 
ATOM      2  O   UNL     1       2.216   3.323  20.376  0.00  0.00    +0.000 OA
ATOM      3  N   UNL     1       3.247   5.357  20.121  0.00  0.00    +0.000 N 
ATOM      4  H   UNL     1       4.075   5.861  19.827  0.00  0.00    +0.000 HD
ENDROOT
BRANCH   1   5
ATOM      5  C   UNL     1       4.490   3.318  19.553  0.00  0.00    +0.000 C 
BRANCH   5  12
ATOM      6  C   UNL     1       7.439   6.692  17.673  0.00  0.00    +0.000 C 
ATOM      7  N   UNL     1       6.471   5.634  17.464  0.00  0.00    +0.000 N 
ATOM      8  C   UNL     1       5.966   5.440  16.193  0.00  0.00    +0.000 A 
ATOM      9  O   UNL     1       6.267   6.098  15.201  0.00  0.00    +0.000 OA
ATOM     10  C   UNL     1       4.976   4.359  16.045  0.00  0.00    +0.000 A 
ATOM     11  C   UNL     1       4.558   3.704  17.127  0.00  0.00    +0.000 A 
ATOM     12  N   UNL     1       5.038   4.002  18.382  0.00  0.00    +0.000 N 
ATOM     13  C   UNL     1       6.052   4.933  18.593  0.00  0.00    +0.000 A 
ATOM     14  O   UNL     1       6.523   5.135  19.714  0.00  0.00    +0.000 OA
ENDBRANCH   5  12
ENDBRANCH   1   5
BRANCH   3  15
ATOM     15  C   UNL     1       2.097   6.127  20.538  0.00  0.00    +0.000 C 
BRANCH  15  16
ATOM     16  C   UNL     1       1.963   7.425  19.782  0.00  0.00    +0.000 A 
ATOM     17  C   UNL     1       2.459   7.547  18.476  0.00  0.00    +0.000 A 
ATOM     18  C   UNL     1       2.242   8.713  17.737  0.00  0.00    +0.000 A 
ATOM     19  C   UNL     1       1.526   9.770  18.297  0.00  0.00    +0.000 A 
ATOM     20  C   UNL     1       1.040   9.668  19.598  0.00  0.00    +0.000 A 
ATOM     21  C   UNL     1       1.257   8.504  20.338  0.00  0.00    +0.000 A 
ENDBRANCH  15  16
ENDBRANCH   3  15
TORSDOF 4
ENDMDL
MODEL 2
REMARK VINA RESULT:      -7.2      3.939      6.532
REMARK  Name = 
REMARK  5 active torsions:
REMARK  status: ('A' for Active; 'I' for Inactive)
REMARK    1  A    between atoms: C_1  and  N_2
REMARK    2  A    between atoms: N_7  and  C_8
REMARK    3  A    between atoms: C_8  and  C_9
REMARK    4  A    between atoms: N_11  and  C_12
REMARK    5  A    between atoms: C_12  and  C_13
REMARK                            x       y       z     vdW  Elec       q    Type
REMARK                         _______ _______ _______ _____ _____    ______ ____
ROOT
ATOM      1  C   UNL     1       7.829   7.703  18.016  0.00  0.00    +0.000 C 
ATOM      2  O   UNL     1       7.145   7.942  17.021  0.00  0.00    +0.000 OA
ATOM      3  N   UNL     1       8.598   8.657  18.647  0.00  0.00    +0.000 N 
ATOM      4  H   UNL     1       9.165   8.412  19.449  0.00  0.00    +0.000 HD
ENDROOT
BRANCH   1   5
ATOM      5  C   UNL     1       7.891   6.307  18.638  0.00  0.00    +0.000 C 
BRANCH   5  12
ATOM      6  C   UNL     1       5.723   3.353  15.445  0.00  0.00    +0.000 C 
ATOM      7  N   UNL     1       5.687   4.047  16.717  0.00  0.00    +0.000 N 
ATOM      8  C   UNL     1       4.505   4.058  17.433  0.00  0.00    +0.000 A 
ATOM      9  O   UNL     1       3.457   3.523  17.081  0.00  0.00    +0.000 OA
ATOM     10  C   UNL     1       4.527   4.790  18.711  0.00  0.00    +0.000 A 
ATOM     11  C   UNL     1       5.621   5.464  19.059  0.00  0.00    +0.000 A 
ATOM     12  N   UNL     1       6.742   5.484  18.260  0.00  0.00    +0.000 N 
ATOM     13  C   UNL     1       6.841   4.732  17.092  0.00  0.00    +0.000 A 
ATOM     14  O   UNL     1       7.878   4.702  16.426  0.00  0.00    +0.000 OA
ENDBRANCH   5  12
ENDBRANCH   1   5
BRANCH   3  15
ATOM     15  C   UNL     1       8.675  10.012  18.150  0.00  0.00    +0.000 C 
BRANCH  15  16
ATOM     16  C   UNL     1       9.739  10.825  18.846  0.00  0.00    +0.000 A 
ATOM     17  C   UNL     1      10.792  11.398  18.117  0.00  0.00    +0.000 A 
ATOM     18  C   UNL     1      11.716  12.238  18.743  0.00  0.00    +0.000 A 
ATOM     19  C   UNL     1      11.598  12.515  20.104  0.00  0.00    +0.000 A 
ATOM     20  C   UNL     1      10.565  11.942  20.842  0.00  0.00    +0.000 A 
ATOM     21  C   UNL     1       9.640  11.102  20.218  0.00  0.00    +0.000 A 
ENDBRANCH  15  16
ENDBRANCH   3  15
TORSDOF 4
ENDMDL
MODEL 3
REMARK VINA RESULT:      -7.2      2.404      4.340
REMARK  Name = 
REMARK  5 active torsions:
REMARK  status: ('A' for Active; 'I' for Inactive)
REMARK    1  A    between atoms: C_1  and  N_2
REMARK    2  A    between atoms: N_7  and  C_8
REMARK    3  A    between atoms: C_8  and  C_9
REMARK    4  A    between atoms: N_11  and  C_12
REMARK    5  A    between atoms: C_12  and  C_13
REMARK                            x       y       z     vdW  Elec       q    Type
REMARK                         _______ _______ _______ _____ _____    ______ ____
ROOT
ATOM      1  C   UNL     1       2.745   6.515  18.154  0.00  0.00    +0.000 C 
ATOM      2  O   UNL     1       2.051   6.948  19.073  0.00  0.00    +0.000 OA
ATOM      3  N   UNL     1       2.534   5.286  17.567  0.00  0.00    +0.000 N 
ATOM      4  H   UNL     1       3.144   4.957  16.829  0.00  0.00    +0.000 HD
ENDROOT
BRANCH   1   5
ATOM      5  C   UNL     1       3.921   7.311  17.585  0.00  0.00    +0.000 C 
BRANCH   5  12
ATOM      6  C   UNL     1       7.216   4.942  14.910  0.00  0.00    +0.000 C 
ATOM      7  N   UNL     1       6.746   5.363  16.215  0.00  0.00    +0.000 N 
ATOM      8  C   UNL     1       7.357   4.840  17.339  0.00  0.00    +0.000 A 
ATOM      9  O   UNL     1       8.280   4.031  17.333  0.00  0.00    +0.000 OA
ATOM     10  C   UNL     1       6.828   5.295  18.636  0.00  0.00    +0.000 A 
ATOM     11  C   UNL     1       5.759   6.089  18.664  0.00  0.00    +0.000 A 
ATOM     12  N   UNL     1       5.142   6.510  17.508  0.00  0.00    +0.000 N 
ATOM     13  C   UNL     1       5.643   6.214  16.243  0.00  0.00    +0.000 A 
ATOM     14  O   UNL     1       5.122   6.660  15.218  0.00  0.00    +0.000 OA
ENDBRANCH   5  12
ENDBRANCH   1   5
BRANCH   3  15
ATOM     15  C   UNL     1       1.487   4.401  18.026  0.00  0.00    +0.000 C 
BRANCH  15  16
ATOM     16  C   UNL     1       1.879   3.632  19.264  0.00  0.00    +0.000 A 
ATOM     17  C   UNL     1       3.185   3.144  19.419  0.00  0.00    +0.000 A 
ATOM     18  C   UNL     1       3.577   2.526  20.609  0.00  0.00    +0.000 A 
ATOM     19  C   UNL     1       2.669   2.390  21.657  0.00  0.00    +0.000 A 
ATOM     20  C   UNL     1       1.365   2.858  21.511  0.00  0.00    +0.000 A 
ATOM     21  C   UNL     1       0.971   3.476  20.323  0.00  0.00    +0.000 A 
ENDBRANCH  15  16
ENDBRANCH   3  15
TORSDOF 4
ENDMDL
MODEL 4
REMARK VINA RESULT:      -7.1      2.542      6.161
REMARK  Name = 
REMARK  5 active torsions:
REMARK  status: ('A' for Active; 'I' for Inactive)
REMARK    1  A    between atoms: C_1  and  N_2
REMARK    2  A    between atoms: N_7  and  C_8
REMARK    3  A    between atoms: C_8  and  C_9
REMARK    4  A    between atoms: N_11  and  C_12
REMARK    5  A    between atoms: C_12  and  C_13
REMARK                            x       y       z     vdW  Elec       q    Type
REMARK                         _______ _______ _______ _____ _____    ______ ____
ROOT
ATOM      1  C   UNL     1       6.882   5.750  18.048  0.00  0.00    +0.000 C 
ATOM      2  O   UNL     1       7.503   6.810  18.124  0.00  0.00    +0.000 OA
ATOM      3  N   UNL     1       6.834   4.988  16.900  0.00  0.00    +0.000 N 
ATOM      4  H   UNL     1       6.291   4.133  16.873  0.00  0.00    +0.000 HD
ENDROOT
BRANCH   1   5
ATOM      5  C   UNL     1       6.095   5.186  19.232  0.00  0.00    +0.000 C 
BRANCH   5  12
ATOM      6  C   UNL     1       2.465   1.981  18.827  0.00  0.00    +0.000 C 
ATOM      7  N   UNL     1       2.940   3.343  18.687  0.00  0.00    +0.000 N 
ATOM      8  C   UNL     1       2.128   4.266  18.056  0.00  0.00    +0.000 A 
ATOM      9  O   UNL     1       1.017   4.032  17.589  0.00  0.00    +0.000 OA
ATOM     10  C   UNL     1       2.670   5.630  17.931  0.00  0.00    +0.000 A 
ATOM     11  C   UNL     1       3.915   5.877  18.335  0.00  0.00    +0.000 A 
ATOM     12  N   UNL     1       4.706   4.893  18.881  0.00  0.00    +0.000 N 
ATOM     13  C   UNL     1       4.233   3.607  19.132  0.00  0.00    +0.000 A 
ATOM     14  O   UNL     1       4.931   2.757  19.690  0.00  0.00    +0.000 OA
ENDBRANCH   5  12
ENDBRANCH   1   5
BRANCH   3  15
ATOM     15  C   UNL     1       7.492   5.412  15.685  0.00  0.00    +0.000 C 
BRANCH  15  16
ATOM     16  C   UNL     1       6.870   4.813  14.448  0.00  0.00    +0.000 A 
ATOM     17  C   UNL     1       7.594   4.735  13.250  0.00  0.00    +0.000 A 
ATOM     18  C   UNL     1       7.057   4.085  12.135  0.00  0.00    +0.000 A 
ATOM     19  C   UNL     1       5.791   3.506  12.207  0.00  0.00    +0.000 A 
ATOM     20  C   UNL     1       5.056   3.588  13.387  0.00  0.00    +0.000 A 
ATOM     21  C   UNL     1       5.590   4.237  14.502  0.00  0.00    +0.000 A 
ENDBRANCH  15  16
ENDBRANCH   3  15
TORSDOF 4
ENDMDL
MODEL 5
REMARK VINA RESULT:      -7.1      3.014      6.361
REMARK  Name = 
REMARK  5 active torsions:
REMARK  status: ('A' for Active; 'I' for Inactive)
REMARK    1  A    between atoms: C_1  and  N_2
REMARK    2  A    between atoms: N_7  and  C_8
REMARK    3  A    between atoms: C_8  and  C_9
REMARK    4  A    between atoms: N_11  and  C_12
REMARK    5  A    between atoms: C_12  and  C_13
REMARK                            x       y       z     vdW  Elec       q    Type
REMARK                         _______ _______ _______ _____ _____    ______ ____
ROOT
ATOM      1  C   UNL     1       5.753   5.137  17.645  0.00  0.00    +0.000 C 
ATOM      2  O   UNL     1       5.168   6.207  17.479  0.00  0.00    +0.000 OA
ATOM      3  N   UNL     1       6.782   4.710  16.833  0.00  0.00    +0.000 N 
ATOM      4  H   UNL     1       7.221   3.811  16.991  0.00  0.00    +0.000 HD
ENDROOT
BRANCH   1   5
ATOM      5  C   UNL     1       5.379   4.177  18.776  0.00  0.00    +0.000 C 
BRANCH   5  12
ATOM      6  C   UNL     1       0.790   4.128  20.377  0.00  0.00    +0.000 C 
ATOM      7  N   UNL     1       1.777   3.665  19.421  0.00  0.00    +0.000 N 
ATOM      8  C   UNL     1       1.433   2.646  18.554  0.00  0.00    +0.000 A 
ATOM      9  O   UNL     1       0.343   2.082  18.519  0.00  0.00    +0.000 OA
ATOM     10  C   UNL     1       2.481   2.209  17.616  0.00  0.00    +0.000 A 
ATOM     11  C   UNL     1       3.701   2.734  17.709  0.00  0.00    +0.000 A 
ATOM     12  N   UNL     1       4.006   3.689  18.652  0.00  0.00    +0.000 N 
ATOM     13  C   UNL     1       3.047   4.233  19.503  0.00  0.00    +0.000 A 
ATOM     14  O   UNL     1       3.320   5.140  20.292  0.00  0.00    +0.000 OA
ENDBRANCH   5  12
ENDBRANCH   1   5
BRANCH   3  15
ATOM     15  C   UNL     1       7.219   5.488  15.697  0.00  0.00    +0.000 C 
BRANCH  15  16
ATOM     16  C   UNL     1       6.819   4.869  14.381  0.00  0.00    +0.000 A 
ATOM     17  C   UNL     1       7.657   4.966  13.261  0.00  0.00    +0.000 A 
ATOM     18  C   UNL     1       7.338   4.303  12.073  0.00  0.00    +0.000 A 
ATOM     19  C   UNL     1       6.176   3.536  11.992  0.00  0.00    +0.000 A 
ATOM     20  C   UNL     1       5.328   3.443  13.093  0.00  0.00    +0.000 A 
ATOM     21  C   UNL     1       5.645   4.105  14.281  0.00  0.00    +0.000 A 
ENDBRANCH  15  16
ENDBRANCH   3  15
TORSDOF 4
ENDMDL
MODEL 6
REMARK VINA RESULT:      -7.0      3.332      6.834
REMARK  Name = 
REMARK  5 active torsions:
REMARK  status: ('A' for Active; 'I' for Inactive)
REMARK    1  A    between atoms: C_1  and  N_2
REMARK    2  A    between atoms: N_7  and  C_8
REMARK    3  A    between atoms: C_8  and  C_9
REMARK    4  A    between atoms: N_11  and  C_12
REMARK    5  A    between atoms: C_12  and  C_13
REMARK                            x       y       z     vdW  Elec       q    Type
REMARK                         _______ _______ _______ _____ _____    ______ ____
ROOT
ATOM      1  C   UNL     1       6.801   5.118  16.153  0.00  0.00    +0.000 C 
ATOM      2  O   UNL     1       7.809   4.495  16.484  0.00  0.00    +0.000 OA
ATOM      3  N   UNL     1       6.462   5.358  14.838  0.00  0.00    +0.000 N 
ATOM      4  H   UNL     1       5.635   5.896  14.611  0.00  0.00    +0.000 HD
ENDROOT
BRANCH   1   5
ATOM      5  C   UNL     1       5.830   5.694  17.187  0.00  0.00    +0.000 C 
BRANCH   5  12
ATOM      6  C   UNL     1       4.528   2.224  20.331  0.00  0.00    +0.000 C 
ATOM      7  N   UNL     1       4.214   3.022  19.162  0.00  0.00    +0.000 N 
ATOM      8  C   UNL     1       3.102   2.690  18.413  0.00  0.00    +0.000 A 
ATOM      9  O   UNL     1       2.338   1.759  18.651  0.00  0.00    +0.000 OA
ATOM     10  C   UNL     1       2.842   3.528  17.230  0.00  0.00    +0.000 A 
ATOM     11  C   UNL     1       3.716   4.475  16.895  0.00  0.00    +0.000 A 
ATOM     12  N   UNL     1       4.854   4.703  17.637  0.00  0.00    +0.000 N 
ATOM     13  C   UNL     1       5.117   4.029  18.827  0.00  0.00    +0.000 A 
ATOM     14  O   UNL     1       6.103   4.295  19.518  0.00  0.00    +0.000 OA
ENDBRANCH   5  12
ENDBRANCH   1   5
BRANCH   3  15
ATOM     15  C   UNL     1       7.304   4.914  13.751  0.00  0.00    +0.000 C 
BRANCH  15  16
ATOM     16  C   UNL     1       6.582   3.997  12.795  0.00  0.00    +0.000 A 
ATOM     17  C   UNL     1       7.286   3.035  12.057  0.00  0.00    +0.000 A 
ATOM     18  C   UNL     1       6.607   2.117  11.253  0.00  0.00    +0.000 A 
ATOM     19  C   UNL     1       5.215   2.150  11.178  0.00  0.00    +0.000 A 
ATOM     20  C   UNL     1       4.504   3.109  11.895  0.00  0.00    +0.000 A 
ATOM     21  C   UNL     1       5.182   4.028  12.699  0.00  0.00    +0.000 A 
ENDBRANCH  15  16
ENDBRANCH   3  15
TORSDOF 4
ENDMDL
MODEL 7
REMARK VINA RESULT:      -7.0      2.586      6.736
REMARK  Name = 
REMARK  5 active torsions:
REMARK  status: ('A' for Active; 'I' for Inactive)
REMARK    1  A    between atoms: C_1  and  N_2
REMARK    2  A    between atoms: N_7  and  C_8
REMARK    3  A    between atoms: C_8  and  C_9
REMARK    4  A    between atoms: N_11  and  C_12
REMARK    5  A    between atoms: C_12  and  C_13
REMARK                            x       y       z     vdW  Elec       q    Type
REMARK                         _______ _______ _______ _____ _____    ______ ____
ROOT
ATOM      1  C   UNL     1       4.577   6.025  17.394  0.00  0.00    +0.000 C 
ATOM      2  O   UNL     1       5.400   6.729  17.978  0.00  0.00    +0.000 OA
ATOM      3  N   UNL     1       4.929   5.069  16.464  0.00  0.00    +0.000 N 
ATOM      4  H   UNL     1       4.217   4.528  15.989  0.00  0.00    +0.000 HD
ENDROOT
BRANCH   1   5
ATOM      5  C   UNL     1       3.074   6.160  17.647  0.00  0.00    +0.000 C 
BRANCH   5  12
ATOM      6  C   UNL     1       0.780   2.025  18.772  0.00  0.00    +0.000 C 
ATOM      7  N   UNL     1       1.492   3.210  19.211  0.00  0.00    +0.000 N 
ATOM      8  C   UNL     1       1.531   3.497  20.562  0.00  0.00    +0.000 A 
ATOM      9  O   UNL     1       1.004   2.827  21.445  0.00  0.00    +0.000 OA
ATOM     10  C   UNL     1       2.257   4.720  20.945  0.00  0.00    +0.000 A 
ATOM     11  C   UNL     1       2.744   5.515  19.995  0.00  0.00    +0.000 A 
ATOM     12  N   UNL     1       2.600   5.217  18.659  0.00  0.00    +0.000 N 
ATOM     13  C   UNL     1       2.023   4.029  18.217  0.00  0.00    +0.000 A 
ATOM     14  O   UNL     1       1.967   3.742  17.019  0.00  0.00    +0.000 OA
ENDBRANCH   5  12
ENDBRANCH   1   5
BRANCH   3  15
ATOM     15  C   UNL     1       6.307   4.856  16.088  0.00  0.00    +0.000 C 
BRANCH  15  16
ATOM     16  C   UNL     1       6.475   4.627  14.606  0.00  0.00    +0.000 A 
ATOM     17  C   UNL     1       7.535   5.223  13.907  0.00  0.00    +0.000 A 
ATOM     18  C   UNL     1       7.753   4.927  12.558  0.00  0.00    +0.000 A 
ATOM     19  C   UNL     1       6.914   4.032  11.896  0.00  0.00    +0.000 A 
ATOM     20  C   UNL     1       5.851   3.444  12.575  0.00  0.00    +0.000 A 
ATOM     21  C   UNL     1       5.630   3.739  13.922  0.00  0.00    +0.000 A 
ENDBRANCH  15  16
ENDBRANCH   3  15
TORSDOF 4
ENDMDL
MODEL 8
REMARK VINA RESULT:      -7.0      2.601      6.124
REMARK  Name = 
REMARK  5 active torsions:
REMARK  status: ('A' for Active; 'I' for Inactive)
REMARK    1  A    between atoms: C_1  and  N_2
REMARK    2  A    between atoms: N_7  and  C_8
REMARK    3  A    between atoms: C_8  and  C_9
REMARK    4  A    between atoms: N_11  and  C_12
REMARK    5  A    between atoms: C_12  and  C_13
REMARK                            x       y       z     vdW  Elec       q    Type
REMARK                         _______ _______ _______ _____ _____    ______ ____
ROOT
ATOM      1  C   UNL     1       6.941   5.098  18.048  0.00  0.00    +0.000 C 
ATOM      2  O   UNL     1       7.946   4.399  18.165  0.00  0.00    +0.000 OA
ATOM      3  N   UNL     1       6.615   5.758  16.882  0.00  0.00    +0.000 N 
ATOM      4  H   UNL     1       5.790   6.343  16.837  0.00  0.00    +0.000 HD
ENDROOT
BRANCH   1   5
ATOM      5  C   UNL     1       5.959   5.304  19.204  0.00  0.00    +0.000 C 
BRANCH   5  12
ATOM      6  C   UNL     1       2.590   1.836  18.711  0.00  0.00    +0.000 C 
ATOM      7  N   UNL     1       2.957   3.235  18.609  0.00  0.00    +0.000 N 
ATOM      8  C   UNL     1       2.074   4.108  18.004  0.00  0.00    +0.000 A 
ATOM      9  O   UNL     1       0.982   3.801  17.532  0.00  0.00    +0.000 OA
ATOM     10  C   UNL     1       2.507   5.513  17.918  0.00  0.00    +0.000 A 
ATOM     11  C   UNL     1       3.729   5.846  18.328  0.00  0.00    +0.000 A 
ATOM     12  N   UNL     1       4.597   4.912  18.846  0.00  0.00    +0.000 N 
ATOM     13  C   UNL     1       4.227   3.587  19.061  0.00  0.00    +0.000 A 
ATOM     14  O   UNL     1       4.990   2.779  19.594  0.00  0.00    +0.000 OA
ENDBRANCH   5  12
ENDBRANCH   1   5
BRANCH   3  15
ATOM     15  C   UNL     1       7.468   5.696  15.717  0.00  0.00    +0.000 C 
BRANCH  15  16
ATOM     16  C   UNL     1       6.866   4.879  14.601  0.00  0.00    +0.000 A 
ATOM     17  C   UNL     1       5.576   4.342  14.723  0.00  0.00    +0.000 A 
ATOM     18  C   UNL     1       4.977   3.677  13.650  0.00  0.00    +0.000 A 
ATOM     19  C   UNL     1       5.661   3.542  12.443  0.00  0.00    +0.000 A 
ATOM     20  C   UNL     1       6.948   4.059  12.313  0.00  0.00    +0.000 A 
ATOM     21  C   UNL     1       7.548   4.723  13.384  0.00  0.00    +0.000 A 
ENDBRANCH  15  16
ENDBRANCH   3  15
TORSDOF 4
ENDMDL
MODEL 9
REMARK VINA RESULT:      -7.0      2.605      6.764
REMARK  Name = 
REMARK  5 active torsions:
REMARK  status: ('A' for Active; 'I' for Inactive)
REMARK    1  A    between atoms: C_1  and  N_2
REMARK    2  A    between atoms: N_7  and  C_8
REMARK    3  A    between atoms: C_8  and  C_9
REMARK    4  A    between atoms: N_11  and  C_12
REMARK    5  A    between atoms: C_12  and  C_13
REMARK                            x       y       z     vdW  Elec       q    Type
REMARK                         _______ _______ _______ _____ _____    ______ ____
ROOT
ATOM      1  C   UNL     1       4.826   5.729  17.411  0.00  0.00    +0.000 C 
ATOM      2  O   UNL     1       5.688   6.339  18.042  0.00  0.00    +0.000 OA
ATOM      3  N   UNL     1       5.125   4.781  16.455  0.00  0.00    +0.000 N 
ATOM      4  H   UNL     1       4.384   4.320  15.941  0.00  0.00    +0.000 HD
ENDROOT
BRANCH   1   5
ATOM      5  C   UNL     1       3.333   5.980  17.630  0.00  0.00    +0.000 C 
BRANCH   5  12
ATOM      6  C   UNL     1       0.722   2.045  18.780  0.00  0.00    +0.000 C 
ATOM      7  N   UNL     1       1.508   3.184  19.213  0.00  0.00    +0.000 N 
ATOM      8  C   UNL     1       1.539   3.496  20.558  0.00  0.00    +0.000 A 
ATOM      9  O   UNL     1       0.945   2.883  21.442  0.00  0.00    +0.000 OA
ATOM     10  C   UNL     1       2.343   4.670  20.935  0.00  0.00    +0.000 A 
ATOM     11  C   UNL     1       2.907   5.409  19.981  0.00  0.00    +0.000 A 
ATOM     12  N   UNL     1       2.770   5.094  18.648  0.00  0.00    +0.000 N 
ATOM     13  C   UNL     1       2.118   3.942  18.216  0.00  0.00    +0.000 A 
ATOM     14  O   UNL     1       2.067   3.636  17.022  0.00  0.00    +0.000 OA
ENDBRANCH   5  12
ENDBRANCH   1   5
BRANCH   3  15
ATOM     15  C   UNL     1       6.491   4.467  16.106  0.00  0.00    +0.000 C 
BRANCH  15  16
ATOM     16  C   UNL     1       6.699   4.355  14.616  0.00  0.00    +0.000 A 
ATOM     17  C   UNL     1       5.917   3.480  13.849  0.00  0.00    +0.000 A 
ATOM     18  C   UNL     1       6.035   3.453  12.457  0.00  0.00    +0.000 A 
ATOM     19  C   UNL     1       6.936   4.303  11.817  0.00  0.00    +0.000 A 
ATOM     20  C   UNL     1       7.728   5.168  12.568  0.00  0.00    +0.000 A 
ATOM     21  C   UNL     1       7.612   5.195  13.959  0.00  0.00    +0.000 A 
ENDBRANCH  15  16
ENDBRANCH   3  15
TORSDOF 4
ENDMDL
