MODEL 1
REMARK VINA RESULT:      -9.3      0.000      0.000
REMARK  Name = 
REMARK  10 active torsions:
REMARK  status: ('A' for Active; 'I' for Inactive)
REMARK    1  A    between atoms: C_1  and  C_2
REMARK    2  A    between atoms: C_8  and  C_9
REMARK    3  A    between atoms: C_9  and  O_10
REMARK    4  A    between atoms: O_10  and  C_11
REMARK    5  A    between atoms: C_14  and  S_15
REMARK    6  A    between atoms: S_15  and  N_18
REMARK    7  A    between atoms: C_22  and  C_23
REMARK    8  A    between atoms: C_22  and  O_24
REMARK    9  A    between atoms: C_25  and  C_26
REMARK   10  A    between atoms: N_28  and  O_29
REMARK                            x       y       z     vdW  Elec       q    Type
REMARK                         _______ _______ _______ _____ _____    ______ ____
ROOT
ATOM      1  S   UNL     1       3.656   5.892  18.476  0.00  0.00    +0.000 S 
ATOM      2  O   UNL     1       3.930   5.724  17.060  0.00  0.00    +0.000 OA
ATOM      3  O   UNL     1       4.755   5.976  19.416  0.00  0.00    +0.000 OA
ENDROOT
BRANCH   1   4
ATOM      4  N   UNL     1       2.740   4.528  18.929  0.00  0.00    +0.000 NA
ATOM      5  C   UNL     1       1.910   3.832  17.934  0.00  0.00    +0.000 C 
ATOM      6  C   UNL     1       2.580   2.565  17.416  0.00  0.00    +0.000 C 
ATOM      7  C   UNL     1       3.492   1.785  18.378  0.00  0.00    +0.000 C 
ATOM      8  C   UNL     1       4.137   2.588  19.529  0.00  0.00    +0.000 C 
ATOM      9  C   UNL     1       4.694   1.645  20.604  0.00  0.00    +0.000 C 
ATOM     10  C   UNL     1       3.161   3.649  20.072  0.00  0.00    +0.000 C 
BRANCH  10  11
ATOM     11  C   UNL     1       1.942   2.985  20.764  0.00  0.00    +0.000 C 
ATOM     12  O   UNL     1       0.866   2.734  20.210  0.00  0.00    +0.000 OA
ATOM     13  N   UNL     1       2.121   2.649  22.088  0.00  0.00    +0.000 N 
ATOM     14  H   UNL     1       2.728   3.209  22.681  0.00  0.00    +0.000 HD
BRANCH  13  15
ATOM     15  O   UNL     1       0.940   2.148  22.708  0.00  0.00    +0.000 OA
ATOM     16  H   UNL     1       1.261   1.874  23.598  0.00  0.00    +0.000 HD
ENDBRANCH  13  15
ENDBRANCH  10  11
BRANCH   8  17
ATOM     17  O   UNL     1       5.295   3.262  19.007  0.00  0.00    +0.000 OA
ATOM     18  H   UNL     1       6.084   2.732  19.232  0.00  0.00    +0.000 HD
ENDBRANCH   8  17
ENDBRANCH   1   4
BRANCH   1  22
ATOM     19  C   UNL     1       1.131   9.762  18.879  0.00  0.00    +0.000 A 
ATOM     20  C   UNL     1       1.886   9.523  17.727  0.00  0.00    +0.000 A 
ATOM     21  C   UNL     1       2.663   8.353  17.599  0.00  0.00    +0.000 A 
ATOM     22  C   UNL     1       2.765   7.444  18.653  0.00  0.00    +0.000 A 
ATOM     23  C   UNL     1       2.009   7.681  19.812  0.00  0.00    +0.000 A 
ATOM     24  C   UNL     1       1.203   8.832  19.920  0.00  0.00    +0.000 A 
BRANCH  19  25
ATOM     25  O   UNL     1       0.316  10.851  19.088  0.00  0.00    +0.000 OA
BRANCH  25  26
ATOM     26  C   UNL     1      -1.013  10.563  19.540  0.00  0.00    +0.000 C 
BRANCH  26  34
ATOM     27  C   UNL     1      -3.408  12.401  19.703  0.00  0.00    +0.000 C 
ATOM     28  C   UNL     1      -3.151  11.547  18.491  0.00  0.00    +0.000 A 
ATOM     29  C   UNL     1      -4.031  11.648  17.393  0.00  0.00    +0.000 A 
ATOM     30  C   UNL     1      -3.811  10.915  16.227  0.00  0.00    +0.000 A 
ATOM     31  C   UNL     1      -2.714  10.073  16.161  0.00  0.00    +0.000 A 
ATOM     32  F   UNL     1      -2.481   9.388  15.032  0.00  0.00    +0.000 F 
ATOM     33  C   UNL     1      -1.840   9.937  17.238  0.00  0.00    +0.000 A 
ATOM     34  C   UNL     1      -2.043  10.669  18.423  0.00  0.00    +0.000 A 
ENDBRANCH  26  34
ENDBRANCH  25  26
ENDBRANCH  19  25
ENDBRANCH   1  22
TORSDOF 8
ENDMDL
MODEL 2
REMARK VINA RESULT:      -9.0      0.650      1.101
REMARK  Name = 
REMARK  10 active torsions:
REMARK  status: ('A' for Active; 'I' for Inactive)
REMARK    1  A    between atoms: C_1  and  C_2
REMARK    2  A    between atoms: C_8  and  C_9
REMARK    3  A    between atoms: C_9  and  O_10
REMARK    4  A    between atoms: O_10  and  C_11
REMARK    5  A    between atoms: C_14  and  S_15
REMARK    6  A    between atoms: S_15  and  N_18
REMARK    7  A    between atoms: C_22  and  C_23
REMARK    8  A    between atoms: C_22  and  O_24
REMARK    9  A    between atoms: C_25  and  C_26
REMARK   10  A    between atoms: N_28  and  O_29
REMARK                            x       y       z     vdW  Elec       q    Type
REMARK                         _______ _______ _______ _____ _____    ______ ____
ROOT
ATOM      1  S   UNL     1       3.432   5.906  18.592  0.00  0.00    +0.000 S 
ATOM      2  O   UNL     1       3.642   5.868  17.156  0.00  0.00    +0.000 OA
ATOM      3  O   UNL     1       4.571   5.995  19.484  0.00  0.00    +0.000 OA
ENDROOT
BRANCH   1   4
ATOM      4  N   UNL     1       2.634   4.450  18.976  0.00  0.00    +0.000 NA
ATOM      5  C   UNL     1       1.852   3.744  17.950  0.00  0.00    +0.000 C 
ATOM      6  C   UNL     1       2.617   2.566  17.358  0.00  0.00    +0.000 C 
ATOM      7  C   UNL     1       3.599   1.811  18.269  0.00  0.00    +0.000 C 
ATOM      8  C   UNL     1       4.191   2.600  19.459  0.00  0.00    +0.000 C 
ATOM      9  C   UNL     1       4.834   1.648  20.476  0.00  0.00    +0.000 C 
ATOM     10  C   UNL     1       3.138   3.547  20.065  0.00  0.00    +0.000 C 
BRANCH  10  11
ATOM     11  C   UNL     1       1.985   2.750  20.729  0.00  0.00    +0.000 C 
ATOM     12  O   UNL     1       1.135   2.094  20.114  0.00  0.00    +0.000 OA
ATOM     13  N   UNL     1       1.953   2.784  22.105  0.00  0.00    +0.000 N 
ATOM     14  H   UNL     1       2.278   3.608  22.604  0.00  0.00    +0.000 HD
BRANCH  13  15
ATOM     15  O   UNL     1       0.814   2.133  22.660  0.00  0.00    +0.000 OA
ATOM     16  H   UNL     1       0.702   1.351  22.072  0.00  0.00    +0.000 HD
ENDBRANCH  13  15
ENDBRANCH  10  11
BRANCH   8  17
ATOM     17  O   UNL     1       5.284   3.394  18.966  0.00  0.00    +0.000 OA
ATOM     18  H   UNL     1       5.320   4.218  19.488  0.00  0.00    +0.000 HD
ENDBRANCH   8  17
ENDBRANCH   1   4
BRANCH   1  22
ATOM     19  C   UNL     1       1.128   9.821  19.531  0.00  0.00    +0.000 A 
ATOM     20  C   UNL     1       1.170   8.781  20.463  0.00  0.00    +0.000 A 
ATOM     21  C   UNL     1       1.861   7.584  20.184  0.00  0.00    +0.000 A 
ATOM     22  C   UNL     1       2.450   7.373  18.936  0.00  0.00    +0.000 A 
ATOM     23  C   UNL     1       2.409   8.416  17.996  0.00  0.00    +0.000 A 
ATOM     24  C   UNL     1       1.751   9.626  18.295  0.00  0.00    +0.000 A 
BRANCH  19  25
ATOM     25  O   UNL     1       0.513  11.038  19.718  0.00  0.00    +0.000 OA
BRANCH  25  26
ATOM     26  C   UNL     1       0.004  11.673  18.538  0.00  0.00    +0.000 C 
BRANCH  26  34
ATOM     27  C   UNL     1      -2.334  12.901  20.008  0.00  0.00    +0.000 C 
ATOM     28  C   UNL     1      -2.536  11.882  18.919  0.00  0.00    +0.000 A 
ATOM     29  C   UNL     1      -3.852  11.531  18.555  0.00  0.00    +0.000 A 
ATOM     30  C   UNL     1      -4.094  10.628  17.520  0.00  0.00    +0.000 A 
ATOM     31  C   UNL     1      -3.018  10.067  16.854  0.00  0.00    +0.000 A 
ATOM     32  F   UNL     1      -3.244   9.221  15.838  0.00  0.00    +0.000 F 
ATOM     33  C   UNL     1      -1.706  10.378  17.206  0.00  0.00    +0.000 A 
ATOM     34  C   UNL     1      -1.440  11.289  18.246  0.00  0.00    +0.000 A 
ENDBRANCH  26  34
ENDBRANCH  25  26
ENDBRANCH  19  25
ENDBRANCH   1  22
TORSDOF 8
ENDMDL
MODEL 3
REMARK VINA RESULT:      -8.9      1.408      1.923
REMARK  Name = 
REMARK  10 active torsions:
REMARK  status: ('A' for Active; 'I' for Inactive)
REMARK    1  A    between atoms: C_1  and  C_2
REMARK    2  A    between atoms: C_8  and  C_9
REMARK    3  A    between atoms: C_9  and  O_10
REMARK    4  A    between atoms: O_10  and  C_11
REMARK    5  A    between atoms: C_14  and  S_15
REMARK    6  A    between atoms: S_15  and  N_18
REMARK    7  A    between atoms: C_22  and  C_23
REMARK    8  A    between atoms: C_22  and  O_24
REMARK    9  A    between atoms: C_25  and  C_26
REMARK   10  A    between atoms: N_28  and  O_29
REMARK                            x       y       z     vdW  Elec       q    Type
REMARK                         _______ _______ _______ _____ _____    ______ ____
ROOT
ATOM      1  S   UNL     1       3.515   5.932  18.504  0.00  0.00    +0.000 S 
ATOM      2  O   UNL     1       3.697   5.849  17.065  0.00  0.00    +0.000 OA
ATOM      3  O   UNL     1       4.673   5.979  19.373  0.00  0.00    +0.000 OA
ENDROOT
BRANCH   1   4
ATOM      4  N   UNL     1       2.646   4.532  18.937  0.00  0.00    +0.000 NA
ATOM      5  C   UNL     1       1.846   3.819  17.929  0.00  0.00    +0.000 C 
ATOM      6  C   UNL     1       2.563   2.582  17.400  0.00  0.00    +0.000 C 
ATOM      7  C   UNL     1       3.497   1.824  18.358  0.00  0.00    +0.000 C 
ATOM      8  C   UNL     1       4.109   2.636  19.521  0.00  0.00    +0.000 C 
ATOM      9  C   UNL     1       4.693   1.701  20.588  0.00  0.00    +0.000 C 
ATOM     10  C   UNL     1       3.093   3.655  20.071  0.00  0.00    +0.000 C 
BRANCH  10  11
ATOM     11  C   UNL     1       1.895   2.941  20.750  0.00  0.00    +0.000 C 
ATOM     12  O   UNL     1       0.909   2.494  20.153  0.00  0.00    +0.000 OA
ATOM     13  N   UNL     1       1.986   2.796  22.116  0.00  0.00    +0.000 N 
ATOM     14  H   UNL     1       2.471   3.494  22.674  0.00  0.00    +0.000 HD
BRANCH  13  15
ATOM     15  O   UNL     1       0.815   2.237  22.705  0.00  0.00    +0.000 OA
ATOM     16  H   UNL     1       0.766   2.700  23.573  0.00  0.00    +0.000 HD
ENDBRANCH  13  15
ENDBRANCH  10  11
BRANCH   8  17
ATOM     17  O   UNL     1       5.244   3.357  19.013  0.00  0.00    +0.000 OA
ATOM     18  H   UNL     1       5.084   3.549  18.068  0.00  0.00    +0.000 HD
ENDBRANCH   8  17
ENDBRANCH   1   4
BRANCH   1  22
ATOM     19  C   UNL     1       0.980   9.735  19.297  0.00  0.00    +0.000 A 
ATOM     20  C   UNL     1       1.640   9.563  18.078  0.00  0.00    +0.000 A 
ATOM     21  C   UNL     1       2.419   8.415  17.830  0.00  0.00    +0.000 A 
ATOM     22  C   UNL     1       2.621   7.460  18.827  0.00  0.00    +0.000 A 
ATOM     23  C   UNL     1       1.961   7.629  20.055  0.00  0.00    +0.000 A 
ATOM     24  C   UNL     1       1.150   8.759  20.284  0.00  0.00    +0.000 A 
BRANCH  19  25
ATOM     25  O   UNL     1       0.171  10.799  19.626  0.00  0.00    +0.000 OA
BRANCH  25  26
ATOM     26  C   UNL     1      -0.387  11.527  18.524  0.00  0.00    +0.000 C 
BRANCH  26  34
ATOM     27  C   UNL     1      -2.201   9.990  16.656  0.00  0.00    +0.000 C 
ATOM     28  C   UNL     1      -2.754  10.880  17.737  0.00  0.00    +0.000 A 
ATOM     29  C   UNL     1      -4.153  10.957  17.900  0.00  0.00    +0.000 A 
ATOM     30  C   UNL     1      -4.716  11.730  18.916  0.00  0.00    +0.000 A 
ATOM     31  C   UNL     1      -3.878  12.434  19.765  0.00  0.00    +0.000 A 
ATOM     32  F   UNL     1      -4.412  13.154  20.763  0.00  0.00    +0.000 F 
ATOM     33  C   UNL     1      -2.494  12.393  19.614  0.00  0.00    +0.000 A 
ATOM     34  C   UNL     1      -1.906  11.618  18.597  0.00  0.00    +0.000 A 
ENDBRANCH  26  34
ENDBRANCH  25  26
ENDBRANCH  19  25
ENDBRANCH   1  22
TORSDOF 8
ENDMDL
MODEL 4
REMARK VINA RESULT:      -8.9      5.778      8.060
REMARK  Name = 
REMARK  10 active torsions:
REMARK  status: ('A' for Active; 'I' for Inactive)
REMARK    1  A    between atoms: C_1  and  C_2
REMARK    2  A    between atoms: C_8  and  C_9
REMARK    3  A    between atoms: C_9  and  O_10
REMARK    4  A    between atoms: O_10  and  C_11
REMARK    5  A    between atoms: C_14  and  S_15
REMARK    6  A    between atoms: S_15  and  N_18
REMARK    7  A    between atoms: C_22  and  C_23
REMARK    8  A    between atoms: C_22  and  O_24
REMARK    9  A    between atoms: C_25  and  C_26
REMARK   10  A    between atoms: N_28  and  O_29
REMARK                            x       y       z     vdW  Elec       q    Type
REMARK                         _______ _______ _______ _____ _____    ______ ____
ROOT
ATOM      1  S   UNL     1       4.977   5.097  17.425  0.00  0.00    +0.000 S 
ATOM      2  O   UNL     1       3.863   5.817  16.834  0.00  0.00    +0.000 OA
ATOM      3  O   UNL     1       5.602   4.013  16.694  0.00  0.00    +0.000 OA
ENDROOT
BRANCH   1   4
ATOM      4  N   UNL     1       4.371   4.420  18.866  0.00  0.00    +0.000 NA
ATOM      5  C   UNL     1       3.849   5.291  19.929  0.00  0.00    +0.000 C 
ATOM      6  C   UNL     1       2.326   5.349  19.925  0.00  0.00    +0.000 C 
ATOM      7  C   UNL     1       1.557   4.096  19.473  0.00  0.00    +0.000 C 
ATOM      8  C   UNL     1       2.298   3.130  18.522  0.00  0.00    +0.000 C 
ATOM      9  C   UNL     1       1.583   1.774  18.460  0.00  0.00    +0.000 C 
ATOM     10  C   UNL     1       3.790   3.034  18.893  0.00  0.00    +0.000 C 
BRANCH  10  11
ATOM     11  C   UNL     1       3.981   2.360  20.277  0.00  0.00    +0.000 C 
ATOM     12  O   UNL     1       3.142   2.363  21.185  0.00  0.00    +0.000 OA
ATOM     13  N   UNL     1       5.178   1.704  20.458  0.00  0.00    +0.000 N 
ATOM     14  H   UNL     1       6.021   2.040  19.999  0.00  0.00    +0.000 HD
BRANCH  13  15
ATOM     15  O   UNL     1       5.351   1.200  21.780  0.00  0.00    +0.000 OA
ATOM     16  H   UNL     1       4.578   0.599  21.886  0.00  0.00    +0.000 HD
ENDBRANCH  13  15
ENDBRANCH  10  11
BRANCH   8  17
ATOM     17  O   UNL     1       2.196   3.653  17.187  0.00  0.00    +0.000 OA
ATOM     18  H   UNL     1       3.076   3.593  16.768  0.00  0.00    +0.000 HD
ENDBRANCH   8  17
ENDBRANCH   1   4
BRANCH   1  22
ATOM     19  C   UNL     1       8.242   8.258  18.357  0.00  0.00    +0.000 A 
ATOM     20  C   UNL     1       7.217   8.543  17.451  0.00  0.00    +0.000 A 
ATOM     21  C   UNL     1       6.224   7.586  17.155  0.00  0.00    +0.000 A 
ATOM     22  C   UNL     1       6.288   6.300  17.695  0.00  0.00    +0.000 A 
ATOM     23  C   UNL     1       7.317   6.010  18.605  0.00  0.00    +0.000 A 
ATOM     24  C   UNL     1       8.284   6.983  18.928  0.00  0.00    +0.000 A 
BRANCH  19  25
ATOM     25  O   UNL     1       9.235   9.131  18.739  0.00  0.00    +0.000 OA
BRANCH  25  26
ATOM     26  C   UNL     1       9.150  10.456  18.199  0.00  0.00    +0.000 C 
BRANCH  26  34
ATOM     27  C   UNL     1      10.581  12.979  17.347  0.00  0.00    +0.000 C 
ATOM     28  C   UNL     1      10.245  12.712  18.790  0.00  0.00    +0.000 A 
ATOM     29  C   UNL     1      10.572  13.689  19.753  0.00  0.00    +0.000 A 
ATOM     30  C   UNL     1      10.240  13.513  21.096  0.00  0.00    +0.000 A 
ATOM     31  C   UNL     1       9.588  12.353  21.479  0.00  0.00    +0.000 A 
ATOM     32  F   UNL     1       9.239  12.191  22.764  0.00  0.00    +0.000 F 
ATOM     33  C   UNL     1       9.272  11.361  20.553  0.00  0.00    +0.000 A 
ATOM     34  C   UNL     1       9.596  11.520  19.192  0.00  0.00    +0.000 A 
ENDBRANCH  26  34
ENDBRANCH  25  26
ENDBRANCH  19  25
ENDBRANCH   1  22
TORSDOF 8
ENDMDL
MODEL 5
REMARK VINA RESULT:      -8.8      3.884      9.097
REMARK  Name = 
REMARK  10 active torsions:
REMARK  status: ('A' for Active; 'I' for Inactive)
REMARK    1  A    between atoms: C_1  and  C_2
REMARK    2  A    between atoms: C_8  and  C_9
REMARK    3  A    between atoms: C_9  and  O_10
REMARK    4  A    between atoms: O_10  and  C_11
REMARK    5  A    between atoms: C_14  and  S_15
REMARK    6  A    between atoms: S_15  and  N_18
REMARK    7  A    between atoms: C_22  and  C_23
REMARK    8  A    between atoms: C_22  and  O_24
REMARK    9  A    between atoms: C_25  and  C_26
REMARK   10  A    between atoms: N_28  and  O_29
REMARK                            x       y       z     vdW  Elec       q    Type
REMARK                         _______ _______ _______ _____ _____    ______ ____
ROOT
ATOM      1  S   UNL     1       0.891   9.018  21.234  0.00  0.00    +0.000 S 
ATOM      2  O   UNL     1      -0.458   8.683  21.657  0.00  0.00    +0.000 OA
ATOM      3  O   UNL     1       1.876   9.414  22.219  0.00  0.00    +0.000 OA
ENDROOT
BRANCH   1   4
ATOM      4  N   UNL     1       0.721  10.335  20.167  0.00  0.00    +0.000 NA
ATOM      5  C   UNL     1      -0.343  10.331  19.152  0.00  0.00    +0.000 C 
ATOM      6  C   UNL     1      -1.536  11.182  19.569  0.00  0.00    +0.000 C 
ATOM      7  C   UNL     1      -1.269  12.424  20.437  0.00  0.00    +0.000 C 
ATOM      8  C   UNL     1       0.010  12.405  21.303  0.00  0.00    +0.000 C 
ATOM      9  C   UNL     1       0.345  13.815  21.808  0.00  0.00    +0.000 C 
ATOM     10  C   UNL     1       1.168  11.716  20.555  0.00  0.00    +0.000 C 
BRANCH  10  11
ATOM     11  C   UNL     1       1.607  12.545  19.320  0.00  0.00    +0.000 C 
ATOM     12  O   UNL     1       1.518  13.775  19.227  0.00  0.00    +0.000 OA
ATOM     13  N   UNL     1       2.148  11.822  18.281  0.00  0.00    +0.000 N 
ATOM     14  H   UNL     1       1.833  10.872  18.099  0.00  0.00    +0.000 HD
BRANCH  13  15
ATOM     15  O   UNL     1       2.430  12.612  17.129  0.00  0.00    +0.000 OA
ATOM     16  H   UNL     1       2.607  13.501  17.513  0.00  0.00    +0.000 HD
ENDBRANCH  13  15
ENDBRANCH  10  11
BRANCH   8  17
ATOM     17  O   UNL     1      -0.270  11.652  22.495  0.00  0.00    +0.000 OA
ATOM     18  H   UNL     1      -1.174  11.290  22.422  0.00  0.00    +0.000 HD
ENDBRANCH   8  17
ENDBRANCH   1   4
BRANCH   1  22
ATOM     19  C   UNL     1       2.428   5.221  19.058  0.00  0.00    +0.000 A 
ATOM     20  C   UNL     1       1.847   5.126  20.325  0.00  0.00    +0.000 A 
ATOM     21  C   UNL     1       1.383   6.276  20.998  0.00  0.00    +0.000 A 
ATOM     22  C   UNL     1       1.571   7.547  20.453  0.00  0.00    +0.000 A 
ATOM     23  C   UNL     1       2.156   7.646  19.180  0.00  0.00    +0.000 A 
ATOM     24  C   UNL     1       2.581   6.490  18.494  0.00  0.00    +0.000 A 
BRANCH  19  25
ATOM     25  O   UNL     1       2.880   4.160  18.305  0.00  0.00    +0.000 OA
BRANCH  25  26
ATOM     26  C   UNL     1       4.212   3.712  18.587  0.00  0.00    +0.000 C 
BRANCH  26  34
ATOM     27  C   UNL     1       6.537   5.514  19.285  0.00  0.00    +0.000 C 
ATOM     28  C   UNL     1       6.321   5.015  17.882  0.00  0.00    +0.000 A 
ATOM     29  C   UNL     1       7.255   5.366  16.886  0.00  0.00    +0.000 A 
ATOM     30  C   UNL     1       7.127   4.892  15.581  0.00  0.00    +0.000 A 
ATOM     31  C   UNL     1       6.057   4.070  15.268  0.00  0.00    +0.000 A 
ATOM     32  F   UNL     1       5.945   3.586  14.022  0.00  0.00    +0.000 F 
ATOM     33  C   UNL     1       5.107   3.723  16.226  0.00  0.00    +0.000 A 
ATOM     34  C   UNL     1       5.219   4.190  17.549  0.00  0.00    +0.000 A 
ENDBRANCH  26  34
ENDBRANCH  25  26
ENDBRANCH  19  25
ENDBRANCH   1  22
TORSDOF 8
ENDMDL
MODEL 6
REMARK VINA RESULT:      -8.7      2.527      3.136
REMARK  Name = 
REMARK  10 active torsions:
REMARK  status: ('A' for Active; 'I' for Inactive)
REMARK    1  A    between atoms: C_1  and  C_2
REMARK    2  A    between atoms: C_8  and  C_9
REMARK    3  A    between atoms: C_9  and  O_10
REMARK    4  A    between atoms: O_10  and  C_11
REMARK    5  A    between atoms: C_14  and  S_15
REMARK    6  A    between atoms: S_15  and  N_18
REMARK    7  A    between atoms: C_22  and  C_23
REMARK    8  A    between atoms: C_22  and  O_24
REMARK    9  A    between atoms: C_25  and  C_26
REMARK   10  A    between atoms: N_28  and  O_29
REMARK                            x       y       z     vdW  Elec       q    Type
REMARK                         _______ _______ _______ _____ _____    ______ ____
ROOT
ATOM      1  S   UNL     1       3.463   5.869  18.588  0.00  0.00    +0.000 S 
ATOM      2  O   UNL     1       3.694   5.801  17.156  0.00  0.00    +0.000 OA
ATOM      3  O   UNL     1       4.589   5.984  19.494  0.00  0.00    +0.000 OA
ENDROOT
BRANCH   1   4
ATOM      4  N   UNL     1       2.667   4.418  18.993  0.00  0.00    +0.000 NA
ATOM      5  C   UNL     1       1.872   3.705  17.982  0.00  0.00    +0.000 C 
ATOM      6  C   UNL     1       2.627   2.521  17.390  0.00  0.00    +0.000 C 
ATOM      7  C   UNL     1       3.619   1.771  18.296  0.00  0.00    +0.000 C 
ATOM      8  C   UNL     1       4.227   2.569  19.471  0.00  0.00    +0.000 C 
ATOM      9  C   UNL     1       4.881   1.624  20.488  0.00  0.00    +0.000 C 
ATOM     10  C   UNL     1       3.184   3.523  20.084  0.00  0.00    +0.000 C 
BRANCH  10  11
ATOM     11  C   UNL     1       2.037   2.732  20.767  0.00  0.00    +0.000 C 
ATOM     12  O   UNL     1       1.180   2.072  20.169  0.00  0.00    +0.000 OA
ATOM     13  N   UNL     1       2.020   2.780  22.143  0.00  0.00    +0.000 N 
ATOM     14  H   UNL     1       2.352   3.609  22.631  0.00  0.00    +0.000 HD
BRANCH  13  15
ATOM     15  O   UNL     1       0.887   2.136  22.718  0.00  0.00    +0.000 OA
ATOM     16  H   UNL     1       0.138   2.695  22.406  0.00  0.00    +0.000 HD
ENDBRANCH  13  15
ENDBRANCH  10  11
BRANCH   8  17
ATOM     17  O   UNL     1       5.315   3.357  18.959  0.00  0.00    +0.000 OA
ATOM     18  H   UNL     1       5.631   2.940  18.135  0.00  0.00    +0.000 HD
ENDBRANCH   8  17
ENDBRANCH   1   4
BRANCH   1  22
ATOM     19  C   UNL     1       1.126   9.795  19.390  0.00  0.00    +0.000 A 
ATOM     20  C   UNL     1       1.217   8.809  20.376  0.00  0.00    +0.000 A 
ATOM     21  C   UNL     1       1.919   7.609  20.139  0.00  0.00    +0.000 A 
ATOM     22  C   UNL     1       2.468   7.338  18.885  0.00  0.00    +0.000 A 
ATOM     23  C   UNL     1       2.379   8.327  17.892  0.00  0.00    +0.000 A 
ATOM     24  C   UNL     1       1.711   9.542  18.146  0.00  0.00    +0.000 A 
BRANCH  19  25
ATOM     25  O   UNL     1       0.497  11.011  19.532  0.00  0.00    +0.000 OA
BRANCH  25  26
ATOM     26  C   UNL     1       0.676  11.668  20.793  0.00  0.00    +0.000 C 
BRANCH  26  34
ATOM     27  C   UNL     1      -0.526  10.193  23.142  0.00  0.00    +0.000 C 
ATOM     28  C   UNL     1      -1.196  11.401  22.544  0.00  0.00    +0.000 A 
ATOM     29  C   UNL     1      -2.389  11.873  23.128  0.00  0.00    +0.000 A 
ATOM     30  C   UNL     1      -3.025  13.015  22.642  0.00  0.00    +0.000 A 
ATOM     31  C   UNL     1      -2.470  13.683  21.563  0.00  0.00    +0.000 A 
ATOM     32  F   UNL     1      -3.059  14.799  21.110  0.00  0.00    +0.000 F 
ATOM     33  C   UNL     1      -1.303  13.228  20.952  0.00  0.00    +0.000 A 
ATOM     34  C   UNL     1      -0.646  12.078  21.428  0.00  0.00    +0.000 A 
ENDBRANCH  26  34
ENDBRANCH  25  26
ENDBRANCH  19  25
ENDBRANCH   1  22
TORSDOF 8
ENDMDL
MODEL 7
REMARK VINA RESULT:      -8.7      2.695      3.292
REMARK  Name = 
REMARK  10 active torsions:
REMARK  status: ('A' for Active; 'I' for Inactive)
REMARK    1  A    between atoms: C_1  and  C_2
REMARK    2  A    between atoms: C_8  and  C_9
REMARK    3  A    between atoms: C_9  and  O_10
REMARK    4  A    between atoms: O_10  and  C_11
REMARK    5  A    between atoms: C_14  and  S_15
REMARK    6  A    between atoms: S_15  and  N_18
REMARK    7  A    between atoms: C_22  and  C_23
REMARK    8  A    between atoms: C_22  and  O_24
REMARK    9  A    between atoms: C_25  and  C_26
REMARK   10  A    between atoms: N_28  and  O_29
REMARK                            x       y       z     vdW  Elec       q    Type
REMARK                         _______ _______ _______ _____ _____    ______ ____
ROOT
ATOM      1  S   UNL     1       3.646   5.825  18.504  0.00  0.00    +0.000 S 
ATOM      2  O   UNL     1       3.889   5.708  17.077  0.00  0.00    +0.000 OA
ATOM      3  O   UNL     1       4.766   5.887  19.421  0.00  0.00    +0.000 OA
ENDROOT
BRANCH   1   4
ATOM      4  N   UNL     1       2.751   4.440  18.931  0.00  0.00    +0.000 NA
ATOM      5  C   UNL     1       1.937   3.747  17.921  0.00  0.00    +0.000 C 
ATOM      6  C   UNL     1       2.629   2.500  17.384  0.00  0.00    +0.000 C 
ATOM      7  C   UNL     1       3.550   1.719  18.337  0.00  0.00    +0.000 C 
ATOM      8  C   UNL     1       4.178   2.513  19.504  0.00  0.00    +0.000 C 
ATOM      9  C   UNL     1       4.746   1.561  20.565  0.00  0.00    +0.000 C 
ATOM     10  C   UNL     1       3.183   3.549  20.060  0.00  0.00    +0.000 C 
BRANCH  10  11
ATOM     11  C   UNL     1       1.972   2.853  20.737  0.00  0.00    +0.000 C 
ATOM     12  O   UNL     1       1.046   2.301  20.132  0.00  0.00    +0.000 OA
ATOM     13  N   UNL     1       1.978   2.857  22.114  0.00  0.00    +0.000 N 
ATOM     14  H   UNL     1       2.397   3.632  22.622  0.00  0.00    +0.000 HD
BRANCH  13  15
ATOM     15  O   UNL     1       0.794   2.309  22.686  0.00  0.00    +0.000 OA
ATOM     16  H   UNL     1       0.425   1.772  21.947  0.00  0.00    +0.000 HD
ENDBRANCH  13  15
ENDBRANCH  10  11
BRANCH   8  17
ATOM     17  O   UNL     1       5.326   3.215  18.997  0.00  0.00    +0.000 OA
ATOM     18  H   UNL     1       5.646   3.819  19.695  0.00  0.00    +0.000 HD
ENDBRANCH   8  17
ENDBRANCH   1   4
BRANCH   1  22
ATOM     19  C   UNL     1       1.101   9.656  19.106  0.00  0.00    +0.000 A 
ATOM     20  C   UNL     1       1.787   9.441  17.908  0.00  0.00    +0.000 A 
ATOM     21  C   UNL     1       2.570   8.283  17.719  0.00  0.00    +0.000 A 
ATOM     22  C   UNL     1       2.748   7.364  18.754  0.00  0.00    +0.000 A 
ATOM     23  C   UNL     1       2.060   7.577  19.959  0.00  0.00    +0.000 A 
ATOM     24  C   UNL     1       1.247   8.716  20.130  0.00  0.00    +0.000 A 
BRANCH  19  25
ATOM     25  O   UNL     1       0.286  10.732  19.379  0.00  0.00    +0.000 OA
BRANCH  25  26
ATOM     26  C   UNL     1       0.926  11.871  19.968  0.00  0.00    +0.000 C 
BRANCH  26  34
ATOM     27  C   UNL     1       1.070  14.764  20.832  0.00  0.00    +0.000 C 
ATOM     28  C   UNL     1       0.218  13.764  21.566  0.00  0.00    +0.000 A 
ATOM     29  C   UNL     1      -0.561  14.208  22.655  0.00  0.00    +0.000 A 
ATOM     30  C   UNL     1      -1.403  13.332  23.340  0.00  0.00    +0.000 A 
ATOM     31  C   UNL     1      -1.460  12.007  22.940  0.00  0.00    +0.000 A 
ATOM     32  F   UNL     1      -2.291  11.167  23.575  0.00  0.00    +0.000 F 
ATOM     33  C   UNL     1      -0.687  11.536  21.882  0.00  0.00    +0.000 A 
ATOM     34  C   UNL     1       0.168  12.404  21.177  0.00  0.00    +0.000 A 
ENDBRANCH  26  34
ENDBRANCH  25  26
ENDBRANCH  19  25
ENDBRANCH   1  22
TORSDOF 8
ENDMDL
MODEL 8
REMARK VINA RESULT:      -8.7      4.143      9.111
REMARK  Name = 
REMARK  10 active torsions:
REMARK  status: ('A' for Active; 'I' for Inactive)
REMARK    1  A    between atoms: C_1  and  C_2
REMARK    2  A    between atoms: C_8  and  C_9
REMARK    3  A    between atoms: C_9  and  O_10
REMARK    4  A    between atoms: O_10  and  C_11
REMARK    5  A    between atoms: C_14  and  S_15
REMARK    6  A    between atoms: S_15  and  N_18
REMARK    7  A    between atoms: C_22  and  C_23
REMARK    8  A    between atoms: C_22  and  O_24
REMARK    9  A    between atoms: C_25  and  C_26
REMARK   10  A    between atoms: N_28  and  O_29
REMARK                            x       y       z     vdW  Elec       q    Type
REMARK                         _______ _______ _______ _____ _____    ______ ____
ROOT
ATOM      1  S   UNL     1       0.779   9.116  21.181  0.00  0.00    +0.000 S 
ATOM      2  O   UNL     1      -0.557   8.731  21.600  0.00  0.00    +0.000 OA
ATOM      3  O   UNL     1       1.761   9.501  22.174  0.00  0.00    +0.000 OA
ENDROOT
BRANCH   1   4
ATOM      4  N   UNL     1       0.569  10.466  20.163  0.00  0.00    +0.000 NA
ATOM      5  C   UNL     1      -0.564  10.516  19.227  0.00  0.00    +0.000 C 
ATOM      6  C   UNL     1      -1.703  11.383  19.750  0.00  0.00    +0.000 C 
ATOM      7  C   UNL     1      -1.344  12.593  20.629  0.00  0.00    +0.000 C 
ATOM      8  C   UNL     1      -0.008  12.520  21.401  0.00  0.00    +0.000 C 
ATOM      9  C   UNL     1       0.398  13.906  21.917  0.00  0.00    +0.000 C 
ATOM     10  C   UNL     1       1.076  11.825  20.555  0.00  0.00    +0.000 C 
BRANCH  10  11
ATOM     11  C   UNL     1       1.448  12.678  19.313  0.00  0.00    +0.000 C 
ATOM     12  O   UNL     1       1.057  13.832  19.107  0.00  0.00    +0.000 OA
ATOM     13  N   UNL     1       2.294  12.074  18.410  0.00  0.00    +0.000 N 
ATOM     14  H   UNL     1       2.264  11.067  18.274  0.00  0.00    +0.000 HD
BRANCH  13  15
ATOM     15  O   UNL     1       2.514  12.851  17.236  0.00  0.00    +0.000 OA
ATOM     16  H   UNL     1       2.153  12.275  16.523  0.00  0.00    +0.000 HD
ENDBRANCH  13  15
ENDBRANCH  10  11
BRANCH   8  17
ATOM     17  O   UNL     1      -0.222  11.741  22.590  0.00  0.00    +0.000 OA
ATOM     18  H   UNL     1      -0.784  12.261  23.197  0.00  0.00    +0.000 HD
ENDBRANCH   8  17
ENDBRANCH   1   4
BRANCH   1  22
ATOM     19  C   UNL     1       2.832   5.471  19.177  0.00  0.00    +0.000 A 
ATOM     20  C   UNL     1       2.792   6.708  18.528  0.00  0.00    +0.000 A 
ATOM     21  C   UNL     1       2.164   7.820  19.126  0.00  0.00    +0.000 A 
ATOM     22  C   UNL     1       1.491   7.692  20.342  0.00  0.00    +0.000 A 
ATOM     23  C   UNL     1       1.528   6.450  20.996  0.00  0.00    +0.000 A 
ATOM     24  C   UNL     1       2.192   5.352  20.414  0.00  0.00    +0.000 A 
BRANCH  19  25
ATOM     25  O   UNL     1       3.448   4.337  18.697  0.00  0.00    +0.000 OA
BRANCH  25  26
ATOM     26  C   UNL     1       4.214   4.498  17.496  0.00  0.00    +0.000 C 
BRANCH  26  34
ATOM     27  C   UNL     1       5.195   6.662  15.626  0.00  0.00    +0.000 C 
ATOM     28  C   UNL     1       5.958   6.288  16.868  0.00  0.00    +0.000 A 
ATOM     29  C   UNL     1       7.135   7.000  17.179  0.00  0.00    +0.000 A 
ATOM     30  C   UNL     1       7.854   6.725  18.342  0.00  0.00    +0.000 A 
ATOM     31  C   UNL     1       7.401   5.730  19.192  0.00  0.00    +0.000 A 
ATOM     32  F   UNL     1       8.070   5.482  20.327  0.00  0.00    +0.000 F 
ATOM     33  C   UNL     1       6.253   4.996  18.899  0.00  0.00    +0.000 A 
ATOM     34  C   UNL     1       5.512   5.258  17.732  0.00  0.00    +0.000 A 
ENDBRANCH  26  34
ENDBRANCH  25  26
ENDBRANCH  19  25
ENDBRANCH   1  22
TORSDOF 8
ENDMDL
MODEL 9
REMARK VINA RESULT:      -8.6      2.623      4.014
REMARK  Name = 
REMARK  10 active torsions:
REMARK  status: ('A' for Active; 'I' for Inactive)
REMARK    1  A    between atoms: C_1  and  C_2
REMARK    2  A    between atoms: C_8  and  C_9
REMARK    3  A    between atoms: C_9  and  O_10
REMARK    4  A    between atoms: O_10  and  C_11
REMARK    5  A    between atoms: C_14  and  S_15
REMARK    6  A    between atoms: S_15  and  N_18
REMARK    7  A    between atoms: C_22  and  C_23
REMARK    8  A    between atoms: C_22  and  O_24
REMARK    9  A    between atoms: C_25  and  C_26
REMARK   10  A    between atoms: N_28  and  O_29
REMARK                            x       y       z     vdW  Elec       q    Type
REMARK                         _______ _______ _______ _____ _____    ______ ____
ROOT
ATOM      1  S   UNL     1       3.470   5.246  18.320  0.00  0.00    +0.000 S 
ATOM      2  O   UNL     1       4.088   4.716  19.523  0.00  0.00    +0.000 OA
ATOM      3  O   UNL     1       2.430   4.490  17.653  0.00  0.00    +0.000 OA
ENDROOT
BRANCH   1   4
ATOM      4  N   UNL     1       4.738   5.419  17.194  0.00  0.00    +0.000 NA
ATOM      5  C   UNL     1       4.948   6.704  16.511  0.00  0.00    +0.000 C 
ATOM      6  C   UNL     1       6.086   7.504  17.133  0.00  0.00    +0.000 C 
ATOM      7  C   UNL     1       7.263   6.728  17.748  0.00  0.00    +0.000 C 
ATOM      8  C   UNL     1       6.970   5.290  18.233  0.00  0.00    +0.000 C 
ATOM      9  C   UNL     1       8.275   4.518  18.463  0.00  0.00    +0.000 C 
ATOM     10  C   UNL     1       5.983   4.583  17.286  0.00  0.00    +0.000 C 
BRANCH  10  11
ATOM     11  C   UNL     1       6.619   4.347  15.890  0.00  0.00    +0.000 C 
ATOM     12  O   UNL     1       7.677   4.854  15.502  0.00  0.00    +0.000 OA
ATOM     13  N   UNL     1       5.933   3.486  15.063  0.00  0.00    +0.000 N 
ATOM     14  H   UNL     1       4.919   3.426  15.114  0.00  0.00    +0.000 HD
BRANCH  13  15
ATOM     15  O   UNL     1       6.494   3.391  13.757  0.00  0.00    +0.000 OA
ATOM     16  H   UNL     1       7.457   3.301  13.940  0.00  0.00    +0.000 HD
ENDBRANCH  13  15
ENDBRANCH  10  11
BRANCH   8  17
ATOM     17  O   UNL     1       6.366   5.374  19.536  0.00  0.00    +0.000 OA
ATOM     18  H   UNL     1       6.834   6.064  20.044  0.00  0.00    +0.000 HD
ENDBRANCH   8  17
ENDBRANCH   1   4
BRANCH   1  22
ATOM     19  C   UNL     1       1.244   9.147  19.479  0.00  0.00    +0.000 A 
ATOM     20  C   UNL     1       1.741   8.971  18.185  0.00  0.00    +0.000 A 
ATOM     21  C   UNL     1       2.426   7.792  17.825  0.00  0.00    +0.000 A 
ATOM     22  C   UNL     1       2.700   6.807  18.775  0.00  0.00    +0.000 A 
ATOM     23  C   UNL     1       2.203   6.980  20.077  0.00  0.00    +0.000 A 
ATOM     24  C   UNL     1       1.484   8.143  20.422  0.00  0.00    +0.000 A 
BRANCH  19  25
ATOM     25  O   UNL     1       0.535  10.241  19.921  0.00  0.00    +0.000 OA
BRANCH  25  26
ATOM     26  C   UNL     1       0.156  11.191  18.916  0.00  0.00    +0.000 C 
BRANCH  26  34
ATOM     27  C   UNL     1      -2.118  12.749  20.157  0.00  0.00    +0.000 C 
ATOM     28  C   UNL     1      -2.352  11.770  19.038  0.00  0.00    +0.000 A 
ATOM     29  C   UNL     1      -3.661  11.617  18.535  0.00  0.00    +0.000 A 
ATOM     30  C   UNL     1      -3.924  10.758  17.468  0.00  0.00    +0.000 A 
ATOM     31  C   UNL     1      -2.878  10.044  16.908  0.00  0.00    +0.000 A 
ATOM     32  F   UNL     1      -3.119   9.240  15.862  0.00  0.00    +0.000 F 
ATOM     33  C   UNL     1      -1.578  10.160  17.398  0.00  0.00    +0.000 A 
ATOM     34  C   UNL     1      -1.291  11.022  18.473  0.00  0.00    +0.000 A 
ENDBRANCH  26  34
ENDBRANCH  25  26
ENDBRANCH  19  25
ENDBRANCH   1  22
TORSDOF 8
ENDMDL
