MODEL 1
REMARK VINA RESULT:      -5.7      0.000      0.000
REMARK  Name = 
REMARK  8 active torsions:
REMARK  status: ('A' for Active; 'I' for Inactive)
REMARK    1  A    between atoms: C_3  and  C_4
REMARK    2  A    between atoms: C_4  and  C_5
REMARK    3  A    between atoms: C_4  and  C_6
REMARK    4  A    between atoms: C_7  and  C_8
REMARK    5  A    between atoms: N_12  and  C_13
REMARK    6  A    between atoms: C_14  and  C_15
REMARK    7  A    between atoms: C_17  and  C_18
REMARK    8  A    between atoms: C_20  and  C_21
REMARK                            x       y       z     vdW  Elec       q    Type
REMARK                         _______ _______ _______ _____ _____    ______ ____
ROOT
ATOM      1  C   UNL     1       3.823   3.087  16.647  0.00  0.00    +0.000 C 
ATOM      2  C   UNL     1       4.648   3.948  17.254  0.00  0.00    +0.000 C 
ATOM      3  C   UNL     1       5.519   4.934  16.618  0.00  0.00    +0.000 C 
ATOM      4  C   UNL     1       6.248   5.549  17.570  0.00  0.00    +0.000 C 
ATOM      5  C   UNL     1       5.799   5.042  18.889  0.00  0.00    +0.000 C 
ATOM      6  O   UNL     1       6.208   5.452  19.962  0.00  0.00    +0.000 OA
ATOM      7  N   UNL     1       4.811   4.090  18.625  0.00  0.00    +0.000 N 
ENDROOT
BRANCH   7   8
ATOM      8  C   UNL     1       3.873   3.715  19.632  0.00  0.00    +0.000 A 
ATOM      9  C   UNL     1       2.799   4.586  19.954  0.00  0.00    +0.000 A 
ATOM     10  C   UNL     1       2.596   5.949  19.348  0.00  0.00    +0.000 C 
ATOM     11  C   UNL     1       1.855   4.193  20.921  0.00  0.00    +0.000 A 
ATOM     12  C   UNL     1       1.936   2.956  21.555  0.00  0.00    +0.000 A 
ATOM     13  C   UNL     1       0.908   2.545  22.569  0.00  0.00    +0.000 C 
ATOM     14  C   UNL     1       3.002   2.109  21.244  0.00  0.00    +0.000 A 
ATOM     15  C   UNL     1       3.989   2.479  20.308  0.00  0.00    +0.000 A 
ATOM     16  C   UNL     1       5.180   1.574  20.142  0.00  0.00    +0.000 C 
ENDBRANCH   7   8
BRANCH   3  17
ATOM     17  C   UNL     1       5.443   5.242  15.128  0.00  0.00    +0.000 C 
ATOM     18  C   UNL     1       5.098   6.724  14.912  0.00  0.00    +0.000 C 
ATOM     19  C   UNL     1       6.681   4.885  14.298  0.00  0.00    +0.000 C 
ENDBRANCH   3  17
BRANCH   4  20
ATOM     20  C   UNL     1       7.143   6.627  17.457  0.00  0.00    +0.000 C 
ATOM     21  N   UNL     1       7.855   7.540  17.349  0.00  0.00    +0.000 NA
ENDBRANCH   4  20
TORSDOF 3
ENDMDL
MODEL 2
REMARK VINA RESULT:      -5.6      0.145      1.912
REMARK  Name = 
REMARK  8 active torsions:
REMARK  status: ('A' for Active; 'I' for Inactive)
REMARK    1  A    between atoms: C_3  and  C_4
REMARK    2  A    between atoms: C_4  and  C_5
REMARK    3  A    between atoms: C_4  and  C_6
REMARK    4  A    between atoms: C_7  and  C_8
REMARK    5  A    between atoms: N_12  and  C_13
REMARK    6  A    between atoms: C_14  and  C_15
REMARK    7  A    between atoms: C_17  and  C_18
REMARK    8  A    between atoms: C_20  and  C_21
REMARK                            x       y       z     vdW  Elec       q    Type
REMARK                         _______ _______ _______ _____ _____    ______ ____
ROOT
ATOM      1  C   UNL     1       3.857   3.079  16.528  0.00  0.00    +0.000 C 
ATOM      2  C   UNL     1       4.653   3.945  17.166  0.00  0.00    +0.000 C 
ATOM      3  C   UNL     1       5.539   4.939  16.563  0.00  0.00    +0.000 C 
ATOM      4  C   UNL     1       6.228   5.557  17.542  0.00  0.00    +0.000 C 
ATOM      5  C   UNL     1       5.736   5.044  18.843  0.00  0.00    +0.000 C 
ATOM      6  O   UNL     1       6.104   5.455  19.930  0.00  0.00    +0.000 OA
ATOM      7  N   UNL     1       4.766   4.085  18.543  0.00  0.00    +0.000 N 
ENDROOT
BRANCH   7   8
ATOM      8  C   UNL     1       3.795   3.702  19.515  0.00  0.00    +0.000 A 
ATOM      9  C   UNL     1       3.943   2.476  20.215  0.00  0.00    +0.000 A 
ATOM     10  C   UNL     1       5.042   1.478  19.963  0.00  0.00    +0.000 C 
ATOM     11  C   UNL     1       3.003   2.123  21.200  0.00  0.00    +0.000 A 
ATOM     12  C   UNL     1       1.939   2.961  21.522  0.00  0.00    +0.000 A 
ATOM     13  C   UNL     1       0.956   2.577  22.590  0.00  0.00    +0.000 C 
ATOM     14  C   UNL     1       1.790   4.160  20.821  0.00  0.00    +0.000 A 
ATOM     15  C   UNL     1       2.689   4.535  19.803  0.00  0.00    +0.000 A 
ATOM     16  C   UNL     1       2.373   5.767  18.999  0.00  0.00    +0.000 C 
ENDBRANCH   7   8
BRANCH   3  17
ATOM     17  C   UNL     1       5.513   5.249  15.072  0.00  0.00    +0.000 C 
ATOM     18  C   UNL     1       5.119   6.717  14.845  0.00  0.00    +0.000 C 
ATOM     19  C   UNL     1       6.799   4.945  14.295  0.00  0.00    +0.000 C 
ENDBRANCH   3  17
BRANCH   4  20
ATOM     20  C   UNL     1       7.119   6.642  17.463  0.00  0.00    +0.000 C 
ATOM     21  N   UNL     1       7.828   7.560  17.380  0.00  0.00    +0.000 NA
ENDBRANCH   4  20
TORSDOF 3
ENDMDL
MODEL 3
REMARK VINA RESULT:      -5.6      1.719      6.113
REMARK  Name = 
REMARK  8 active torsions:
REMARK  status: ('A' for Active; 'I' for Inactive)
REMARK    1  A    between atoms: C_3  and  C_4
REMARK    2  A    between atoms: C_4  and  C_5
REMARK    3  A    between atoms: C_4  and  C_6
REMARK    4  A    between atoms: C_7  and  C_8
REMARK    5  A    between atoms: N_12  and  C_13
REMARK    6  A    between atoms: C_14  and  C_15
REMARK    7  A    between atoms: C_17  and  C_18
REMARK    8  A    between atoms: C_20  and  C_21
REMARK                            x       y       z     vdW  Elec       q    Type
REMARK                         _______ _______ _______ _____ _____    ______ ____
ROOT
ATOM      1  C   UNL     1       3.402   7.112  17.939  0.00  0.00    +0.000 C 
ATOM      2  C   UNL     1       3.663   5.975  18.593  0.00  0.00    +0.000 C 
ATOM      3  C   UNL     1       2.875   5.373  19.668  0.00  0.00    +0.000 C 
ATOM      4  C   UNL     1       3.517   4.275  20.114  0.00  0.00    +0.000 C 
ATOM      5  C   UNL     1       4.715   4.069  19.268  0.00  0.00    +0.000 C 
ATOM      6  O   UNL     1       5.472   3.118  19.363  0.00  0.00    +0.000 OA
ATOM      7  N   UNL     1       4.733   5.123  18.351  0.00  0.00    +0.000 N 
ENDROOT
BRANCH   7   8
ATOM      8  C   UNL     1       5.475   5.021  17.137  0.00  0.00    +0.000 A 
ATOM      9  C   UNL     1       4.968   4.244  16.063  0.00  0.00    +0.000 A 
ATOM     10  C   UNL     1       3.698   3.436  16.121  0.00  0.00    +0.000 C 
ATOM     11  C   UNL     1       5.686   4.181  14.855  0.00  0.00    +0.000 A 
ATOM     12  C   UNL     1       6.876   4.881  14.679  0.00  0.00    +0.000 A 
ATOM     13  C   UNL     1       7.619   4.817  13.377  0.00  0.00    +0.000 C 
ATOM     14  C   UNL     1       7.378   5.633  15.744  0.00  0.00    +0.000 A 
ATOM     15  C   UNL     1       6.708   5.696  16.983  0.00  0.00    +0.000 A 
ATOM     16  C   UNL     1       7.391   6.406  18.120  0.00  0.00    +0.000 C 
ENDBRANCH   7   8
BRANCH   3  17
ATOM     17  C   UNL     1       1.498   5.896  20.053  0.00  0.00    +0.000 C 
ATOM     18  C   UNL     1       0.579   4.728  20.440  0.00  0.00    +0.000 C 
ATOM     19  C   UNL     1       1.460   6.956  21.159  0.00  0.00    +0.000 C 
ENDBRANCH   3  17
BRANCH   4  20
ATOM     20  C   UNL     1       3.105   3.321  21.061  0.00  0.00    +0.000 C 
ATOM     21  N   UNL     1       2.797   2.538  21.864  0.00  0.00    +0.000 NA
ENDBRANCH   4  20
TORSDOF 3
ENDMDL
MODEL 4
REMARK VINA RESULT:      -5.3      8.978     11.697
REMARK  Name = 
REMARK  8 active torsions:
REMARK  status: ('A' for Active; 'I' for Inactive)
REMARK    1  A    between atoms: C_3  and  C_4
REMARK    2  A    between atoms: C_4  and  C_5
REMARK    3  A    between atoms: C_4  and  C_6
REMARK    4  A    between atoms: C_7  and  C_8
REMARK    5  A    between atoms: N_12  and  C_13
REMARK    6  A    between atoms: C_14  and  C_15
REMARK    7  A    between atoms: C_17  and  C_18
REMARK    8  A    between atoms: C_20  and  C_21
REMARK                            x       y       z     vdW  Elec       q    Type
REMARK                         _______ _______ _______ _____ _____    ______ ____
ROOT
ATOM      1  C   UNL     1      -3.411  12.428  20.631  0.00  0.00    +0.000 C 
ATOM      2  C   UNL     1      -2.487  12.975  21.428  0.00  0.00    +0.000 C 
ATOM      3  C   UNL     1      -2.714  13.689  22.683  0.00  0.00    +0.000 C 
ATOM      4  C   UNL     1      -1.534  14.155  23.137  0.00  0.00    +0.000 C 
ATOM      5  C   UNL     1      -0.469  13.671  22.227  0.00  0.00    +0.000 C 
ATOM      6  O   UNL     1       0.724  13.856  22.400  0.00  0.00    +0.000 OA
ATOM      7  N   UNL     1      -1.114  12.944  21.224  0.00  0.00    +0.000 N 
ENDROOT
BRANCH   7   8
ATOM      8  C   UNL     1      -0.397  11.993  20.438  0.00  0.00    +0.000 A 
ATOM      9  C   UNL     1      -0.114  10.708  20.969  0.00  0.00    +0.000 A 
ATOM     10  C   UNL     1      -0.460  10.269  22.368  0.00  0.00    +0.000 C 
ATOM     11  C   UNL     1       0.559   9.762  20.174  0.00  0.00    +0.000 A 
ATOM     12  C   UNL     1       0.935  10.050  18.865  0.00  0.00    +0.000 A 
ATOM     13  C   UNL     1       1.634   9.022  18.024  0.00  0.00    +0.000 C 
ATOM     14  C   UNL     1       0.666  11.321  18.351  0.00  0.00    +0.000 A 
ATOM     15  C   UNL     1       0.026  12.309  19.126  0.00  0.00    +0.000 A 
ATOM     16  C   UNL     1      -0.093  13.693  18.547  0.00  0.00    +0.000 C 
ENDBRANCH   7   8
BRANCH   3  17
ATOM     17  C   UNL     1      -4.078  13.725  23.359  0.00  0.00    +0.000 C 
ATOM     18  C   UNL     1      -4.132  12.691  24.495  0.00  0.00    +0.000 C 
ATOM     19  C   UNL     1      -4.533  15.087  23.895  0.00  0.00    +0.000 C 
ENDBRANCH   3  17
BRANCH   4  20
ATOM     20  C   UNL     1      -1.235  14.811  24.345  0.00  0.00    +0.000 C 
ATOM     21  N   UNL     1      -1.000  15.385  25.328  0.00  0.00    +0.000 NA
ENDBRANCH   4  20
TORSDOF 3
ENDMDL
MODEL 5
REMARK VINA RESULT:      -5.3      8.886     11.501
REMARK  Name = 
REMARK  8 active torsions:
REMARK  status: ('A' for Active; 'I' for Inactive)
REMARK    1  A    between atoms: C_3  and  C_4
REMARK    2  A    between atoms: C_4  and  C_5
REMARK    3  A    between atoms: C_4  and  C_6
REMARK    4  A    between atoms: C_7  and  C_8
REMARK    5  A    between atoms: N_12  and  C_13
REMARK    6  A    between atoms: C_14  and  C_15
REMARK    7  A    between atoms: C_17  and  C_18
REMARK    8  A    between atoms: C_20  and  C_21
REMARK                            x       y       z     vdW  Elec       q    Type
REMARK                         _______ _______ _______ _____ _____    ______ ____
ROOT
ATOM      1  C   UNL     1      -3.397  12.318  20.651  0.00  0.00    +0.000 C 
ATOM      2  C   UNL     1      -2.461  12.878  21.427  0.00  0.00    +0.000 C 
ATOM      3  C   UNL     1      -2.673  13.634  22.660  0.00  0.00    +0.000 C 
ATOM      4  C   UNL     1      -1.484  14.098  23.094  0.00  0.00    +0.000 C 
ATOM      5  C   UNL     1      -0.430  13.570  22.196  0.00  0.00    +0.000 C 
ATOM      6  O   UNL     1       0.765  13.743  22.358  0.00  0.00    +0.000 OA
ATOM      7  N   UNL     1      -1.090  12.820  21.219  0.00  0.00    +0.000 N 
ENDROOT
BRANCH   7   8
ATOM      8  C   UNL     1      -0.390  11.834  20.461  0.00  0.00    +0.000 A 
ATOM      9  C   UNL     1      -0.011  12.112  19.122  0.00  0.00    +0.000 A 
ATOM     10  C   UNL     1      -0.355  13.379  18.384  0.00  0.00    +0.000 C 
ATOM     11  C   UNL     1       0.713  11.151  18.393  0.00  0.00    +0.000 A 
ATOM     12  C   UNL     1       1.088   9.938  18.964  0.00  0.00    +0.000 A 
ATOM     13  C   UNL     1       1.878   8.932  18.178  0.00  0.00    +0.000 C 
ATOM     14  C   UNL     1       0.702   9.664  20.278  0.00  0.00    +0.000 A 
ATOM     15  C   UNL     1      -0.055  10.585  21.031  0.00  0.00    +0.000 A 
ATOM     16  C   UNL     1      -0.554  10.151  22.383  0.00  0.00    +0.000 C 
ENDBRANCH   7   8
BRANCH   3  17
ATOM     17  C   UNL     1      -4.034  13.711  23.340  0.00  0.00    +0.000 C 
ATOM     18  C   UNL     1      -4.093  12.722  24.514  0.00  0.00    +0.000 C 
ATOM     19  C   UNL     1      -4.472  15.098  23.824  0.00  0.00    +0.000 C 
ENDBRANCH   3  17
BRANCH   4  20
ATOM     20  C   UNL     1      -1.171  14.787  24.279  0.00  0.00    +0.000 C 
ATOM     21  N   UNL     1      -0.911  15.389  25.239  0.00  0.00    +0.000 NA
ENDBRANCH   4  20
TORSDOF 3
ENDMDL
MODEL 6
REMARK VINA RESULT:      -5.3      6.915      9.309
REMARK  Name = 
REMARK  8 active torsions:
REMARK  status: ('A' for Active; 'I' for Inactive)
REMARK    1  A    between atoms: C_3  and  C_4
REMARK    2  A    between atoms: C_4  and  C_5
REMARK    3  A    between atoms: C_4  and  C_6
REMARK    4  A    between atoms: C_7  and  C_8
REMARK    5  A    between atoms: N_12  and  C_13
REMARK    6  A    between atoms: C_14  and  C_15
REMARK    7  A    between atoms: C_17  and  C_18
REMARK    8  A    between atoms: C_20  and  C_21
REMARK                            x       y       z     vdW  Elec       q    Type
REMARK                         _______ _______ _______ _____ _____    ______ ____
ROOT
ATOM      1  C   UNL     1      -1.924  10.652  19.178  0.00  0.00    +0.000 C 
ATOM      2  C   UNL     1      -1.076  11.373  19.921  0.00  0.00    +0.000 C 
ATOM      3  C   UNL     1      -1.383  12.571  20.699  0.00  0.00    +0.000 C 
ATOM      4  C   UNL     1      -0.241  13.043  21.238  0.00  0.00    +0.000 C 
ATOM      5  C   UNL     1       0.849  12.098  20.902  0.00  0.00    +0.000 C 
ATOM      6  O   UNL     1       1.996  12.197  21.302  0.00  0.00    +0.000 OA
ATOM      7  N   UNL     1       0.270  11.096  20.119  0.00  0.00    +0.000 N 
ENDROOT
BRANCH   7   8
ATOM      8  C   UNL     1       0.903   9.825  19.978  0.00  0.00    +0.000 A 
ATOM      9  C   UNL     1       0.793   8.864  21.015  0.00  0.00    +0.000 A 
ATOM     10  C   UNL     1       0.097   9.102  22.329  0.00  0.00    +0.000 C 
ATOM     11  C   UNL     1       1.386   7.598  20.852  0.00  0.00    +0.000 A 
ATOM     12  C   UNL     1       2.061   7.258  19.683  0.00  0.00    +0.000 A 
ATOM     13  C   UNL     1       2.671   5.896  19.518  0.00  0.00    +0.000 C 
ATOM     14  C   UNL     1       2.178   8.213  18.670  0.00  0.00    +0.000 A 
ATOM     15  C   UNL     1       1.629   9.503  18.808  0.00  0.00    +0.000 A 
ATOM     16  C   UNL     1       1.926  10.516  17.735  0.00  0.00    +0.000 C 
ENDBRANCH   7   8
BRANCH   3  17
ATOM     17  C   UNL     1      -2.812  13.050  20.920  0.00  0.00    +0.000 C 
ATOM     18  C   UNL     1      -3.337  12.538  22.270  0.00  0.00    +0.000 C 
ATOM     19  C   UNL     1      -3.041  14.563  20.831  0.00  0.00    +0.000 C 
ENDBRANCH   3  17
BRANCH   4  20
ATOM     20  C   UNL     1      -0.049  14.108  22.137  0.00  0.00    +0.000 C 
ATOM     21  N   UNL     1       0.118  14.963  22.907  0.00  0.00    +0.000 NA
ENDBRANCH   4  20
TORSDOF 3
ENDMDL
MODEL 7
REMARK VINA RESULT:      -5.3      6.902      9.252
REMARK  Name = 
REMARK  8 active torsions:
REMARK  status: ('A' for Active; 'I' for Inactive)
REMARK    1  A    between atoms: C_3  and  C_4
REMARK    2  A    between atoms: C_4  and  C_5
REMARK    3  A    between atoms: C_4  and  C_6
REMARK    4  A    between atoms: C_7  and  C_8
REMARK    5  A    between atoms: N_12  and  C_13
REMARK    6  A    between atoms: C_14  and  C_15
REMARK    7  A    between atoms: C_17  and  C_18
REMARK    8  A    between atoms: C_20  and  C_21
REMARK                            x       y       z     vdW  Elec       q    Type
REMARK                         _______ _______ _______ _____ _____    ______ ____
ROOT
ATOM      1  C   UNL     1      -1.978  10.649  19.166  0.00  0.00    +0.000 C 
ATOM      2  C   UNL     1      -1.115  11.357  19.905  0.00  0.00    +0.000 C 
ATOM      3  C   UNL     1      -1.393  12.577  20.660  0.00  0.00    +0.000 C 
ATOM      4  C   UNL     1      -0.243  13.024  21.201  0.00  0.00    +0.000 C 
ATOM      5  C   UNL     1       0.823  12.043  20.889  0.00  0.00    +0.000 C 
ATOM      6  O   UNL     1       1.969  12.115  21.297  0.00  0.00    +0.000 OA
ATOM      7  N   UNL     1       0.221  11.045  20.118  0.00  0.00    +0.000 N 
ENDROOT
BRANCH   7   8
ATOM      8  C   UNL     1       0.817   9.754  20.002  0.00  0.00    +0.000 A 
ATOM      9  C   UNL     1       1.579   9.430  18.850  0.00  0.00    +0.000 A 
ATOM     10  C   UNL     1       1.764  10.342  17.666  0.00  0.00    +0.000 C 
ATOM     11  C   UNL     1       2.197   8.169  18.761  0.00  0.00    +0.000 A 
ATOM     12  C   UNL     1       2.097   7.237  19.789  0.00  0.00    +0.000 A 
ATOM     13  C   UNL     1       2.779   5.904  19.685  0.00  0.00    +0.000 C 
ATOM     14  C   UNL     1       1.335   7.555  20.916  0.00  0.00    +0.000 A 
ATOM     15  C   UNL     1       0.671   8.793  21.029  0.00  0.00    +0.000 A 
ATOM     16  C   UNL     1      -0.247   8.997  22.205  0.00  0.00    +0.000 C 
ENDBRANCH   7   8
BRANCH   3  17
ATOM     17  C   UNL     1      -2.809  13.100  20.862  0.00  0.00    +0.000 C 
ATOM     18  C   UNL     1      -3.368  12.608  22.206  0.00  0.00    +0.000 C 
ATOM     19  C   UNL     1      -2.990  14.619  20.765  0.00  0.00    +0.000 C 
ENDBRANCH   3  17
BRANCH   4  20
ATOM     20  C   UNL     1      -0.026  14.097  22.083  0.00  0.00    +0.000 C 
ATOM     21  N   UNL     1       0.187  14.990  22.797  0.00  0.00    +0.000 NA
ENDBRANCH   4  20
TORSDOF 3
ENDMDL
MODEL 8
REMARK VINA RESULT:      -5.3      1.724      6.099
REMARK  Name = 
REMARK  8 active torsions:
REMARK  status: ('A' for Active; 'I' for Inactive)
REMARK    1  A    between atoms: C_3  and  C_4
REMARK    2  A    between atoms: C_4  and  C_5
REMARK    3  A    between atoms: C_4  and  C_6
REMARK    4  A    between atoms: C_7  and  C_8
REMARK    5  A    between atoms: N_12  and  C_13
REMARK    6  A    between atoms: C_14  and  C_15
REMARK    7  A    between atoms: C_17  and  C_18
REMARK    8  A    between atoms: C_20  and  C_21
REMARK                            x       y       z     vdW  Elec       q    Type
REMARK                         _______ _______ _______ _____ _____    ______ ____
ROOT
ATOM      1  C   UNL     1       3.280   7.093  17.905  0.00  0.00    +0.000 C 
ATOM      2  C   UNL     1       3.607   5.967  18.550  0.00  0.00    +0.000 C 
ATOM      3  C   UNL     1       2.876   5.333  19.646  0.00  0.00    +0.000 C 
ATOM      4  C   UNL     1       3.576   4.264  20.073  0.00  0.00    +0.000 C 
ATOM      5  C   UNL     1       4.758   4.108  19.193  0.00  0.00    +0.000 C 
ATOM      6  O   UNL     1       5.557   3.190  19.266  0.00  0.00    +0.000 OA
ATOM      7  N   UNL     1       4.704   5.162  18.277  0.00  0.00    +0.000 N 
ENDROOT
BRANCH   7   8
ATOM      8  C   UNL     1       5.416   5.091  17.042  0.00  0.00    +0.000 A 
ATOM      9  C   UNL     1       6.621   5.822  16.880  0.00  0.00    +0.000 A 
ATOM     10  C   UNL     1       7.200   6.752  17.914  0.00  0.00    +0.000 C 
ATOM     11  C   UNL     1       7.338   5.717  15.674  0.00  0.00    +0.000 A 
ATOM     12  C   UNL     1       6.903   4.893  14.640  0.00  0.00    +0.000 A 
ATOM     13  C   UNL     1       7.691   4.777  13.368  0.00  0.00    +0.000 C 
ATOM     14  C   UNL     1       5.709   4.185  14.800  0.00  0.00    +0.000 A 
ATOM     15  C   UNL     1       4.943   4.290  15.978  0.00  0.00    +0.000 A 
ATOM     16  C   UNL     1       3.599   3.612  16.010  0.00  0.00    +0.000 C 
ENDBRANCH   7   8
BRANCH   3  17
ATOM     17  C   UNL     1       1.489   5.797  20.071  0.00  0.00    +0.000 C 
ATOM     18  C   UNL     1       0.621   4.587  20.450  0.00  0.00    +0.000 C 
ATOM     19  C   UNL     1       1.437   6.831  21.201  0.00  0.00    +0.000 C 
ENDBRANCH   3  17
BRANCH   4  20
ATOM     20  C   UNL     1       3.233   3.293  21.031  0.00  0.00    +0.000 C 
ATOM     21  N   UNL     1       2.917   2.482  21.802  0.00  0.00    +0.000 NA
ENDBRANCH   4  20
TORSDOF 3
ENDMDL
MODEL 9
REMARK VINA RESULT:      -5.1      8.719     10.880
REMARK  Name = 
REMARK  8 active torsions:
REMARK  status: ('A' for Active; 'I' for Inactive)
REMARK    1  A    between atoms: C_3  and  C_4
REMARK    2  A    between atoms: C_4  and  C_5
REMARK    3  A    between atoms: C_4  and  C_6
REMARK    4  A    between atoms: C_7  and  C_8
REMARK    5  A    between atoms: N_12  and  C_13
REMARK    6  A    between atoms: C_14  and  C_15
REMARK    7  A    between atoms: C_17  and  C_18
REMARK    8  A    between atoms: C_20  and  C_21
REMARK                            x       y       z     vdW  Elec       q    Type
REMARK                         _______ _______ _______ _____ _____    ______ ____
ROOT
ATOM      1  C   UNL     1      -2.155  13.061  19.814  0.00  0.00    +0.000 C 
ATOM      2  C   UNL     1      -1.499  12.152  20.543  0.00  0.00    +0.000 C 
ATOM      3  C   UNL     1      -0.726  11.014  20.049  0.00  0.00    +0.000 C 
ATOM      4  C   UNL     1      -0.290  10.294  21.101  0.00  0.00    +0.000 C 
ATOM      5  C   UNL     1      -0.691  11.004  22.339  0.00  0.00    +0.000 C 
ATOM      6  O   UNL     1      -0.386  10.653  23.466  0.00  0.00    +0.000 OA
ATOM      7  N   UNL     1      -1.402  12.134  21.928  0.00  0.00    +0.000 N 
ENDROOT
BRANCH   7   8
ATOM      8  C   UNL     1      -1.565  13.250  22.802  0.00  0.00    +0.000 A 
ATOM      9  C   UNL     1      -2.722  13.344  23.618  0.00  0.00    +0.000 A 
ATOM     10  C   UNL     1      -3.865  12.364  23.592  0.00  0.00    +0.000 C 
ATOM     11  C   UNL     1      -2.857  14.427  24.506  0.00  0.00    +0.000 A 
ATOM     12  C   UNL     1      -1.869  15.401  24.620  0.00  0.00    +0.000 A 
ATOM     13  C   UNL     1      -2.021  16.539  25.587  0.00  0.00    +0.000 C 
ATOM     14  C   UNL     1      -0.738  15.311  23.804  0.00  0.00    +0.000 A 
ATOM     15  C   UNL     1      -0.580  14.262  22.877  0.00  0.00    +0.000 A 
ATOM     16  C   UNL     1       0.593  14.321  21.936  0.00  0.00    +0.000 C 
ENDBRANCH   7   8
BRANCH   3  17
ATOM     17  C   UNL     1      -0.402  10.835  18.571  0.00  0.00    +0.000 C 
ATOM     18  C   UNL     1       1.089  10.511  18.393  0.00  0.00    +0.000 C 
ATOM     19  C   UNL     1      -1.239   9.796  17.815  0.00  0.00    +0.000 C 
ENDBRANCH   3  17
BRANCH   4  20
ATOM     20  C   UNL     1       0.566   9.179  21.131  0.00  0.00    +0.000 C 
ATOM     21  N   UNL     1       1.257   8.244  21.124  0.00  0.00    +0.000 NA
ENDBRANCH   4  20
TORSDOF 3
ENDMDL
