MODEL 1
REMARK VINA RESULT:      -8.4      0.000      0.000
REMARK  Name = 
REMARK  2 active torsions:
REMARK  status: ('A' for Active; 'I' for Inactive)
REMARK    1  A    between atoms: C_5  and  N_6
REMARK    2  A    between atoms: N_11  and  C_12
REMARK                            x       y       z     vdW  Elec       q    Type
REMARK                         _______ _______ _______ _____ _____    ______ ____
ROOT
ATOM      1  N   UNL     1       1.207   9.007  19.900  0.00  0.00    +0.000 N 
ATOM      2  N   UNL     1       1.593   9.627  18.741  0.00  0.00    +0.000 NA
ATOM      3  C   UNL     1       2.297   8.701  18.085  0.00  0.00    +0.000 A 
ATOM      4  C   UNL     1       2.383   7.477  18.771  0.00  0.00    +0.000 A 
ATOM      5  C   UNL     1       2.966   6.215  18.575  0.00  0.00    +0.000 A 
ATOM      6  N   UNL     1       3.717   5.881  17.445  0.00  0.00    +0.000 N 
ATOM      7  N   UNL     1       2.759   5.281  19.536  0.00  0.00    +0.000 NA
ATOM      8  C   UNL     1       2.026   5.595  20.618  0.00  0.00    +0.000 A 
ATOM      9  N   UNL     1       1.457   6.769  20.902  0.00  0.00    +0.000 NA
ATOM     10  C   UNL     1       1.666   7.689  19.940  0.00  0.00    +0.000 A 
ATOM     11  H   UNL     1       4.031   6.684  16.914  0.00  0.00    +0.000 HD
ENDROOT
BRANCH   1  16
ATOM     12  F   UNL     1      -1.926  11.765  23.591  0.00  0.00    +0.000 F 
ATOM     13  C   UNL     1      -1.158  11.109  22.711  0.00  0.00    +0.000 A 
ATOM     14  C   UNL     1      -1.066  11.567  21.403  0.00  0.00    +0.000 A 
ATOM     15  C   UNL     1      -0.271  10.877  20.480  0.00  0.00    +0.000 A 
ATOM     16  C   UNL     1       0.425   9.717  20.868  0.00  0.00    +0.000 A 
ATOM     17  C   UNL     1       0.326   9.281  22.199  0.00  0.00    +0.000 A 
ATOM     18  C   UNL     1      -0.466   9.977  23.118  0.00  0.00    +0.000 A 
ENDBRANCH   1  16
BRANCH   6  19
ATOM     19  C   UNL     1       4.720   4.813  17.603  0.00  0.00    +0.000 C 
ATOM     20  C   UNL     1       4.629   3.845  16.412  0.00  0.00    +0.000 C 
ATOM     21  C   UNL     1       5.157   4.337  15.066  0.00  0.00    +0.000 C 
ATOM     22  C   UNL     1       6.667   4.210  14.888  0.00  0.00    +0.000 C 
ATOM     23  C   UNL     1       7.518   5.045  15.834  0.00  0.00    +0.000 C 
ATOM     24  C   UNL     1       7.311   4.726  17.311  0.00  0.00    +0.000 C 
ATOM     25  C   UNL     1       6.095   5.439  17.893  0.00  0.00    +0.000 C 
ENDBRANCH   6  19
TORSDOF 2
ENDMDL
MODEL 2
REMARK VINA RESULT:      -7.7      2.354      4.020
REMARK  Name = 
REMARK  2 active torsions:
REMARK  status: ('A' for Active; 'I' for Inactive)
REMARK    1  A    between atoms: C_5  and  N_6
REMARK    2  A    between atoms: N_11  and  C_12
REMARK                            x       y       z     vdW  Elec       q    Type
REMARK                         _______ _______ _______ _____ _____    ______ ____
ROOT
ATOM      1  N   UNL     1      -0.064  10.699  22.234  0.00  0.00    +0.000 N 
ATOM      2  N   UNL     1       0.404   9.930  23.267  0.00  0.00    +0.000 NA
ATOM      3  C   UNL     1       1.078   8.944  22.671  0.00  0.00    +0.000 A 
ATOM      4  C   UNL     1       1.081   9.038  21.269  0.00  0.00    +0.000 A 
ATOM      5  C   UNL     1       1.600   8.318  20.181  0.00  0.00    +0.000 A 
ATOM      6  N   UNL     1       2.350   7.147  20.319  0.00  0.00    +0.000 N 
ATOM      7  N   UNL     1       1.366   8.816  18.941  0.00  0.00    +0.000 NA
ATOM      8  C   UNL     1       0.656   9.949  18.806  0.00  0.00    +0.000 A 
ATOM      9  N   UNL     1       0.105  10.684  19.775  0.00  0.00    +0.000 NA
ATOM     10  C   UNL     1       0.344  10.183  21.002  0.00  0.00    +0.000 A 
ATOM     11  H   UNL     1       2.264   6.716  21.231  0.00  0.00    +0.000 HD
ENDROOT
BRANCH   1  16
ATOM     12  F   UNL     1      -3.136  15.198  23.398  0.00  0.00    +0.000 F 
ATOM     13  C   UNL     1      -2.402  14.118  23.100  0.00  0.00    +0.000 A 
ATOM     14  C   UNL     1      -2.890  12.852  23.395  0.00  0.00    +0.000 A 
ATOM     15  C   UNL     1      -2.121  11.722  23.093  0.00  0.00    +0.000 A 
ATOM     16  C   UNL     1      -0.850  11.865  22.505  0.00  0.00    +0.000 A 
ATOM     17  C   UNL     1      -0.384  13.154  22.204  0.00  0.00    +0.000 A 
ATOM     18  C   UNL     1      -1.160  14.279  22.504  0.00  0.00    +0.000 A 
ENDBRANCH   1  16
BRANCH   6  19
ATOM     19  C   UNL     1       2.330   6.206  19.185  0.00  0.00    +0.000 C 
ATOM     20  C   UNL     1       3.731   6.139  18.553  0.00  0.00    +0.000 C 
ATOM     21  C   UNL     1       4.817   5.401  19.332  0.00  0.00    +0.000 C 
ATOM     22  C   UNL     1       4.807   3.884  19.160  0.00  0.00    +0.000 C 
ATOM     23  C   UNL     1       3.568   3.167  19.676  0.00  0.00    +0.000 C 
ATOM     24  C   UNL     1       2.268   3.604  19.011  0.00  0.00    +0.000 C 
ATOM     25  C   UNL     1       1.699   4.877  19.631  0.00  0.00    +0.000 C 
ENDBRANCH   6  19
TORSDOF 2
ENDMDL
MODEL 3
REMARK VINA RESULT:      -7.7      2.231      3.571
REMARK  Name = 
REMARK  2 active torsions:
REMARK  status: ('A' for Active; 'I' for Inactive)
REMARK    1  A    between atoms: C_5  and  N_6
REMARK    2  A    between atoms: N_11  and  C_12
REMARK                            x       y       z     vdW  Elec       q    Type
REMARK                         _______ _______ _______ _____ _____    ______ ____
ROOT
ATOM      1  N   UNL     1       0.161   9.903  20.812  0.00  0.00    +0.000 N 
ATOM      2  N   UNL     1       0.170   9.012  21.853  0.00  0.00    +0.000 NA
ATOM      3  C   UNL     1       0.964   8.022  21.439  0.00  0.00    +0.000 A 
ATOM      4  C   UNL     1       1.493   8.231  20.154  0.00  0.00    +0.000 A 
ATOM      5  C   UNL     1       2.341   7.560  19.258  0.00  0.00    +0.000 A 
ATOM      6  N   UNL     1       2.922   6.319  19.530  0.00  0.00    +0.000 N 
ATOM      7  N   UNL     1       2.611   8.178  18.082  0.00  0.00    +0.000 NA
ATOM      8  C   UNL     1       2.064   9.378  17.822  0.00  0.00    +0.000 A 
ATOM      9  N   UNL     1       1.231  10.076  18.598  0.00  0.00    +0.000 NA
ATOM     10  C   UNL     1       0.970   9.456  19.765  0.00  0.00    +0.000 A 
ATOM     11  H   UNL     1       2.481   5.823  20.295  0.00  0.00    +0.000 HD
ENDROOT
BRANCH   1  16
ATOM     12  F   UNL     1      -2.728  14.651  21.191  0.00  0.00    +0.000 F 
ATOM     13  C   UNL     1      -2.048  13.500  21.105  0.00  0.00    +0.000 A 
ATOM     14  C   UNL     1      -1.180  13.135  22.125  0.00  0.00    +0.000 A 
ATOM     15  C   UNL     1      -0.462  11.937  22.031  0.00  0.00    +0.000 A 
ATOM     16  C   UNL     1      -0.607  11.108  20.904  0.00  0.00    +0.000 A 
ATOM     17  C   UNL     1      -1.500  11.491  19.891  0.00  0.00    +0.000 A 
ATOM     18  C   UNL     1      -2.219  12.687  19.993  0.00  0.00    +0.000 A 
ENDBRANCH   1  16
BRANCH   6  19
ATOM     19  C   UNL     1       3.276   5.481  18.371  0.00  0.00    +0.000 C 
ATOM     20  C   UNL     1       4.511   4.630  18.714  0.00  0.00    +0.000 C 
ATOM     21  C   UNL     1       4.312   3.463  19.678  0.00  0.00    +0.000 C 
ATOM     22  C   UNL     1       3.772   2.188  19.035  0.00  0.00    +0.000 C 
ATOM     23  C   UNL     1       2.376   2.288  18.438  0.00  0.00    +0.000 C 
ATOM     24  C   UNL     1       2.240   3.326  17.330  0.00  0.00    +0.000 C 
ATOM     25  C   UNL     1       2.027   4.734  17.877  0.00  0.00    +0.000 C 
ENDBRANCH   6  19
TORSDOF 2
ENDMDL
MODEL 4
REMARK VINA RESULT:      -7.7      2.294      3.864
REMARK  Name = 
REMARK  2 active torsions:
REMARK  status: ('A' for Active; 'I' for Inactive)
REMARK    1  A    between atoms: C_5  and  N_6
REMARK    2  A    between atoms: N_11  and  C_12
REMARK                            x       y       z     vdW  Elec       q    Type
REMARK                         _______ _______ _______ _____ _____    ______ ____
ROOT
ATOM      1  N   UNL     1       0.018  10.662  22.107  0.00  0.00    +0.000 N 
ATOM      2  N   UNL     1       0.465   9.878  23.139  0.00  0.00    +0.000 NA
ATOM      3  C   UNL     1       1.139   8.893  22.541  0.00  0.00    +0.000 A 
ATOM      4  C   UNL     1       1.162   9.002  21.140  0.00  0.00    +0.000 A 
ATOM      5  C   UNL     1       1.691   8.291  20.052  0.00  0.00    +0.000 A 
ATOM      6  N   UNL     1       2.429   7.112  20.187  0.00  0.00    +0.000 N 
ATOM      7  N   UNL     1       1.478   8.804  18.815  0.00  0.00    +0.000 NA
ATOM      8  C   UNL     1       0.780   9.944  18.682  0.00  0.00    +0.000 A 
ATOM      9  N   UNL     1       0.221  10.673  19.651  0.00  0.00    +0.000 NA
ATOM     10  C   UNL     1       0.439  10.156  20.876  0.00  0.00    +0.000 A 
ATOM     11  H   UNL     1       2.327   6.671  21.093  0.00  0.00    +0.000 HD
ENDROOT
BRANCH   1  16
ATOM     12  F   UNL     1      -3.009  15.242  23.058  0.00  0.00    +0.000 F 
ATOM     13  C   UNL     1      -2.276  14.141  22.847  0.00  0.00    +0.000 A 
ATOM     14  C   UNL     1      -1.039  14.246  22.225  0.00  0.00    +0.000 A 
ATOM     15  C   UNL     1      -0.276  13.095  21.996  0.00  0.00    +0.000 A 
ATOM     16  C   UNL     1      -0.762  11.832  22.380  0.00  0.00    +0.000 A 
ATOM     17  C   UNL     1      -2.010  11.752  23.019  0.00  0.00    +0.000 A 
ATOM     18  C   UNL     1      -2.766  12.906  23.250  0.00  0.00    +0.000 A 
ENDBRANCH   1  16
BRANCH   6  19
ATOM     19  C   UNL     1       2.418   6.183  19.043  0.00  0.00    +0.000 C 
ATOM     20  C   UNL     1       3.826   6.111  18.430  0.00  0.00    +0.000 C 
ATOM     21  C   UNL     1       4.894   5.354  19.216  0.00  0.00    +0.000 C 
ATOM     22  C   UNL     1       4.874   3.840  19.026  0.00  0.00    +0.000 C 
ATOM     23  C   UNL     1       3.622   3.128  19.517  0.00  0.00    +0.000 C 
ATOM     24  C   UNL     1       2.335   3.585  18.839  0.00  0.00    +0.000 C 
ATOM     25  C   UNL     1       1.769   4.855  19.465  0.00  0.00    +0.000 C 
ENDBRANCH   6  19
TORSDOF 2
ENDMDL
MODEL 5
REMARK VINA RESULT:      -7.6      2.137      3.453
REMARK  Name = 
REMARK  2 active torsions:
REMARK  status: ('A' for Active; 'I' for Inactive)
REMARK    1  A    between atoms: C_5  and  N_6
REMARK    2  A    between atoms: N_11  and  C_12
REMARK                            x       y       z     vdW  Elec       q    Type
REMARK                         _______ _______ _______ _____ _____    ______ ____
ROOT
ATOM      1  N   UNL     1       0.157   9.944  21.040  0.00  0.00    +0.000 N 
ATOM      2  N   UNL     1       0.253   9.030  22.057  0.00  0.00    +0.000 NA
ATOM      3  C   UNL     1       1.020   8.057  21.561  0.00  0.00    +0.000 A 
ATOM      4  C   UNL     1       1.447   8.299  20.244  0.00  0.00    +0.000 A 
ATOM      5  C   UNL     1       2.229   7.657  19.271  0.00  0.00    +0.000 A 
ATOM      6  N   UNL     1       2.838   6.415  19.470  0.00  0.00    +0.000 N 
ATOM      7  N   UNL     1       2.403   8.303  18.092  0.00  0.00    +0.000 NA
ATOM      8  C   UNL     1       1.829   9.503  17.902  0.00  0.00    +0.000 A 
ATOM      9  N   UNL     1       1.053  10.177  18.755  0.00  0.00    +0.000 NA
ATOM     10  C   UNL     1       0.887   9.528  19.924  0.00  0.00    +0.000 A 
ATOM     11  H   UNL     1       2.461   5.899  20.254  0.00  0.00    +0.000 HD
ENDROOT
BRANCH   1  16
ATOM     12  F   UNL     1      -2.920  14.543  21.684  0.00  0.00    +0.000 F 
ATOM     13  C   UNL     1      -2.165  13.448  21.529  0.00  0.00    +0.000 A 
ATOM     14  C   UNL     1      -2.059  12.856  20.277  0.00  0.00    +0.000 A 
ATOM     15  C   UNL     1      -1.278  11.706  20.116  0.00  0.00    +0.000 A 
ATOM     16  C   UNL     1      -0.610  11.140  21.218  0.00  0.00    +0.000 A 
ATOM     17  C   UNL     1      -0.722  11.763  22.471  0.00  0.00    +0.000 A 
ATOM     18  C   UNL     1      -1.501  12.915  22.625  0.00  0.00    +0.000 A 
ENDBRANCH   1  16
BRANCH   6  19
ATOM     19  C   UNL     1       3.109   5.606  18.268  0.00  0.00    +0.000 C 
ATOM     20  C   UNL     1       4.426   4.834  18.457  0.00  0.00    +0.000 C 
ATOM     21  C   UNL     1       4.413   3.653  19.424  0.00  0.00    +0.000 C 
ATOM     22  C   UNL     1       3.883   2.349  18.832  0.00  0.00    +0.000 C 
ATOM     23  C   UNL     1       2.424   2.362  18.400  0.00  0.00    +0.000 C 
ATOM     24  C   UNL     1       2.097   3.394  17.327  0.00  0.00    +0.000 C 
ATOM     25  C   UNL     1       1.860   4.783  17.911  0.00  0.00    +0.000 C 
ENDBRANCH   6  19
TORSDOF 2
ENDMDL
MODEL 6
REMARK VINA RESULT:      -7.5      1.979      3.812
REMARK  Name = 
REMARK  2 active torsions:
REMARK  status: ('A' for Active; 'I' for Inactive)
REMARK    1  A    between atoms: C_5  and  N_6
REMARK    2  A    between atoms: N_11  and  C_12
REMARK                            x       y       z     vdW  Elec       q    Type
REMARK                         _______ _______ _______ _____ _____    ______ ____
ROOT
ATOM      1  N   UNL     1      -0.131  10.720  22.124  0.00  0.00    +0.000 N 
ATOM      2  N   UNL     1       0.487   9.874  23.007  0.00  0.00    +0.000 NA
ATOM      3  C   UNL     1       1.164   9.022  22.235  0.00  0.00    +0.000 A 
ATOM      4  C   UNL     1       1.022   9.281  20.860  0.00  0.00    +0.000 A 
ATOM      5  C   UNL     1       1.478   8.738  19.649  0.00  0.00    +0.000 A 
ATOM      6  N   UNL     1       2.316   7.622  19.571  0.00  0.00    +0.000 N 
ATOM      7  N   UNL     1       1.090   9.359  18.507  0.00  0.00    +0.000 NA
ATOM      8  C   UNL     1       0.295  10.440  18.579  0.00  0.00    +0.000 A 
ATOM      9  N   UNL     1      -0.207  11.009  19.678  0.00  0.00    +0.000 NA
ATOM     10  C   UNL     1       0.187  10.387  20.806  0.00  0.00    +0.000 A 
ATOM     11  H   UNL     1       2.350   7.081  20.426  0.00  0.00    +0.000 HD
ENDROOT
BRANCH   1  16
ATOM     12  F   UNL     1      -3.380  14.787  24.111  0.00  0.00    +0.000 F 
ATOM     13  C   UNL     1      -2.604  13.813  23.617  0.00  0.00    +0.000 A 
ATOM     14  C   UNL     1      -3.019  12.491  23.705  0.00  0.00    +0.000 A 
ATOM     15  C   UNL     1      -2.205  11.472  23.197  0.00  0.00    +0.000 A 
ATOM     16  C   UNL     1      -0.965  11.780  22.609  0.00  0.00    +0.000 A 
ATOM     17  C   UNL     1      -0.572  13.124  22.519  0.00  0.00    +0.000 A 
ATOM     18  C   UNL     1      -1.392  14.139  23.025  0.00  0.00    +0.000 A 
ENDBRANCH   1  16
BRANCH   6  19
ATOM     19  C   UNL     1       2.248   6.823  18.335  0.00  0.00    +0.000 C 
ATOM     20  C   UNL     1       3.437   7.184  17.428  0.00  0.00    +0.000 C 
ATOM     21  C   UNL     1       4.816   6.681  17.847  0.00  0.00    +0.000 C 
ATOM     22  C   UNL     1       5.117   5.238  17.450  0.00  0.00    +0.000 C 
ATOM     23  C   UNL     1       4.235   4.177  18.092  0.00  0.00    +0.000 C 
ATOM     24  C   UNL     1       2.750   4.324  17.782  0.00  0.00    +0.000 C 
ATOM     25  C   UNL     1       2.065   5.339  18.692  0.00  0.00    +0.000 C 
ENDBRANCH   6  19
TORSDOF 2
ENDMDL
MODEL 7
REMARK VINA RESULT:      -7.4      2.962      4.130
REMARK  Name = 
REMARK  2 active torsions:
REMARK  status: ('A' for Active; 'I' for Inactive)
REMARK    1  A    between atoms: C_5  and  N_6
REMARK    2  A    between atoms: N_11  and  C_12
REMARK                            x       y       z     vdW  Elec       q    Type
REMARK                         _______ _______ _______ _____ _____    ______ ____
ROOT
ATOM      1  N   UNL     1       1.524  10.704  18.678  0.00  0.00    +0.000 N 
ATOM      2  N   UNL     1       1.983  10.247  17.470  0.00  0.00    +0.000 NA
ATOM      3  C   UNL     1       2.165   8.938  17.655  0.00  0.00    +0.000 A 
ATOM      4  C   UNL     1       1.832   8.506  18.951  0.00  0.00    +0.000 A 
ATOM      5  C   UNL     1       1.825   7.304  19.675  0.00  0.00    +0.000 A 
ATOM      6  N   UNL     1       2.231   6.079  19.139  0.00  0.00    +0.000 N 
ATOM      7  N   UNL     1       1.377   7.354  20.954  0.00  0.00    +0.000 NA
ATOM      8  C   UNL     1       0.973   8.528  21.469  0.00  0.00    +0.000 A 
ATOM      9  N   UNL     1       0.967   9.721  20.868  0.00  0.00    +0.000 NA
ATOM     10  C   UNL     1       1.412   9.660  19.598  0.00  0.00    +0.000 A 
ATOM     11  H   UNL     1       2.775   6.169  18.290  0.00  0.00    +0.000 HD
ENDROOT
BRANCH   1  16
ATOM     12  F   UNL     1       0.420  16.133  19.268  0.00  0.00    +0.000 F 
ATOM     13  C   UNL     1       0.681  14.825  19.144  0.00  0.00    +0.000 A 
ATOM     14  C   UNL     1       1.998  14.383  19.139  0.00  0.00    +0.000 A 
ATOM     15  C   UNL     1       2.272  13.018  19.000  0.00  0.00    +0.000 A 
ATOM     16  C   UNL     1       1.222  12.093  18.852  0.00  0.00    +0.000 A 
ATOM     17  C   UNL     1      -0.101  12.562  18.873  0.00  0.00    +0.000 A 
ATOM     18  C   UNL     1      -0.369  13.928  19.017  0.00  0.00    +0.000 A 
ENDBRANCH   1  16
BRANCH   6  19
ATOM     19  C   UNL     1       2.727   5.068  20.089  0.00  0.00    +0.000 C 
ATOM     20  C   UNL     1       1.568   4.149  20.509  0.00  0.00    +0.000 C 
ATOM     21  C   UNL     1       1.064   3.141  19.479  0.00  0.00    +0.000 C 
ATOM     22  C   UNL     1       1.881   1.855  19.391  0.00  0.00    +0.000 C 
ATOM     23  C   UNL     1       3.322   2.016  18.929  0.00  0.00    +0.000 C 
ATOM     24  C   UNL     1       4.171   2.911  19.825  0.00  0.00    +0.000 C 
ATOM     25  C   UNL     1       3.982   4.392  19.511  0.00  0.00    +0.000 C 
ENDBRANCH   6  19
TORSDOF 2
ENDMDL
MODEL 8
REMARK VINA RESULT:      -7.2      3.210      8.897
REMARK  Name = 
REMARK  2 active torsions:
REMARK  status: ('A' for Active; 'I' for Inactive)
REMARK    1  A    between atoms: C_5  and  N_6
REMARK    2  A    between atoms: N_11  and  C_12
REMARK                            x       y       z     vdW  Elec       q    Type
REMARK                         _______ _______ _______ _____ _____    ______ ____
ROOT
ATOM      1  N   UNL     1       2.229   8.139  18.350  0.00  0.00    +0.000 N 
ATOM      2  N   UNL     1       2.127   9.155  17.436  0.00  0.00    +0.000 NA
ATOM      3  C   UNL     1       1.456  10.115  18.076  0.00  0.00    +0.000 A 
ATOM      4  C   UNL     1       1.115   9.772  19.396  0.00  0.00    +0.000 A 
ATOM      5  C   UNL     1       0.443  10.358  20.481  0.00  0.00    +0.000 A 
ATOM      6  N   UNL     1      -0.124  11.634  20.437  0.00  0.00    +0.000 N 
ATOM      7  N   UNL     1       0.372   9.637  21.627  0.00  0.00    +0.000 NA
ATOM      8  C   UNL     1       0.928   8.415  21.676  0.00  0.00    +0.000 A 
ATOM      9  N   UNL     1       1.561   7.769  20.694  0.00  0.00    +0.000 NA
ATOM     10  C   UNL     1       1.629   8.494  19.560  0.00  0.00    +0.000 A 
ATOM     11  H   UNL     1      -0.248  11.991  19.497  0.00  0.00    +0.000 HD
ENDROOT
BRANCH   1  16
ATOM     12  F   UNL     1       4.736   3.373  16.924  0.00  0.00    +0.000 F 
ATOM     13  C   UNL     1       4.143   4.519  17.282  0.00  0.00    +0.000 A 
ATOM     14  C   UNL     1       2.864   4.494  17.821  0.00  0.00    +0.000 A 
ATOM     15  C   UNL     1       2.239   5.692  18.187  0.00  0.00    +0.000 A 
ATOM     16  C   UNL     1       2.897   6.922  18.000  0.00  0.00    +0.000 A 
ATOM     17  C   UNL     1       4.195   6.922  17.466  0.00  0.00    +0.000 A 
ATOM     18  C   UNL     1       4.815   5.721  17.106  0.00  0.00    +0.000 A 
ENDBRANCH   1  16
BRANCH   6  19
ATOM     19  C   UNL     1      -1.250  11.894  21.352  0.00  0.00    +0.000 C 
ATOM     20  C   UNL     1      -0.761  12.747  22.534  0.00  0.00    +0.000 C 
ATOM     21  C   UNL     1      -0.458  14.218  22.260  0.00  0.00    +0.000 C 
ATOM     22  C   UNL     1      -1.678  15.134  22.271  0.00  0.00    +0.000 C 
ATOM     23  C   UNL     1      -2.718  14.866  21.192  0.00  0.00    +0.000 C 
ATOM     24  C   UNL     1      -3.327  13.469  21.242  0.00  0.00    +0.000 C 
ATOM     25  C   UNL     1      -2.449  12.430  20.551  0.00  0.00    +0.000 C 
ENDBRANCH   6  19
TORSDOF 2
ENDMDL
MODEL 9
REMARK VINA RESULT:      -7.2      2.517      4.001
REMARK  Name = 
REMARK  2 active torsions:
REMARK  status: ('A' for Active; 'I' for Inactive)
REMARK    1  A    between atoms: C_5  and  N_6
REMARK    2  A    between atoms: N_11  and  C_12
REMARK                            x       y       z     vdW  Elec       q    Type
REMARK                         _______ _______ _______ _____ _____    ______ ____
ROOT
ATOM      1  N   UNL     1       0.583  10.910  20.951  0.00  0.00    +0.000 N 
ATOM      2  N   UNL     1       0.661  10.245  22.146  0.00  0.00    +0.000 NA
ATOM      3  C   UNL     1       1.164   9.049  21.831  0.00  0.00    +0.000 A 
ATOM      4  C   UNL     1       1.432   8.900  20.460  0.00  0.00    +0.000 A 
ATOM      5  C   UNL     1       1.938   7.911  19.602  0.00  0.00    +0.000 A 
ATOM      6  N   UNL     1       2.340   6.645  20.038  0.00  0.00    +0.000 N 
ATOM      7  N   UNL     1       2.052   8.229  18.289  0.00  0.00    +0.000 NA
ATOM      8  C   UNL     1       1.678   9.450  17.868  0.00  0.00    +0.000 A 
ATOM      9  N   UNL     1       1.165  10.441  18.602  0.00  0.00    +0.000 NA
ATOM     10  C   UNL     1       1.058  10.116  19.905  0.00  0.00    +0.000 A 
ATOM     11  H   UNL     1       1.994   6.405  20.958  0.00  0.00    +0.000 HD
ENDROOT
BRANCH   1  16
ATOM     12  F   UNL     1      -1.326  16.137  20.684  0.00  0.00    +0.000 F 
ATOM     13  C   UNL     1      -0.872  14.879  20.766  0.00  0.00    +0.000 A 
ATOM     14  C   UNL     1       0.493  14.646  20.869  0.00  0.00    +0.000 A 
ATOM     15  C   UNL     1       0.970  13.332  20.945  0.00  0.00    +0.000 A 
ATOM     16  C   UNL     1       0.074  12.248  20.905  0.00  0.00    +0.000 A 
ATOM     17  C   UNL     1      -1.302  12.509  20.813  0.00  0.00    +0.000 A 
ATOM     18  C   UNL     1      -1.773  13.824  20.742  0.00  0.00    +0.000 A 
ENDBRANCH   1  16
BRANCH   6  19
ATOM     19  C   UNL     1       2.286   5.552  19.051  0.00  0.00    +0.000 C 
ATOM     20  C   UNL     1       3.695   5.300  18.489  0.00  0.00    +0.000 C 
ATOM     21  C   UNL     1       4.703   4.613  19.408  0.00  0.00    +0.000 C 
ATOM     22  C   UNL     1       4.589   3.091  19.455  0.00  0.00    +0.000 C 
ATOM     23  C   UNL     1       3.288   2.541  20.020  0.00  0.00    +0.000 C 
ATOM     24  C   UNL     1       2.042   2.963  19.250  0.00  0.00    +0.000 C 
ATOM     25  C   UNL     1       1.548   4.348  19.658  0.00  0.00    +0.000 C 
ENDBRANCH   6  19
TORSDOF 2
ENDMDL
