MODEL 1
REMARK VINA RESULT:      -6.9      0.000      0.000
REMARK  Name = 
REMARK  5 active torsions:
REMARK  status: ('A' for Active; 'I' for Inactive)
REMARK    1  A    between atoms: C_1  and  C_2
REMARK    2  A    between atoms: N_4  and  C_5
REMARK    3  A    between atoms: C_12  and  O_13
REMARK    4  A    between atoms: C_14  and  C_15
REMARK    5  A    between atoms: C_15  and  C_16
REMARK                            x       y       z     vdW  Elec       q    Type
REMARK                         _______ _______ _______ _____ _____    ______ ____
ROOT
ATOM      1  C   UNL     1       0.255   9.100  21.718  0.00  0.00    +0.000 C 
ATOM      2  C   UNL     1       1.058   8.698  20.536  0.00  0.00    +0.000 A 
ATOM      3  N   UNL     1       1.590   7.470  20.503  0.00  0.00    +0.000 NA
ATOM      4  N   UNL     1       2.241   7.411  19.327  0.00  0.00    +0.000 N 
ATOM      5  C   UNL     1       2.030   8.527  18.559  0.00  0.00    +0.000 A 
ATOM      6  C   UNL     1       1.355   9.433  19.355  0.00  0.00    +0.000 A 
ENDROOT
BRANCH   4   7
ATOM      7  C   UNL     1       3.076   6.238  19.107  0.00  0.00    +0.000 C 
ATOM      8  C   UNL     1       2.848   5.519  17.771  0.00  0.00    +0.000 C 
ATOM      9  C   UNL     1       1.732   4.503  17.958  0.00  0.00    +0.000 C 
ATOM     10  S   UNL     1       1.835   3.988  19.667  0.00  0.00    +0.000 S 
ATOM     11  O   UNL     1       2.457   2.686  19.732  0.00  0.00    +0.000 OA
ATOM     12  O   UNL     1       0.577   4.281  20.333  0.00  0.00    +0.000 OA
ATOM     13  C   UNL     1       3.007   5.205  20.219  0.00  0.00    +0.000 C 
ENDBRANCH   4   7
BRANCH   5  14
ATOM     14  O   UNL     1       2.465   8.703  17.319  0.00  0.00    +0.000 OA
ATOM     15  H   UNL     1       3.399   8.405  17.233  0.00  0.00    +0.000 HD
ENDBRANCH   5  14
BRANCH   6  16
ATOM     16  C   UNL     1       0.946  10.812  18.959  0.00  0.00    +0.000 C 
BRANCH  16  17
ATOM     17  C   UNL     1      -0.517  10.777  18.571  0.00  0.00    +0.000 A 
ATOM     18  C   UNL     1      -0.936   9.912  17.538  0.00  0.00    +0.000 A 
ATOM     19  C   UNL     1      -2.282   9.793  17.186  0.00  0.00    +0.000 A 
ATOM     20  C   UNL     1      -3.244  10.544  17.854  0.00  0.00    +0.000 A 
ATOM     21  C   UNL     1      -2.853  11.412  18.870  0.00  0.00    +0.000 A 
ATOM     22  C   UNL     1      -1.505  11.525  19.231  0.00  0.00    +0.000 A 
ATOM     23 CL   UNL     1      -1.141  12.580  20.550  0.00  0.00    +0.000 Cl
ENDBRANCH  16  17
ENDBRANCH   6  16
TORSDOF 4
ENDMDL
MODEL 2
REMARK VINA RESULT:      -6.8      3.782      6.070
REMARK  Name = 
REMARK  5 active torsions:
REMARK  status: ('A' for Active; 'I' for Inactive)
REMARK    1  A    between atoms: C_1  and  C_2
REMARK    2  A    between atoms: N_4  and  C_5
REMARK    3  A    between atoms: C_12  and  O_13
REMARK    4  A    between atoms: C_14  and  C_15
REMARK    5  A    between atoms: C_15  and  C_16
REMARK                            x       y       z     vdW  Elec       q    Type
REMARK                         _______ _______ _______ _____ _____    ______ ____
ROOT
ATOM      1  C   UNL     1       1.501   8.868  17.877  0.00  0.00    +0.000 C 
ATOM      2  C   UNL     1       2.598   7.878  18.011  0.00  0.00    +0.000 A 
ATOM      3  N   UNL     1       3.629   7.936  17.159  0.00  0.00    +0.000 NA
ATOM      4  N   UNL     1       4.441   6.930  17.535  0.00  0.00    +0.000 N 
ATOM      5  C   UNL     1       4.009   6.315  18.683  0.00  0.00    +0.000 A 
ATOM      6  C   UNL     1       2.758   6.832  18.961  0.00  0.00    +0.000 A 
ENDROOT
BRANCH   4   7
ATOM      7  C   UNL     1       5.565   6.641  16.656  0.00  0.00    +0.000 C 
ATOM      8  C   UNL     1       5.337   5.487  15.670  0.00  0.00    +0.000 C 
ATOM      9  C   UNL     1       5.732   4.188  16.353  0.00  0.00    +0.000 C 
ATOM     10  S   UNL     1       7.026   4.627  17.506  0.00  0.00    +0.000 S 
ATOM     11  O   UNL     1       8.303   4.232  16.957  0.00  0.00    +0.000 OA
ATOM     12  O   UNL     1       6.615   4.262  18.851  0.00  0.00    +0.000 OA
ATOM     13  C   UNL     1       6.877   6.394  17.380  0.00  0.00    +0.000 C 
ENDBRANCH   4   7
BRANCH   5  14
ATOM     14  O   UNL     1       4.657   5.360  19.336  0.00  0.00    +0.000 OA
ATOM     15  H   UNL     1       4.067   4.590  19.500  0.00  0.00    +0.000 HD
ENDBRANCH   5  14
BRANCH   6  16
ATOM     16  C   UNL     1       1.877   6.429  20.097  0.00  0.00    +0.000 C 
BRANCH  16  17
ATOM     17  C   UNL     1       1.859   4.917  20.165  0.00  0.00    +0.000 A 
ATOM     18  C   UNL     1       2.137   4.278  21.392  0.00  0.00    +0.000 A 
ATOM     19  C   UNL     1       2.069   2.889  21.525  0.00  0.00    +0.000 A 
ATOM     20  C   UNL     1       1.729   2.102  20.429  0.00  0.00    +0.000 A 
ATOM     21  C   UNL     1       1.460   2.709  19.205  0.00  0.00    +0.000 A 
ATOM     22  C   UNL     1       1.518   4.102  19.073  0.00  0.00    +0.000 A 
ATOM     23 CL   UNL     1       1.099   4.753  17.528  0.00  0.00    +0.000 Cl
ENDBRANCH  16  17
ENDBRANCH   6  16
TORSDOF 4
ENDMDL
MODEL 3
REMARK VINA RESULT:      -6.8      4.961      6.970
REMARK  Name = 
REMARK  5 active torsions:
REMARK  status: ('A' for Active; 'I' for Inactive)
REMARK    1  A    between atoms: C_1  and  C_2
REMARK    2  A    between atoms: N_4  and  C_5
REMARK    3  A    between atoms: C_12  and  O_13
REMARK    4  A    between atoms: C_14  and  C_15
REMARK    5  A    between atoms: C_15  and  C_16
REMARK                            x       y       z     vdW  Elec       q    Type
REMARK                         _______ _______ _______ _____ _____    ______ ____
ROOT
ATOM      1  C   UNL     1       3.273   7.389  17.786  0.00  0.00    +0.000 C 
ATOM      2  C   UNL     1       3.613   5.947  17.691  0.00  0.00    +0.000 A 
ATOM      3  N   UNL     1       2.849   5.059  18.338  0.00  0.00    +0.000 NA
ATOM      4  N   UNL     1       3.402   3.864  18.058  0.00  0.00    +0.000 N 
ATOM      5  C   UNL     1       4.424   3.964  17.148  0.00  0.00    +0.000 A 
ATOM      6  C   UNL     1       4.662   5.313  16.969  0.00  0.00    +0.000 A 
ENDROOT
BRANCH   4   7
ATOM      7  C   UNL     1       2.878   2.719  18.791  0.00  0.00    +0.000 C 
ATOM      8  C   UNL     1       1.352   2.563  18.745  0.00  0.00    +0.000 C 
ATOM      9  C   UNL     1       0.753   3.375  19.883  0.00  0.00    +0.000 C 
ATOM     10  S   UNL     1       1.985   3.365  21.178  0.00  0.00    +0.000 S 
ATOM     11  O   UNL     1       1.588   2.426  22.202  0.00  0.00    +0.000 OA
ATOM     12  O   UNL     1       2.369   4.732  21.487  0.00  0.00    +0.000 OA
ATOM     13  C   UNL     1       3.319   2.653  20.243  0.00  0.00    +0.000 C 
ENDBRANCH   4   7
BRANCH   5  14
ATOM     14  O   UNL     1       5.084   2.945  16.616  0.00  0.00    +0.000 OA
ATOM     15  H   UNL     1       5.967   2.844  17.040  0.00  0.00    +0.000 HD
ENDBRANCH   5  14
BRANCH   6  16
ATOM     16  C   UNL     1       5.717   5.907  16.096  0.00  0.00    +0.000 C 
BRANCH  16  17
ATOM     17  C   UNL     1       6.684   6.668  16.979  0.00  0.00    +0.000 A 
ATOM     18  C   UNL     1       6.708   8.077  16.921  0.00  0.00    +0.000 A 
ATOM     19  C   UNL     1       7.535   8.830  17.760  0.00  0.00    +0.000 A 
ATOM     20  C   UNL     1       8.365   8.188  18.674  0.00  0.00    +0.000 A 
ATOM     21  C   UNL     1       8.365   6.797  18.742  0.00  0.00    +0.000 A 
ATOM     22  C   UNL     1       7.530   6.042  17.909  0.00  0.00    +0.000 A 
ATOM     23 CL   UNL     1       7.561   4.329  18.126  0.00  0.00    +0.000 Cl
ENDBRANCH  16  17
ENDBRANCH   6  16
TORSDOF 4
ENDMDL
MODEL 4
REMARK VINA RESULT:      -6.6      5.502      8.061
REMARK  Name = 
REMARK  5 active torsions:
REMARK  status: ('A' for Active; 'I' for Inactive)
REMARK    1  A    between atoms: C_1  and  C_2
REMARK    2  A    between atoms: N_4  and  C_5
REMARK    3  A    between atoms: C_12  and  O_13
REMARK    4  A    between atoms: C_14  and  C_15
REMARK    5  A    between atoms: C_15  and  C_16
REMARK                            x       y       z     vdW  Elec       q    Type
REMARK                         _______ _______ _______ _____ _____    ______ ____
ROOT
ATOM      1  C   UNL     1       4.671   7.149  15.198  0.00  0.00    +0.000 C 
ATOM      2  C   UNL     1       5.011   6.246  16.326  0.00  0.00    +0.000 A 
ATOM      3  N   UNL     1       4.116   6.071  17.306  0.00  0.00    +0.000 NA
ATOM      4  N   UNL     1       4.706   5.211  18.158  0.00  0.00    +0.000 N 
ATOM      5  C   UNL     1       5.902   4.741  17.678  0.00  0.00    +0.000 A 
ATOM      6  C   UNL     1       6.185   5.473  16.540  0.00  0.00    +0.000 A 
ENDROOT
BRANCH   4   7
ATOM      7  C   UNL     1       4.024   4.984  19.425  0.00  0.00    +0.000 C 
ATOM      8  C   UNL     1       4.052   3.535  19.927  0.00  0.00    +0.000 C 
ATOM      9  C   UNL     1       2.864   2.798  19.328  0.00  0.00    +0.000 C 
ATOM     10  S   UNL     1       1.592   4.036  19.113  0.00  0.00    +0.000 S 
ATOM     11  O   UNL     1       0.611   3.894  20.164  0.00  0.00    +0.000 OA
ATOM     12  O   UNL     1       1.220   4.104  17.710  0.00  0.00    +0.000 OA
ATOM     13  C   UNL     1       2.585   5.470  19.455  0.00  0.00    +0.000 C 
ENDBRANCH   4   7
BRANCH   5  14
ATOM     14  O   UNL     1       6.653   3.814  18.256  0.00  0.00    +0.000 OA
ATOM     15  H   UNL     1       6.805   4.031  19.204  0.00  0.00    +0.000 HD
ENDBRANCH   5  14
BRANCH   6  16
ATOM     16  C   UNL     1       7.410   5.341  15.698  0.00  0.00    +0.000 C 
BRANCH  16  17
ATOM     17  C   UNL     1       7.015   4.691  14.390  0.00  0.00    +0.000 A 
ATOM     18  C   UNL     1       5.910   3.814  14.362  0.00  0.00    +0.000 A 
ATOM     19  C   UNL     1       5.463   3.238  13.169  0.00  0.00    +0.000 A 
ATOM     20  C   UNL     1       6.118   3.521  11.974  0.00  0.00    +0.000 A 
ATOM     21  C   UNL     1       7.217   4.376  11.979  0.00  0.00    +0.000 A 
ATOM     22  C   UNL     1       7.660   4.961  13.172  0.00  0.00    +0.000 A 
ATOM     23 CL   UNL     1       8.989   6.058  13.051  0.00  0.00    +0.000 Cl
ENDBRANCH  16  17
ENDBRANCH   6  16
TORSDOF 4
ENDMDL
MODEL 5
REMARK VINA RESULT:      -6.3      3.499      5.140
REMARK  Name = 
REMARK  5 active torsions:
REMARK  status: ('A' for Active; 'I' for Inactive)
REMARK    1  A    between atoms: C_1  and  C_2
REMARK    2  A    between atoms: N_4  and  C_5
REMARK    3  A    between atoms: C_12  and  O_13
REMARK    4  A    between atoms: C_14  and  C_15
REMARK    5  A    between atoms: C_15  and  C_16
REMARK                            x       y       z     vdW  Elec       q    Type
REMARK                         _______ _______ _______ _____ _____    ______ ____
ROOT
ATOM      1  C   UNL     1       1.102   4.056  17.826  0.00  0.00    +0.000 C 
ATOM      2  C   UNL     1       2.484   4.468  18.180  0.00  0.00    +0.000 A 
ATOM      3  N   UNL     1       3.504   4.006  17.447  0.00  0.00    +0.000 NA
ATOM      4  N   UNL     1       4.601   4.551  18.004  0.00  0.00    +0.000 N 
ATOM      5  C   UNL     1       4.290   5.446  18.996  0.00  0.00    +0.000 A 
ATOM      6  C   UNL     1       2.929   5.338  19.213  0.00  0.00    +0.000 A 
ENDROOT
BRANCH   4   7
ATOM      7  C   UNL     1       5.885   4.067  17.516  0.00  0.00    +0.000 C 
ATOM      8  C   UNL     1       7.103   4.874  17.984  0.00  0.00    +0.000 C 
ATOM      9  C   UNL     1       7.329   6.013  17.003  0.00  0.00    +0.000 C 
ATOM     10  S   UNL     1       6.746   5.409  15.424  0.00  0.00    +0.000 S 
ATOM     11  O   UNL     1       7.881   5.043  14.608  0.00  0.00    +0.000 OA
ATOM     12  O   UNL     1       5.689   6.280  14.938  0.00  0.00    +0.000 OA
ATOM     13  C   UNL     1       5.963   3.922  16.006  0.00  0.00    +0.000 C 
ENDBRANCH   4   7
BRANCH   5  14
ATOM     14  O   UNL     1       5.159   6.203  19.651  0.00  0.00    +0.000 OA
ATOM     15  H   UNL     1       5.996   6.293  19.140  0.00  0.00    +0.000 HD
ENDBRANCH   5  14
BRANCH   6  16
ATOM     16  C   UNL     1       2.143   6.091  20.233  0.00  0.00    +0.000 C 
BRANCH  16  17
ATOM     17  C   UNL     1       1.879   7.481  19.694  0.00  0.00    +0.000 A 
ATOM     18  C   UNL     1       2.217   7.777  18.356  0.00  0.00    +0.000 A 
ATOM     19  C   UNL     1       1.935   9.023  17.790  0.00  0.00    +0.000 A 
ATOM     20  C   UNL     1       1.314  10.008  18.552  0.00  0.00    +0.000 A 
ATOM     21  C   UNL     1       0.980   9.742  19.877  0.00  0.00    +0.000 A 
ATOM     22  C   UNL     1       1.253   8.490  20.443  0.00  0.00    +0.000 A 
ATOM     23 CL   UNL     1       0.734   8.246  22.073  0.00  0.00    +0.000 Cl
ENDBRANCH  16  17
ENDBRANCH   6  16
TORSDOF 4
ENDMDL
MODEL 6
REMARK VINA RESULT:      -6.3      3.831      6.644
REMARK  Name = 
REMARK  5 active torsions:
REMARK  status: ('A' for Active; 'I' for Inactive)
REMARK    1  A    between atoms: C_1  and  C_2
REMARK    2  A    between atoms: N_4  and  C_5
REMARK    3  A    between atoms: C_12  and  O_13
REMARK    4  A    between atoms: C_14  and  C_15
REMARK    5  A    between atoms: C_15  and  C_16
REMARK                            x       y       z     vdW  Elec       q    Type
REMARK                         _______ _______ _______ _____ _____    ______ ____
ROOT
ATOM      1  C   UNL     1       2.189   6.260  20.893  0.00  0.00    +0.000 C 
ATOM      2  C   UNL     1       1.939   7.382  19.956  0.00  0.00    +0.000 A 
ATOM      3  N   UNL     1       1.123   8.373  20.336  0.00  0.00    +0.000 NA
ATOM      4  N   UNL     1       1.105   9.222  19.292  0.00  0.00    +0.000 N 
ATOM      5  C   UNL     1       1.988   8.855  18.308  0.00  0.00    +0.000 A 
ATOM      6  C   UNL     1       2.469   7.607  18.655  0.00  0.00    +0.000 A 
ENDROOT
BRANCH   4   7
ATOM      7  C   UNL     1       0.141  10.312  19.358  0.00  0.00    +0.000 C 
ATOM      8  C   UNL     1       0.750  11.720  19.343  0.00  0.00    +0.000 C 
ATOM      9  C   UNL     1       1.072  12.117  20.775  0.00  0.00    +0.000 C 
ATOM     10  S   UNL     1      -0.135  11.275  21.789  0.00  0.00    +0.000 S 
ATOM     11  O   UNL     1      -1.148  12.219  22.202  0.00  0.00    +0.000 OA
ATOM     12  O   UNL     1       0.551  10.411  22.735  0.00  0.00    +0.000 OA
ATOM     13  C   UNL     1      -0.821  10.223  20.531  0.00  0.00    +0.000 C 
ENDBRANCH   4   7
BRANCH   5  14
ATOM     14  O   UNL     1       2.254   9.552  17.212  0.00  0.00    +0.000 OA
ATOM     15  H   UNL     1       2.824  10.326  17.422  0.00  0.00    +0.000 HD
ENDBRANCH   5  14
BRANCH   6  16
ATOM     16  C   UNL     1       3.429   6.786  17.859  0.00  0.00    +0.000 C 
BRANCH  16  17
ATOM     17  C   UNL     1       3.115   5.326  18.104  0.00  0.00    +0.000 A 
ATOM     18  C   UNL     1       1.871   4.808  17.688  0.00  0.00    +0.000 A 
ATOM     19  C   UNL     1       1.557   3.454  17.831  0.00  0.00    +0.000 A 
ATOM     20  C   UNL     1       2.481   2.584  18.402  0.00  0.00    +0.000 A 
ATOM     21  C   UNL     1       3.712   3.074  18.829  0.00  0.00    +0.000 A 
ATOM     22  C   UNL     1       4.032   4.429  18.677  0.00  0.00    +0.000 A 
ATOM     23 CL   UNL     1       5.612   4.914  19.178  0.00  0.00    +0.000 Cl
ENDBRANCH  16  17
ENDBRANCH   6  16
TORSDOF 4
ENDMDL
MODEL 7
REMARK VINA RESULT:      -6.2      1.203      1.321
REMARK  Name = 
REMARK  5 active torsions:
REMARK  status: ('A' for Active; 'I' for Inactive)
REMARK    1  A    between atoms: C_1  and  C_2
REMARK    2  A    between atoms: N_4  and  C_5
REMARK    3  A    between atoms: C_12  and  O_13
REMARK    4  A    between atoms: C_14  and  C_15
REMARK    5  A    between atoms: C_15  and  C_16
REMARK                            x       y       z     vdW  Elec       q    Type
REMARK                         _______ _______ _______ _____ _____    ______ ____
ROOT
ATOM      1  C   UNL     1       0.432   9.511  21.593  0.00  0.00    +0.000 C 
ATOM      2  C   UNL     1       1.145   8.626  20.638  0.00  0.00    +0.000 A 
ATOM      3  N   UNL     1       1.405   7.363  20.997  0.00  0.00    +0.000 NA
ATOM      4  N   UNL     1       2.042   6.830  19.938  0.00  0.00    +0.000 N 
ATOM      5  C   UNL     1       2.082   7.688  18.869  0.00  0.00    +0.000 A 
ATOM      6  C   UNL     1       1.605   8.904  19.321  0.00  0.00    +0.000 A 
ENDROOT
BRANCH   4   7
ATOM      7  C   UNL     1       2.612   5.503  20.125  0.00  0.00    +0.000 C 
ATOM      8  C   UNL     1       3.941   5.259  19.398  0.00  0.00    +0.000 C 
ATOM      9  C   UNL     1       3.635   4.765  17.993  0.00  0.00    +0.000 C 
ATOM     10  S   UNL     1       2.087   3.881  18.123  0.00  0.00    +0.000 S 
ATOM     11  O   UNL     1       2.349   2.461  18.109  0.00  0.00    +0.000 OA
ATOM     12  O   UNL     1       1.107   4.497  17.243  0.00  0.00    +0.000 OA
ATOM     13  C   UNL     1       1.667   4.364  19.782  0.00  0.00    +0.000 C 
ENDBRANCH   4   7
BRANCH   5  14
ATOM     14  O   UNL     1       2.558   7.399  17.666  0.00  0.00    +0.000 OA
ATOM     15  H   UNL     1       1.834   7.111  17.065  0.00  0.00    +0.000 HD
ENDBRANCH   5  14
BRANCH   6  16
ATOM     16  C   UNL     1       1.503  10.158  18.518  0.00  0.00    +0.000 C 
BRANCH  16  17
ATOM     17  C   UNL     1       0.037  10.515  18.387  0.00  0.00    +0.000 A 
ATOM     18  C   UNL     1      -0.820   9.657  17.666  0.00  0.00    +0.000 A 
ATOM     19  C   UNL     1      -2.192   9.906  17.571  0.00  0.00    +0.000 A 
ATOM     20  C   UNL     1      -2.739  11.027  18.189  0.00  0.00    +0.000 A 
ATOM     21  C   UNL     1      -1.910  11.893  18.897  0.00  0.00    +0.000 A 
ATOM     22  C   UNL     1      -0.537  11.639  19.002  0.00  0.00    +0.000 A 
ATOM     23 CL   UNL     1       0.385  12.741  19.962  0.00  0.00    +0.000 Cl
ENDBRANCH  16  17
ENDBRANCH   6  16
TORSDOF 4
ENDMDL
MODEL 8
REMARK VINA RESULT:      -6.1      3.607      6.693
REMARK  Name = 
REMARK  5 active torsions:
REMARK  status: ('A' for Active; 'I' for Inactive)
REMARK    1  A    between atoms: C_1  and  C_2
REMARK    2  A    between atoms: N_4  and  C_5
REMARK    3  A    between atoms: C_12  and  O_13
REMARK    4  A    between atoms: C_14  and  C_15
REMARK    5  A    between atoms: C_15  and  C_16
REMARK                            x       y       z     vdW  Elec       q    Type
REMARK                         _______ _______ _______ _____ _____    ______ ____
ROOT
ATOM      1  C   UNL     1       4.173   7.237  16.792  0.00  0.00    +0.000 C 
ATOM      2  C   UNL     1       3.167   7.639  17.806  0.00  0.00    +0.000 A 
ATOM      3  N   UNL     1       2.361   8.674  17.542  0.00  0.00    +0.000 NA
ATOM      4  N   UNL     1       1.576   8.783  18.630  0.00  0.00    +0.000 N 
ATOM      5  C   UNL     1       1.781   7.764  19.524  0.00  0.00    +0.000 A 
ATOM      6  C   UNL     1       2.883   7.061  19.075  0.00  0.00    +0.000 A 
ENDROOT
BRANCH   4   7
ATOM      7  C   UNL     1       0.717   9.958  18.695  0.00  0.00    +0.000 C 
ATOM      8  C   UNL     1       1.448  11.303  18.605  0.00  0.00    +0.000 C 
ATOM      9  C   UNL     1       1.865  11.716  20.008  0.00  0.00    +0.000 C 
ATOM     10  S   UNL     1       0.630  11.021  21.098  0.00  0.00    +0.000 S 
ATOM     11  O   UNL     1      -0.276  12.066  21.516  0.00  0.00    +0.000 OA
ATOM     12  O   UNL     1       1.275  10.129  22.047  0.00  0.00    +0.000 OA
ATOM     13  C   UNL     1      -0.199   9.995  19.906  0.00  0.00    +0.000 C 
ENDBRANCH   4   7
BRANCH   5  14
ATOM     14  O   UNL     1       1.086   7.560  20.635  0.00  0.00    +0.000 OA
ATOM     15  H   UNL     1       1.589   6.990  21.259  0.00  0.00    +0.000 HD
ENDBRANCH   5  14
BRANCH   6  16
ATOM     16  C   UNL     1       3.508   5.887  19.751  0.00  0.00    +0.000 C 
BRANCH  16  17
ATOM     17  C   UNL     1       2.673   4.664  19.439  0.00  0.00    +0.000 A 
ATOM     18  C   UNL     1       1.572   4.351  20.264  0.00  0.00    +0.000 A 
ATOM     19  C   UNL     1       0.731   3.272  19.983  0.00  0.00    +0.000 A 
ATOM     20  C   UNL     1       0.975   2.472  18.871  0.00  0.00    +0.000 A 
ATOM     21  C   UNL     1       2.061   2.756  18.047  0.00  0.00    +0.000 A 
ATOM     22  C   UNL     1       2.900   3.843  18.322  0.00  0.00    +0.000 A 
ATOM     23 CL   UNL     1       4.176   4.143  17.196  0.00  0.00    +0.000 Cl
ENDBRANCH  16  17
ENDBRANCH   6  16
TORSDOF 4
ENDMDL
MODEL 9
REMARK VINA RESULT:      -6.1      3.883      6.092
REMARK  Name = 
REMARK  5 active torsions:
REMARK  status: ('A' for Active; 'I' for Inactive)
REMARK    1  A    between atoms: C_1  and  C_2
REMARK    2  A    between atoms: N_4  and  C_5
REMARK    3  A    between atoms: C_12  and  O_13
REMARK    4  A    between atoms: C_14  and  C_15
REMARK    5  A    between atoms: C_15  and  C_16
REMARK                            x       y       z     vdW  Elec       q    Type
REMARK                         _______ _______ _______ _____ _____    ______ ____
ROOT
ATOM      1  C   UNL     1       1.232   8.551  18.188  0.00  0.00    +0.000 C 
ATOM      2  C   UNL     1       2.466   7.730  18.254  0.00  0.00    +0.000 A 
ATOM      3  N   UNL     1       3.493   8.041  17.454  0.00  0.00    +0.000 NA
ATOM      4  N   UNL     1       4.443   7.134  17.747  0.00  0.00    +0.000 N 
ATOM      5  C   UNL     1       4.089   6.332  18.802  0.00  0.00    +0.000 A 
ATOM      6  C   UNL     1       2.767   6.617  19.088  0.00  0.00    +0.000 A 
ENDROOT
BRANCH   4   7
ATOM      7  C   UNL     1       5.617   7.121  16.884  0.00  0.00    +0.000 C 
ATOM      8  C   UNL     1       5.351   6.701  15.433  0.00  0.00    +0.000 C 
ATOM      9  C   UNL     1       5.457   5.187  15.346  0.00  0.00    +0.000 C 
ATOM     10  S   UNL     1       6.642   4.717  16.599  0.00  0.00    +0.000 S 
ATOM     11  O   UNL     1       7.906   4.419  15.968  0.00  0.00    +0.000 OA
ATOM     12  O   UNL     1       6.010   3.806  17.539  0.00  0.00    +0.000 OA
ATOM     13  C   UNL     1       6.773   6.291  17.415  0.00  0.00    +0.000 C 
ENDBRANCH   4   7
BRANCH   5  14
ATOM     14  O   UNL     1       4.863   5.418  19.370  0.00  0.00    +0.000 OA
ATOM     15  H   UNL     1       5.541   5.094  18.734  0.00  0.00    +0.000 HD
ENDBRANCH   5  14
BRANCH   6  16
ATOM     16  C   UNL     1       1.936   5.958  20.137  0.00  0.00    +0.000 C 
BRANCH  16  17
ATOM     17  C   UNL     1       1.688   4.526  19.711  0.00  0.00    +0.000 A 
ATOM     18  C   UNL     1       1.354   4.255  18.367  0.00  0.00    +0.000 A 
ATOM     19  C   UNL     1       1.179   2.947  17.907  0.00  0.00    +0.000 A 
ATOM     20  C   UNL     1       1.326   1.877  18.784  0.00  0.00    +0.000 A 
ATOM     21  C   UNL     1       1.646   2.121  20.117  0.00  0.00    +0.000 A 
ATOM     22  C   UNL     1       1.831   3.431  20.578  0.00  0.00    +0.000 A 
ATOM     23 CL   UNL     1       2.292   3.614  22.233  0.00  0.00    +0.000 Cl
ENDBRANCH  16  17
ENDBRANCH   6  16
TORSDOF 4
ENDMDL
