MODEL 1
REMARK VINA RESULT:      -8.7      0.000      0.000
REMARK  Name = 
REMARK  6 active torsions:
REMARK  status: ('A' for Active; 'I' for Inactive)
REMARK    1  A    between atoms: C_1  and  C_2
REMARK    2  A    between atoms: C_7  and  N_8
REMARK    3  A    between atoms: N_11  and  S_12
REMARK    4  A    between atoms: S_12  and  C_15
REMARK    5  A    between atoms: C_18  and  N_19
REMARK    6  A    between atoms: C_25  and  C_26
REMARK                            x       y       z     vdW  Elec       q    Type
REMARK                         _______ _______ _______ _____ _____    ______ ____
ROOT
ATOM      1  N   UNL     1       1.670   8.670  18.401  0.00  0.00    +0.000 NA
ATOM      2  C   UNL     1       2.078   7.632  19.039  0.00  0.00    +0.000 C 
ATOM      3  N   UNL     1       2.179   7.414  20.371  0.00  0.00    +0.000 N 
ATOM      4  N   UNL     1       2.438   6.544  18.253  0.00  0.00    +0.000 N 
ATOM      5  H   UNL     1       1.554   8.030  20.893  0.00  0.00    +0.000 HD
ATOM      6  H   UNL     1       2.044   6.441  20.643  0.00  0.00    +0.000 HD
ATOM      7  H   UNL     1       2.218   6.616  17.262  0.00  0.00    +0.000 HD
ENDROOT
BRANCH   1  14
ATOM      8  C   UNL     1      -1.167  14.045  23.299  0.00  0.00    +0.000 C 
ATOM      9  C   UNL     1      -0.728  12.856  22.498  0.00  0.00    +0.000 A 
ATOM     10  C   UNL     1      -1.056  11.554  22.868  0.00  0.00    +0.000 A 
ATOM     11  C   UNL     1      -0.630  10.468  22.086  0.00  0.00    +0.000 A 
ATOM     12  C   UNL     1       0.130  10.634  20.931  0.00  0.00    +0.000 A 
ATOM     13  N   UNL     1       0.517   9.560  20.223  0.00  0.00    +0.000 NA
ATOM     14  C   UNL     1       1.248   9.786  19.125  0.00  0.00    +0.000 A 
ATOM     15  N   UNL     1       1.645  10.991  18.690  0.00  0.00    +0.000 NA
ATOM     16  C   UNL     1       1.249  12.058  19.409  0.00  0.00    +0.000 A 
ATOM     17  C   UNL     1       1.724  13.387  18.897  0.00  0.00    +0.000 C 
ATOM     18  C   UNL     1       0.465  11.944  20.560  0.00  0.00    +0.000 A 
ATOM     19  C   UNL     1       0.022  13.044  21.336  0.00  0.00    +0.000 A 
ENDBRANCH   1  14
BRANCH   4  20
ATOM     20  S   UNL     1       3.366   5.220  18.641  0.00  0.00    +0.000 S 
ATOM     21  O   UNL     1       4.188   5.555  19.786  0.00  0.00    +0.000 OA
ATOM     22  O   UNL     1       2.493   4.067  18.646  0.00  0.00    +0.000 OA
BRANCH  20  23
ATOM     23  C   UNL     1       4.415   5.070  17.210  0.00  0.00    +0.000 A 
ATOM     24  C   UNL     1       4.858   3.818  16.771  0.00  0.00    +0.000 A 
ATOM     25  C   UNL     1       5.686   3.736  15.644  0.00  0.00    +0.000 A 
ATOM     26  C   UNL     1       6.063   4.909  14.972  0.00  0.00    +0.000 A 
ATOM     27  C   UNL     1       5.600   6.161  15.402  0.00  0.00    +0.000 A 
ATOM     28  C   UNL     1       4.770   6.238  16.522  0.00  0.00    +0.000 A 
BRANCH  26  29
ATOM     29  N   UNL     1       6.958   4.831  13.810  0.00  0.00    +0.000 N 
ATOM     30  O   UNL     1       6.689   4.002  12.930  0.00  0.00    +0.000 OA
ATOM     31  O   UNL     1       7.934   5.595  13.780  0.00  0.00    +0.000 OA
ENDBRANCH  26  29
ENDBRANCH  20  23
ENDBRANCH   4  20
TORSDOF 4
ENDMDL
MODEL 2
REMARK VINA RESULT:      -8.7      0.112      1.097
REMARK  Name = 
REMARK  6 active torsions:
REMARK  status: ('A' for Active; 'I' for Inactive)
REMARK    1  A    between atoms: C_1  and  C_2
REMARK    2  A    between atoms: C_7  and  N_8
REMARK    3  A    between atoms: N_11  and  S_12
REMARK    4  A    between atoms: S_12  and  C_15
REMARK    5  A    between atoms: C_18  and  N_19
REMARK    6  A    between atoms: C_25  and  C_26
REMARK                            x       y       z     vdW  Elec       q    Type
REMARK                         _______ _______ _______ _____ _____    ______ ____
ROOT
ATOM      1  N   UNL     1       1.651   8.611  18.415  0.00  0.00    +0.000 NA
ATOM      2  C   UNL     1       2.103   7.584  19.041  0.00  0.00    +0.000 C 
ATOM      3  N   UNL     1       2.245   7.368  20.370  0.00  0.00    +0.000 N 
ATOM      4  N   UNL     1       2.472   6.505  18.245  0.00  0.00    +0.000 N 
ATOM      5  H   UNL     1       1.618   7.967  20.908  0.00  0.00    +0.000 HD
ATOM      6  H   UNL     1       2.143   6.392  20.644  0.00  0.00    +0.000 HD
ATOM      7  H   UNL     1       2.225   6.572  17.260  0.00  0.00    +0.000 HD
ENDROOT
BRANCH   1  14
ATOM      8  C   UNL     1      -1.239  13.907  23.366  0.00  0.00    +0.000 C 
ATOM      9  C   UNL     1      -0.789  12.730  22.553  0.00  0.00    +0.000 A 
ATOM     10  C   UNL     1      -1.107  11.422  22.907  0.00  0.00    +0.000 A 
ATOM     11  C   UNL     1      -0.671  10.348  22.115  0.00  0.00    +0.000 A 
ATOM     12  C   UNL     1       0.090  10.533  20.963  0.00  0.00    +0.000 A 
ATOM     13  N   UNL     1       0.487   9.470  20.244  0.00  0.00    +0.000 NA
ATOM     14  C   UNL     1       1.219   9.715  19.150  0.00  0.00    +0.000 A 
ATOM     15  N   UNL     1       1.607  10.927  18.729  0.00  0.00    +0.000 NA
ATOM     16  C   UNL     1       1.201  11.983  19.459  0.00  0.00    +0.000 A 
ATOM     17  C   UNL     1       1.666  13.322  18.963  0.00  0.00    +0.000 C 
ATOM     18  C   UNL     1       0.415  11.850  20.608  0.00  0.00    +0.000 A 
ATOM     19  C   UNL     1      -0.039  12.937  21.394  0.00  0.00    +0.000 A 
ENDBRANCH   1  14
BRANCH   4  20
ATOM     20  S   UNL     1       3.445   5.207  18.608  0.00  0.00    +0.000 S 
ATOM     21  O   UNL     1       4.263   5.551  19.753  0.00  0.00    +0.000 OA
ATOM     22  O   UNL     1       2.610   4.026  18.601  0.00  0.00    +0.000 OA
BRANCH  20  23
ATOM     23  C   UNL     1       4.489   5.111  17.168  0.00  0.00    +0.000 A 
ATOM     24  C   UNL     1       4.886   6.268  16.490  0.00  0.00    +0.000 A 
ATOM     25  C   UNL     1       5.704   6.156  15.358  0.00  0.00    +0.000 A 
ATOM     26  C   UNL     1       6.113   4.887  14.918  0.00  0.00    +0.000 A 
ATOM     27  C   UNL     1       5.730   3.731  15.614  0.00  0.00    +0.000 A 
ATOM     28  C   UNL     1       4.920   3.847  16.744  0.00  0.00    +0.000 A 
BRANCH  26  29
ATOM     29  N   UNL     1       6.943   4.763  13.713  0.00  0.00    +0.000 N 
ATOM     30  O   UNL     1       7.897   5.544  13.587  0.00  0.00    +0.000 OA
ATOM     31  O   UNL     1       6.638   3.888  12.888  0.00  0.00    +0.000 OA
ENDBRANCH  26  29
ENDBRANCH  20  23
ENDBRANCH   4  20
TORSDOF 4
ENDMDL
MODEL 3
REMARK VINA RESULT:      -8.6      6.111      8.108
REMARK  Name = 
REMARK  6 active torsions:
REMARK  status: ('A' for Active; 'I' for Inactive)
REMARK    1  A    between atoms: C_1  and  C_2
REMARK    2  A    between atoms: C_7  and  N_8
REMARK    3  A    between atoms: N_11  and  S_12
REMARK    4  A    between atoms: S_12  and  C_15
REMARK    5  A    between atoms: C_18  and  N_19
REMARK    6  A    between atoms: C_25  and  C_26
REMARK                            x       y       z     vdW  Elec       q    Type
REMARK                         _______ _______ _______ _____ _____    ______ ____
ROOT
ATOM      1  N   UNL     1       8.107   8.931  17.628  0.00  0.00    +0.000 NA
ATOM      2  C   UNL     1       8.097   7.774  18.188  0.00  0.00    +0.000 C 
ATOM      3  N   UNL     1       8.678   7.360  19.338  0.00  0.00    +0.000 N 
ATOM      4  N   UNL     1       7.348   6.797  17.541  0.00  0.00    +0.000 N 
ATOM      5  H   UNL     1       8.855   8.147  19.963  0.00  0.00    +0.000 HD
ATOM      6  H   UNL     1       8.166   6.620  19.817  0.00  0.00    +0.000 HD
ATOM      7  H   UNL     1       6.769   7.117  16.769  0.00  0.00    +0.000 HD
ENDROOT
BRANCH   1  14
ATOM      8  C   UNL     1      12.332  15.104  19.857  0.00  0.00    +0.000 C 
ATOM      9  C   UNL     1      11.601  13.964  19.213  0.00  0.00    +0.000 A 
ATOM     10  C   UNL     1      11.675  13.718  17.844  0.00  0.00    +0.000 A 
ATOM     11  C   UNL     1      10.979  12.637  17.281  0.00  0.00    +0.000 A 
ATOM     12  C   UNL     1      10.193  11.777  18.045  0.00  0.00    +0.000 A 
ATOM     13  N   UNL     1       9.543  10.761  17.454  0.00  0.00    +0.000 NA
ATOM     14  C   UNL     1       8.801   9.974  18.243  0.00  0.00    +0.000 A 
ATOM     15  N   UNL     1       8.635  10.132  19.564  0.00  0.00    +0.000 NA
ATOM     16  C   UNL     1       9.292  11.154  20.142  0.00  0.00    +0.000 A 
ATOM     17  C   UNL     1       9.071  11.305  21.619  0.00  0.00    +0.000 C 
ATOM     18  C   UNL     1      10.113  12.027  19.422  0.00  0.00    +0.000 A 
ATOM     19  C   UNL     1      10.828  13.106  19.997  0.00  0.00    +0.000 A 
ENDBRANCH   1  14
BRANCH   4  20
ATOM     20  S   UNL     1       7.407   5.143  17.698  0.00  0.00    +0.000 S 
ATOM     21  O   UNL     1       7.870   4.579  16.447  0.00  0.00    +0.000 OA
ATOM     22  O   UNL     1       8.066   4.851  18.952  0.00  0.00    +0.000 OA
BRANCH  20  23
ATOM     23  C   UNL     1       5.688   4.729  17.909  0.00  0.00    +0.000 A 
ATOM     24  C   UNL     1       5.022   5.011  19.106  0.00  0.00    +0.000 A 
ATOM     25  C   UNL     1       3.670   4.667  19.240  0.00  0.00    +0.000 A 
ATOM     26  C   UNL     1       3.003   4.044  18.173  0.00  0.00    +0.000 A 
ATOM     27  C   UNL     1       3.668   3.783  16.967  0.00  0.00    +0.000 A 
ATOM     28  C   UNL     1       5.013   4.132  16.835  0.00  0.00    +0.000 A 
BRANCH  26  29
ATOM     29  N   UNL     1       1.595   3.652  18.321  0.00  0.00    +0.000 N 
ATOM     30  O   UNL     1       0.821   3.919  17.390  0.00  0.00    +0.000 OA
ATOM     31  O   UNL     1       1.261   3.082  19.370  0.00  0.00    +0.000 OA
ENDBRANCH  26  29
ENDBRANCH  20  23
ENDBRANCH   4  20
TORSDOF 4
ENDMDL
MODEL 4
REMARK VINA RESULT:      -8.5      4.450     10.368
REMARK  Name = 
REMARK  6 active torsions:
REMARK  status: ('A' for Active; 'I' for Inactive)
REMARK    1  A    between atoms: C_1  and  C_2
REMARK    2  A    between atoms: C_7  and  N_8
REMARK    3  A    between atoms: N_11  and  S_12
REMARK    4  A    between atoms: S_12  and  C_15
REMARK    5  A    between atoms: C_18  and  N_19
REMARK    6  A    between atoms: C_25  and  C_26
REMARK                            x       y       z     vdW  Elec       q    Type
REMARK                         _______ _______ _______ _____ _____    ______ ____
ROOT
ATOM      1  N   UNL     1       1.831   8.227  19.746  0.00  0.00    +0.000 NA
ATOM      2  C   UNL     1       1.211   9.173  19.135  0.00  0.00    +0.000 C 
ATOM      3  N   UNL     1       1.048   9.391  17.809  0.00  0.00    +0.000 N 
ATOM      4  N   UNL     1       0.572  10.101  19.950  0.00  0.00    +0.000 N 
ATOM      5  H   UNL     1       1.159   8.526  17.278  0.00  0.00    +0.000 HD
ATOM      6  H   UNL     1       0.174   9.857  17.571  0.00  0.00    +0.000 HD
ATOM      7  H   UNL     1       0.536   9.874  20.941  0.00  0.00    +0.000 HD
ENDROOT
BRANCH   1  14
ATOM      8  C   UNL     1       6.026   3.646  15.019  0.00  0.00    +0.000 C 
ATOM      9  C   UNL     1       5.327   4.705  15.818  0.00  0.00    +0.000 A 
ATOM     10  C   UNL     1       5.576   6.061  15.625  0.00  0.00    +0.000 A 
ATOM     11  C   UNL     1       4.895   7.021  16.390  0.00  0.00    +0.000 A 
ATOM     12  C   UNL     1       3.961   6.674  17.363  0.00  0.00    +0.000 A 
ATOM     13  N   UNL     1       3.342   7.633  18.071  0.00  0.00    +0.000 NA
ATOM     14  C   UNL     1       2.458   7.233  18.994  0.00  0.00    +0.000 A 
ATOM     15  N   UNL     1       2.160   5.959  19.283  0.00  0.00    +0.000 NA
ATOM     16  C   UNL     1       2.787   5.008  18.565  0.00  0.00    +0.000 A 
ATOM     17  C   UNL     1       2.436   3.595  18.928  0.00  0.00    +0.000 C 
ATOM     18  C   UNL     1       3.713   5.308  17.561  0.00  0.00    +0.000 A 
ATOM     19  C   UNL     1       4.384   4.337  16.779  0.00  0.00    +0.000 A 
ENDBRANCH   1  14
BRANCH   4  20
ATOM     20  S   UNL     1       0.036  11.632  19.589  0.00  0.00    +0.000 S 
ATOM     21  O   UNL     1       1.149  12.551  19.722  0.00  0.00    +0.000 OA
ATOM     22  O   UNL     1      -0.734  11.545  18.368  0.00  0.00    +0.000 OA
BRANCH  20  23
ATOM     23  C   UNL     1      -1.119  11.941  20.909  0.00  0.00    +0.000 A 
ATOM     24  C   UNL     1      -2.332  12.594  20.665  0.00  0.00    +0.000 A 
ATOM     25  C   UNL     1      -3.215  12.825  21.727  0.00  0.00    +0.000 A 
ATOM     26  C   UNL     1      -2.873  12.401  23.021  0.00  0.00    +0.000 A 
ATOM     27  C   UNL     1      -1.666  11.728  23.258  0.00  0.00    +0.000 A 
ATOM     28  C   UNL     1      -0.791  11.494  22.196  0.00  0.00    +0.000 A 
BRANCH  26  29
ATOM     29  N   UNL     1      -3.782  12.671  24.143  0.00  0.00    +0.000 N 
ATOM     30  O   UNL     1      -4.706  11.870  24.342  0.00  0.00    +0.000 OA
ATOM     31  O   UNL     1      -3.575  13.688  24.822  0.00  0.00    +0.000 OA
ENDBRANCH  26  29
ENDBRANCH  20  23
ENDBRANCH   4  20
TORSDOF 4
ENDMDL
MODEL 5
REMARK VINA RESULT:      -8.5      4.430     10.368
REMARK  Name = 
REMARK  6 active torsions:
REMARK  status: ('A' for Active; 'I' for Inactive)
REMARK    1  A    between atoms: C_1  and  C_2
REMARK    2  A    between atoms: C_7  and  N_8
REMARK    3  A    between atoms: N_11  and  S_12
REMARK    4  A    between atoms: S_12  and  C_15
REMARK    5  A    between atoms: C_18  and  N_19
REMARK    6  A    between atoms: C_25  and  C_26
REMARK                            x       y       z     vdW  Elec       q    Type
REMARK                         _______ _______ _______ _____ _____    ______ ____
ROOT
ATOM      1  N   UNL     1       1.844   8.164  19.731  0.00  0.00    +0.000 NA
ATOM      2  C   UNL     1       1.239   9.129  19.135  0.00  0.00    +0.000 C 
ATOM      3  N   UNL     1       1.090   9.377  17.812  0.00  0.00    +0.000 N 
ATOM      4  N   UNL     1       0.603  10.047  19.963  0.00  0.00    +0.000 N 
ATOM      5  H   UNL     1       1.196   8.522  17.265  0.00  0.00    +0.000 HD
ATOM      6  H   UNL     1       0.223   9.858  17.577  0.00  0.00    +0.000 HD
ATOM      7  H   UNL     1       0.556   9.800  20.949  0.00  0.00    +0.000 HD
ENDROOT
BRANCH   1  14
ATOM      8  C   UNL     1       6.037   3.635  14.953  0.00  0.00    +0.000 C 
ATOM      9  C   UNL     1       5.342   4.685  15.768  0.00  0.00    +0.000 A 
ATOM     10  C   UNL     1       5.616   6.042  15.613  0.00  0.00    +0.000 A 
ATOM     11  C   UNL     1       4.938   6.993  16.391  0.00  0.00    +0.000 A 
ATOM     12  C   UNL     1       3.984   6.637  17.341  0.00  0.00    +0.000 A 
ATOM     13  N   UNL     1       3.370   7.588  18.064  0.00  0.00    +0.000 NA
ATOM     14  C   UNL     1       2.466   7.180  18.963  0.00  0.00    +0.000 A 
ATOM     15  N   UNL     1       2.144   5.903  19.216  0.00  0.00    +0.000 NA
ATOM     16  C   UNL     1       2.766   4.961  18.484  0.00  0.00    +0.000 A 
ATOM     17  C   UNL     1       2.387   3.544  18.806  0.00  0.00    +0.000 C 
ATOM     18  C   UNL     1       3.712   5.271  17.502  0.00  0.00    +0.000 A 
ATOM     19  C   UNL     1       4.380   4.308  16.705  0.00  0.00    +0.000 A 
ENDBRANCH   1  14
BRANCH   4  20
ATOM     20  S   UNL     1       0.088  11.592  19.631  0.00  0.00    +0.000 S 
ATOM     21  O   UNL     1       1.220  12.489  19.742  0.00  0.00    +0.000 OA
ATOM     22  O   UNL     1      -0.716  11.530  18.430  0.00  0.00    +0.000 OA
BRANCH  20  23
ATOM     23  C   UNL     1      -1.026  11.910  20.983  0.00  0.00    +0.000 A 
ATOM     24  C   UNL     1      -0.802  11.353  22.246  0.00  0.00    +0.000 A 
ATOM     25  C   UNL     1      -1.701  11.621  23.287  0.00  0.00    +0.000 A 
ATOM     26  C   UNL     1      -2.815  12.442  23.049  0.00  0.00    +0.000 A 
ATOM     27  C   UNL     1      -3.025  13.016  21.788  0.00  0.00    +0.000 A 
ATOM     28  C   UNL     1      -2.124  12.752  20.755  0.00  0.00    +0.000 A 
BRANCH  26  29
ATOM     29  N   UNL     1      -3.778  12.698  24.129  0.00  0.00    +0.000 N 
ATOM     30  O   UNL     1      -3.673  13.762  24.754  0.00  0.00    +0.000 OA
ATOM     31  O   UNL     1      -4.636  11.832  24.355  0.00  0.00    +0.000 OA
ENDBRANCH  26  29
ENDBRANCH  20  23
ENDBRANCH   4  20
TORSDOF 4
ENDMDL
MODEL 6
REMARK VINA RESULT:      -8.4      1.229      2.014
REMARK  Name = 
REMARK  6 active torsions:
REMARK  status: ('A' for Active; 'I' for Inactive)
REMARK    1  A    between atoms: C_1  and  C_2
REMARK    2  A    between atoms: C_7  and  N_8
REMARK    3  A    between atoms: N_11  and  S_12
REMARK    4  A    between atoms: S_12  and  C_15
REMARK    5  A    between atoms: C_18  and  N_19
REMARK    6  A    between atoms: C_25  and  C_26
REMARK                            x       y       z     vdW  Elec       q    Type
REMARK                         _______ _______ _______ _____ _____    ______ ____
ROOT
ATOM      1  N   UNL     1       1.883   8.481  18.939  0.00  0.00    +0.000 NA
ATOM      2  C   UNL     1       2.215   7.306  19.340  0.00  0.00    +0.000 C 
ATOM      3  N   UNL     1       1.890   6.651  20.479  0.00  0.00    +0.000 N 
ATOM      4  N   UNL     1       2.999   6.567  18.460  0.00  0.00    +0.000 N 
ATOM      5  H   UNL     1       1.031   7.025  20.884  0.00  0.00    +0.000 HD
ATOM      6  H   UNL     1       1.835   5.639  20.373  0.00  0.00    +0.000 HD
ATOM      7  H   UNL     1       3.122   6.963  17.531  0.00  0.00    +0.000 HD
ENDROOT
BRANCH   1  14
ATOM      8  C   UNL     1      -3.171  13.353  22.350  0.00  0.00    +0.000 C 
ATOM      9  C   UNL     1      -2.263  12.522  21.494  0.00  0.00    +0.000 A 
ATOM     10  C   UNL     1      -2.203  12.678  20.112  0.00  0.00    +0.000 A 
ATOM     11  C   UNL     1      -1.334  11.884  19.347  0.00  0.00    +0.000 A 
ATOM     12  C   UNL     1      -0.511  10.917  19.918  0.00  0.00    +0.000 A 
ATOM     13  N   UNL     1       0.297  10.179  19.139  0.00  0.00    +0.000 NA
ATOM     14  C   UNL     1       1.060   9.263  19.749  0.00  0.00    +0.000 A 
ATOM     15  N   UNL     1       1.065   9.008  21.065  0.00  0.00    +0.000 NA
ATOM     16  C   UNL     1       0.250   9.755  21.833  0.00  0.00    +0.000 A 
ATOM     17  C   UNL     1       0.275   9.430  23.299  0.00  0.00    +0.000 C 
ATOM     18  C   UNL     1      -0.574  10.755  21.310  0.00  0.00    +0.000 A 
ATOM     19  C   UNL     1      -1.436  11.567  22.087  0.00  0.00    +0.000 A 
ENDBRANCH   1  14
BRANCH   4  20
ATOM     20  S   UNL     1       3.945   5.232  18.753  0.00  0.00    +0.000 S 
ATOM     21  O   UNL     1       4.917   5.571  19.772  0.00  0.00    +0.000 OA
ATOM     22  O   UNL     1       3.059   4.098  18.897  0.00  0.00    +0.000 OA
BRANCH  20  23
ATOM     23  C   UNL     1       4.794   5.031  17.200  0.00  0.00    +0.000 A 
ATOM     24  C   UNL     1       5.239   3.773  16.781  0.00  0.00    +0.000 A 
ATOM     25  C   UNL     1       5.907   3.651  15.556  0.00  0.00    +0.000 A 
ATOM     26  C   UNL     1       6.124   4.792  14.766  0.00  0.00    +0.000 A 
ATOM     27  C   UNL     1       5.657   6.048  15.179  0.00  0.00    +0.000 A 
ATOM     28  C   UNL     1       4.986   6.164  16.398  0.00  0.00    +0.000 A 
BRANCH  26  29
ATOM     29  N   UNL     1       6.853   4.675  13.497  0.00  0.00    +0.000 N 
ATOM     30  O   UNL     1       7.744   5.504  13.264  0.00  0.00    +0.000 OA
ATOM     31  O   UNL     1       6.532   3.756  12.728  0.00  0.00    +0.000 OA
ENDBRANCH  26  29
ENDBRANCH  20  23
ENDBRANCH   4  20
TORSDOF 4
ENDMDL
MODEL 7
REMARK VINA RESULT:      -8.3      4.311      9.586
REMARK  Name = 
REMARK  6 active torsions:
REMARK  status: ('A' for Active; 'I' for Inactive)
REMARK    1  A    between atoms: C_1  and  C_2
REMARK    2  A    between atoms: C_7  and  N_8
REMARK    3  A    between atoms: N_11  and  S_12
REMARK    4  A    between atoms: S_12  and  C_15
REMARK    5  A    between atoms: C_18  and  N_19
REMARK    6  A    between atoms: C_25  and  C_26
REMARK                            x       y       z     vdW  Elec       q    Type
REMARK                         _______ _______ _______ _____ _____    ______ ____
ROOT
ATOM      1  N   UNL     1       1.998   7.629  19.766  0.00  0.00    +0.000 NA
ATOM      2  C   UNL     1       1.571   8.752  19.309  0.00  0.00    +0.000 C 
ATOM      3  N   UNL     1       1.616   9.252  18.052  0.00  0.00    +0.000 N 
ATOM      4  N   UNL     1       0.927   9.573  20.229  0.00  0.00    +0.000 N 
ATOM      5  H   UNL     1       1.707   8.505  17.363  0.00  0.00    +0.000 HD
ATOM      6  H   UNL     1       0.836   9.868  17.824  0.00  0.00    +0.000 HD
ATOM      7  H   UNL     1       0.731   9.158  21.136  0.00  0.00    +0.000 HD
ENDROOT
BRANCH   1  14
ATOM      8  C   UNL     1       6.252   3.606  14.604  0.00  0.00    +0.000 C 
ATOM      9  C   UNL     1       5.564   4.564  15.531  0.00  0.00    +0.000 A 
ATOM     10  C   UNL     1       5.934   5.904  15.616  0.00  0.00    +0.000 A 
ATOM     11  C   UNL     1       5.260   6.769  16.492  0.00  0.00    +0.000 A 
ATOM     12  C   UNL     1       4.215   6.340  17.307  0.00  0.00    +0.000 A 
ATOM     13  N   UNL     1       3.609   7.209  18.132  0.00  0.00    +0.000 NA
ATOM     14  C   UNL     1       2.614   6.734  18.892  0.00  0.00    +0.000 A 
ATOM     15  N   UNL     1       2.193   5.461  18.913  0.00  0.00    +0.000 NA
ATOM     16  C   UNL     1       2.809   4.602  18.080  0.00  0.00    +0.000 A 
ATOM     17  C   UNL     1       2.318   3.185  18.142  0.00  0.00    +0.000 C 
ATOM     18  C   UNL     1       3.845   4.990  17.225  0.00  0.00    +0.000 A 
ATOM     19  C   UNL     1       4.510   4.118  16.329  0.00  0.00    +0.000 A 
ENDBRANCH   1  14
BRANCH   4  20
ATOM     20  S   UNL     1       0.611  11.202  20.151  0.00  0.00    +0.000 S 
ATOM     21  O   UNL     1       0.541  11.722  21.501  0.00  0.00    +0.000 OA
ATOM     22  O   UNL     1       1.503  11.770  19.165  0.00  0.00    +0.000 OA
BRANCH  20  23
ATOM     23  C   UNL     1      -1.024  11.229  19.445  0.00  0.00    +0.000 A 
ATOM     24  C   UNL     1      -1.379  10.349  18.418  0.00  0.00    +0.000 A 
ATOM     25  C   UNL     1      -2.672  10.400  17.882  0.00  0.00    +0.000 A 
ATOM     26  C   UNL     1      -3.595  11.334  18.380  0.00  0.00    +0.000 A 
ATOM     27  C   UNL     1      -3.242  12.200  19.425  0.00  0.00    +0.000 A 
ATOM     28  C   UNL     1      -1.954  12.142  19.960  0.00  0.00    +0.000 A 
BRANCH  26  29
ATOM     29  N   UNL     1      -4.941  11.413  17.799  0.00  0.00    +0.000 N 
ATOM     30  O   UNL     1      -5.111  12.179  16.840  0.00  0.00    +0.000 OA
ATOM     31  O   UNL     1      -5.831  10.714  18.306  0.00  0.00    +0.000 OA
ENDBRANCH  26  29
ENDBRANCH  20  23
ENDBRANCH   4  20
TORSDOF 4
ENDMDL
MODEL 8
REMARK VINA RESULT:      -8.3      4.310      9.614
REMARK  Name = 
REMARK  6 active torsions:
REMARK  status: ('A' for Active; 'I' for Inactive)
REMARK    1  A    between atoms: C_1  and  C_2
REMARK    2  A    between atoms: C_7  and  N_8
REMARK    3  A    between atoms: N_11  and  S_12
REMARK    4  A    between atoms: S_12  and  C_15
REMARK    5  A    between atoms: C_18  and  N_19
REMARK    6  A    between atoms: C_25  and  C_26
REMARK                            x       y       z     vdW  Elec       q    Type
REMARK                         _______ _______ _______ _____ _____    ______ ____
ROOT
ATOM      1  N   UNL     1       1.983   7.705  19.726  0.00  0.00    +0.000 NA
ATOM      2  C   UNL     1       1.592   8.839  19.263  0.00  0.00    +0.000 C 
ATOM      3  N   UNL     1       1.678   9.342  18.009  0.00  0.00    +0.000 N 
ATOM      4  N   UNL     1       0.944   9.670  20.170  0.00  0.00    +0.000 N 
ATOM      5  H   UNL     1       1.769   8.596  17.319  0.00  0.00    +0.000 HD
ATOM      6  H   UNL     1       0.918   9.976  17.765  0.00  0.00    +0.000 HD
ATOM      7  H   UNL     1       0.717   9.257  21.071  0.00  0.00    +0.000 HD
ENDROOT
BRANCH   1  14
ATOM      8  C   UNL     1       6.296   3.594  14.685  0.00  0.00    +0.000 C 
ATOM      9  C   UNL     1       5.608   4.564  15.598  0.00  0.00    +0.000 A 
ATOM     10  C   UNL     1       6.030   5.885  15.726  0.00  0.00    +0.000 A 
ATOM     11  C   UNL     1       5.354   6.763  16.587  0.00  0.00    +0.000 A 
ATOM     12  C   UNL     1       4.255   6.365  17.345  0.00  0.00    +0.000 A 
ATOM     13  N   UNL     1       3.649   7.245  18.159  0.00  0.00    +0.000 NA
ATOM     14  C   UNL     1       2.600   6.800  18.863  0.00  0.00    +0.000 A 
ATOM     15  N   UNL     1       2.125   5.546  18.840  0.00  0.00    +0.000 NA
ATOM     16  C   UNL     1       2.742   4.676  18.019  0.00  0.00    +0.000 A 
ATOM     17  C   UNL     1       2.188   3.280  18.031  0.00  0.00    +0.000 C 
ATOM     18  C   UNL     1       3.832   5.034  17.220  0.00  0.00    +0.000 A 
ATOM     19  C   UNL     1       4.500   4.150  16.338  0.00  0.00    +0.000 A 
ENDBRANCH   1  14
BRANCH   4  20
ATOM     20  S   UNL     1       0.665  11.307  20.091  0.00  0.00    +0.000 S 
ATOM     21  O   UNL     1       0.661  11.838  21.439  0.00  0.00    +0.000 OA
ATOM     22  O   UNL     1       1.533  11.845  19.067  0.00  0.00    +0.000 OA
BRANCH  20  23
ATOM     23  C   UNL     1      -0.995  11.369  19.448  0.00  0.00    +0.000 A 
ATOM     24  C   UNL     1      -1.949  12.228  20.003  0.00  0.00    +0.000 A 
ATOM     25  C   UNL     1      -3.247  12.249  19.476  0.00  0.00    +0.000 A 
ATOM     26  C   UNL     1      -3.574  11.407  18.400  0.00  0.00    +0.000 A 
ATOM     27  C   UNL     1      -2.608  10.564  17.833  0.00  0.00    +0.000 A 
ATOM     28  C   UNL     1      -1.315  10.550  18.357  0.00  0.00    +0.000 A 
BRANCH  26  29
ATOM     29  N   UNL     1      -4.942  11.402  17.866  0.00  0.00    +0.000 N 
ATOM     30  O   UNL     1      -5.760  10.629  18.384  0.00  0.00    +0.000 OA
ATOM     31  O   UNL     1      -5.197  12.166  16.923  0.00  0.00    +0.000 OA
ENDBRANCH  26  29
ENDBRANCH  20  23
ENDBRANCH   4  20
TORSDOF 4
ENDMDL
MODEL 9
REMARK VINA RESULT:      -8.2      1.086      1.363
REMARK  Name = 
REMARK  6 active torsions:
REMARK  status: ('A' for Active; 'I' for Inactive)
REMARK    1  A    between atoms: C_1  and  C_2
REMARK    2  A    between atoms: C_7  and  N_8
REMARK    3  A    between atoms: N_11  and  S_12
REMARK    4  A    between atoms: S_12  and  C_15
REMARK    5  A    between atoms: C_18  and  N_19
REMARK    6  A    between atoms: C_25  and  C_26
REMARK                            x       y       z     vdW  Elec       q    Type
REMARK                         _______ _______ _______ _____ _____    ______ ____
ROOT
ATOM      1  N   UNL     1       2.013   7.788  18.214  0.00  0.00    +0.000 NA
ATOM      2  C   UNL     1       2.709   6.895  18.822  0.00  0.00    +0.000 C 
ATOM      3  N   UNL     1       3.026   6.784  20.134  0.00  0.00    +0.000 N 
ATOM      4  N   UNL     1       3.185   5.856  18.030  0.00  0.00    +0.000 N 
ATOM      5  H   UNL     1       2.358   7.291  20.717  0.00  0.00    +0.000 HD
ATOM      6  H   UNL     1       3.134   5.822  20.453  0.00  0.00    +0.000 HD
ATOM      7  H   UNL     1       2.828   5.822  17.078  0.00  0.00    +0.000 HD
ENDROOT
BRANCH   1  14
ATOM      8  C   UNL     1      -1.306  12.746  23.245  0.00  0.00    +0.000 C 
ATOM      9  C   UNL     1      -0.734  11.625  22.429  0.00  0.00    +0.000 A 
ATOM     10  C   UNL     1      -0.800  10.299  22.848  0.00  0.00    +0.000 A 
ATOM     11  C   UNL     1      -0.257   9.279  22.051  0.00  0.00    +0.000 A 
ATOM     12  C   UNL     1       0.366   9.536  20.832  0.00  0.00    +0.000 A 
ATOM     13  N   UNL     1       0.875   8.523  20.112  0.00  0.00    +0.000 NA
ATOM     14  C   UNL     1       1.464   8.836  18.952  0.00  0.00    +0.000 A 
ATOM     15  N   UNL     1       1.609  10.077  18.465  0.00  0.00    +0.000 NA
ATOM     16  C   UNL     1       1.094  11.083  19.197  0.00  0.00    +0.000 A 
ATOM     17  C   UNL     1       1.288  12.457  18.624  0.00  0.00    +0.000 C 
ATOM     18  C   UNL     1       0.437  10.872  20.412  0.00  0.00    +0.000 A 
ATOM     19  C   UNL     1      -0.125  11.903  21.204  0.00  0.00    +0.000 A 
ENDBRANCH   1  14
BRANCH   4  20
ATOM     20  S   UNL     1       4.412   4.775  18.328  0.00  0.00    +0.000 S 
ATOM     21  O   UNL     1       5.244   5.306  19.390  0.00  0.00    +0.000 OA
ATOM     22  O   UNL     1       3.818   3.460  18.416  0.00  0.00    +0.000 OA
BRANCH  20  23
ATOM     23  C   UNL     1       5.331   4.827  16.804  0.00  0.00    +0.000 A 
ATOM     24  C   UNL     1       4.714   4.544  15.581  0.00  0.00    +0.000 A 
ATOM     25  C   UNL     1       5.468   4.590  14.401  0.00  0.00    +0.000 A 
ATOM     26  C   UNL     1       6.832   4.917  14.461  0.00  0.00    +0.000 A 
ATOM     27  C   UNL     1       7.442   5.221  15.685  0.00  0.00    +0.000 A 
ATOM     28  C   UNL     1       6.687   5.181  16.858  0.00  0.00    +0.000 A 
BRANCH  26  29
ATOM     29  N   UNL     1       7.634   4.934  13.230  0.00  0.00    +0.000 N 
ATOM     30  O   UNL     1       8.605   5.701  13.185  0.00  0.00    +0.000 OA
ATOM     31  O   UNL     1       7.288   4.183  12.305  0.00  0.00    +0.000 OA
ENDBRANCH  26  29
ENDBRANCH  20  23
ENDBRANCH   4  20
TORSDOF 4
ENDMDL
