MODEL 1
REMARK VINA RESULT:      -8.1      0.000      0.000
REMARK  Name = 
REMARK  7 active torsions:
REMARK  status: ('A' for Active; 'I' for Inactive)
REMARK    1  A    between atoms: C_1  and  C_2
REMARK    2  A    between atoms: C_2  and  C_3
REMARK    3  A    between atoms: C_3  and  N_4
REMARK    4  A    between atoms: N_4  and  C_5
REMARK    5  A    between atoms: C_5  and  C_6
REMARK    6  A    between atoms: C_9  and  C_10
REMARK    7  A    between atoms: C_15  and  C_16
REMARK                            x       y       z     vdW  Elec       q    Type
REMARK                         _______ _______ _______ _____ _____    ______ ____
ROOT
ATOM      1  C   UNL     1       1.602   9.178  19.322  0.00  0.00    +0.000 A 
ATOM      2  C   UNL     1       1.625   8.155  20.272  0.00  0.00    +0.000 A 
ATOM      3  C   UNL     1       1.891   6.834  19.898  0.00  0.00    +0.000 A 
ATOM      4  C   UNL     1       2.230   6.487  18.581  0.00  0.00    +0.000 A 
ATOM      5  C   UNL     1       2.211   7.523  17.632  0.00  0.00    +0.000 A 
ATOM      6  C   UNL     1       1.885   8.839  17.991  0.00  0.00    +0.000 A 
ENDROOT
BRANCH   4   7
ATOM      7  C   UNL     1       2.559   5.082  18.204  0.00  0.00    +0.000 A 
ATOM      8  C   UNL     1       1.586   4.075  18.410  0.00  0.00    +0.000 A 
ATOM      9  C   UNL     1       1.843   2.725  18.148  0.00  0.00    +0.000 A 
ATOM     10  C   UNL     1       3.093   2.334  17.695  0.00  0.00    +0.000 A 
ATOM     11  C   UNL     1       4.073   3.297  17.470  0.00  0.00    +0.000 A 
ATOM     12  C   UNL     1       3.819   4.668  17.687  0.00  0.00    +0.000 A 
BRANCH  12  13
ATOM     13  C   UNL     1       4.884   5.603  17.341  0.00  0.00    +0.000 A 
ATOM     14  N   UNL     1       5.838   6.044  18.232  0.00  0.00    +0.000 NA
ATOM     15  N   UNL     1       6.655   6.837  17.560  0.00  0.00    +0.000 NA
ATOM     16  N   UNL     1       6.150   6.877  16.324  0.00  0.00    +0.000 N 
ATOM     17  N   UNL     1       5.042   6.148  16.118  0.00  0.00    +0.000 NA
ATOM     18  H   UNL     1       6.580   7.425  15.592  0.00  0.00    +0.000 HD
ENDBRANCH  12  13
ENDBRANCH   4   7
BRANCH   1  19
ATOM     19  C   UNL     1       1.131  10.581  19.670  0.00  0.00    +0.000 C 
BRANCH  19  20
ATOM     20  N   UNL     1      -0.294  10.846  19.519  0.00  0.00    +0.000 N 
ATOM     21  C   UNL     1      -0.958  11.345  20.641  0.00  0.00    +0.000 A 
ATOM     22  N   UNL     1      -2.155  11.946  20.486  0.00  0.00    +0.000 NA
ATOM     23  C   UNL     1      -2.737  12.488  21.575  0.00  0.00    +0.000 A 
ATOM     24  C   UNL     1      -2.188  12.454  22.829  0.00  0.00    +0.000 A 
ATOM     25  C   UNL     1      -0.989  11.798  22.910  0.00  0.00    +0.000 A 
ATOM     26  N   UNL     1      -0.375  11.238  21.851  0.00  0.00    +0.000 NA
BRANCH  20  27
ATOM     27  C   UNL     1      -0.932  11.151  18.239  0.00  0.00    +0.000 C 
BRANCH  27  29
ATOM     28  C   UNL     1      -3.059   9.879  17.513  0.00  0.00    +0.000 C 
ATOM     29  C   UNL     1      -1.540   9.979  17.465  0.00  0.00    +0.000 C 
ENDBRANCH  27  29
ENDBRANCH  20  27
ENDBRANCH  19  20
ENDBRANCH   1  19
TORSDOF 6
ENDMDL
MODEL 2
REMARK VINA RESULT:      -8.1      2.297      2.909
REMARK  Name = 
REMARK  7 active torsions:
REMARK  status: ('A' for Active; 'I' for Inactive)
REMARK    1  A    between atoms: C_1  and  C_2
REMARK    2  A    between atoms: C_2  and  C_3
REMARK    3  A    between atoms: C_3  and  N_4
REMARK    4  A    between atoms: N_4  and  C_5
REMARK    5  A    between atoms: C_5  and  C_6
REMARK    6  A    between atoms: C_9  and  C_10
REMARK    7  A    between atoms: C_15  and  C_16
REMARK                            x       y       z     vdW  Elec       q    Type
REMARK                         _______ _______ _______ _____ _____    ______ ____
ROOT
ATOM      1  C   UNL     1       2.072   8.597  18.493  0.00  0.00    +0.000 A 
ATOM      2  C   UNL     1       1.876   8.340  19.852  0.00  0.00    +0.000 A 
ATOM      3  C   UNL     1       1.938   7.036  20.352  0.00  0.00    +0.000 A 
ATOM      4  C   UNL     1       2.280   5.943  19.540  0.00  0.00    +0.000 A 
ATOM      5  C   UNL     1       2.482   6.211  18.176  0.00  0.00    +0.000 A 
ATOM      6  C   UNL     1       2.361   7.509  17.659  0.00  0.00    +0.000 A 
ENDROOT
BRANCH   4   7
ATOM      7  C   UNL     1       2.390   4.563  20.096  0.00  0.00    +0.000 A 
ATOM      8  C   UNL     1       1.300   4.033  20.826  0.00  0.00    +0.000 A 
ATOM      9  C   UNL     1       1.351   2.776  21.438  0.00  0.00    +0.000 A 
ATOM     10  C   UNL     1       2.508   2.016  21.359  0.00  0.00    +0.000 A 
ATOM     11  C   UNL     1       3.598   2.499  20.640  0.00  0.00    +0.000 A 
ATOM     12  C   UNL     1       3.549   3.746  19.981  0.00  0.00    +0.000 A 
BRANCH  12  13
ATOM     13  C   UNL     1       4.712   4.121  19.184  0.00  0.00    +0.000 A 
ATOM     14  N   UNL     1       5.761   4.875  19.666  0.00  0.00    +0.000 NA
ATOM     15  N   UNL     1       6.643   4.977  18.687  0.00  0.00    +0.000 NA
ATOM     16  N   UNL     1       6.088   4.327  17.659  0.00  0.00    +0.000 N 
ATOM     17  N   UNL     1       4.883   3.785  17.890  0.00  0.00    +0.000 NA
ATOM     18  H   UNL     1       6.551   4.254  16.764  0.00  0.00    +0.000 HD
ENDBRANCH  12  13
ENDBRANCH   4   7
BRANCH   1  19
ATOM     19  C   UNL     1       1.823   9.973  17.896  0.00  0.00    +0.000 C 
BRANCH  19  20
ATOM     20  N   UNL     1       0.892  10.836  18.612  0.00  0.00    +0.000 N 
ATOM     21  C   UNL     1       1.225  12.188  18.688  0.00  0.00    +0.000 A 
ATOM     22  N   UNL     1       0.270  13.087  19.000  0.00  0.00    +0.000 NA
ATOM     23  C   UNL     1       0.602  14.394  18.988  0.00  0.00    +0.000 A 
ATOM     24  C   UNL     1       1.855  14.859  18.687  0.00  0.00    +0.000 A 
ATOM     25  C   UNL     1       2.777  13.884  18.414  0.00  0.00    +0.000 A 
ATOM     26  N   UNL     1       2.490  12.569  18.419  0.00  0.00    +0.000 NA
BRANCH  20  27
ATOM     27  C   UNL     1      -0.533  10.543  18.763  0.00  0.00    +0.000 C 
BRANCH  27  29
ATOM     28  C   UNL     1      -2.784  10.047  17.600  0.00  0.00    +0.000 C 
ATOM     29  C   UNL     1      -1.264   9.979  17.543  0.00  0.00    +0.000 C 
ENDBRANCH  27  29
ENDBRANCH  20  27
ENDBRANCH  19  20
ENDBRANCH   1  19
TORSDOF 6
ENDMDL
MODEL 3
REMARK VINA RESULT:      -8.0      0.423      1.032
REMARK  Name = 
REMARK  7 active torsions:
REMARK  status: ('A' for Active; 'I' for Inactive)
REMARK    1  A    between atoms: C_1  and  C_2
REMARK    2  A    between atoms: C_2  and  C_3
REMARK    3  A    between atoms: C_3  and  N_4
REMARK    4  A    between atoms: N_4  and  C_5
REMARK    5  A    between atoms: C_5  and  C_6
REMARK    6  A    between atoms: C_9  and  C_10
REMARK    7  A    between atoms: C_15  and  C_16
REMARK                            x       y       z     vdW  Elec       q    Type
REMARK                         _______ _______ _______ _____ _____    ______ ____
ROOT
ATOM      1  C   UNL     1       1.495   9.145  19.306  0.00  0.00    +0.000 A 
ATOM      2  C   UNL     1       1.683   8.786  17.969  0.00  0.00    +0.000 A 
ATOM      3  C   UNL     1       2.060   7.485  17.623  0.00  0.00    +0.000 A 
ATOM      4  C   UNL     1       2.182   6.465  18.579  0.00  0.00    +0.000 A 
ATOM      5  C   UNL     1       1.985   6.834  19.921  0.00  0.00    +0.000 A 
ATOM      6  C   UNL     1       1.666   8.151  20.279  0.00  0.00    +0.000 A 
ENDROOT
BRANCH   4   7
ATOM      7  C   UNL     1       2.537   5.069  18.191  0.00  0.00    +0.000 A 
ATOM      8  C   UNL     1       1.581   4.044  18.384  0.00  0.00    +0.000 A 
ATOM      9  C   UNL     1       1.861   2.701  18.110  0.00  0.00    +0.000 A 
ATOM     10  C   UNL     1       3.120   2.335  17.659  0.00  0.00    +0.000 A 
ATOM     11  C   UNL     1       4.083   3.317  17.447  0.00  0.00    +0.000 A 
ATOM     12  C   UNL     1       3.806   4.682  17.676  0.00  0.00    +0.000 A 
BRANCH  12  13
ATOM     13  C   UNL     1       4.856   5.638  17.342  0.00  0.00    +0.000 A 
ATOM     14  N   UNL     1       5.812   6.069  18.235  0.00  0.00    +0.000 NA
ATOM     15  N   UNL     1       6.613   6.888  17.575  0.00  0.00    +0.000 NA
ATOM     16  N   UNL     1       6.097   6.950  16.344  0.00  0.00    +0.000 N 
ATOM     17  N   UNL     1       4.997   6.213  16.131  0.00  0.00    +0.000 NA
ATOM     18  H   UNL     1       6.514   7.521  15.622  0.00  0.00    +0.000 HD
ENDBRANCH  12  13
ENDBRANCH   4   7
BRANCH   1  19
ATOM     19  C   UNL     1       1.273  10.591  19.720  0.00  0.00    +0.000 C 
BRANCH  19  20
ATOM     20  N   UNL     1      -0.086  11.103  19.596  0.00  0.00    +0.000 N 
ATOM     21  C   UNL     1      -0.793  11.292  20.784  0.00  0.00    +0.000 A 
ATOM     22  N   UNL     1      -1.885  12.083  20.784  0.00  0.00    +0.000 NA
ATOM     23  C   UNL     1      -2.501  12.312  21.961  0.00  0.00    +0.000 A 
ATOM     24  C   UNL     1      -2.088  11.780  23.154  0.00  0.00    +0.000 A 
ATOM     25  C   UNL     1      -0.995  10.961  23.066  0.00  0.00    +0.000 A 
ATOM     26  N   UNL     1      -0.351  10.702  21.912  0.00  0.00    +0.000 NA
BRANCH  20  27
ATOM     27  C   UNL     1      -0.550  11.910  18.468  0.00  0.00    +0.000 C 
BRANCH  27  29
ATOM     28  C   UNL     1      -1.720   9.932  17.291  0.00  0.00    +0.000 C 
ATOM     29  C   UNL     1      -1.770  11.398  17.698  0.00  0.00    +0.000 C 
ENDBRANCH  27  29
ENDBRANCH  20  27
ENDBRANCH  19  20
ENDBRANCH   1  19
TORSDOF 6
ENDMDL
MODEL 4
REMARK VINA RESULT:      -8.0      2.449      3.732
REMARK  Name = 
REMARK  7 active torsions:
REMARK  status: ('A' for Active; 'I' for Inactive)
REMARK    1  A    between atoms: C_1  and  C_2
REMARK    2  A    between atoms: C_2  and  C_3
REMARK    3  A    between atoms: C_3  and  N_4
REMARK    4  A    between atoms: N_4  and  C_5
REMARK    5  A    between atoms: C_5  and  C_6
REMARK    6  A    between atoms: C_9  and  C_10
REMARK    7  A    between atoms: C_15  and  C_16
REMARK                            x       y       z     vdW  Elec       q    Type
REMARK                         _______ _______ _______ _____ _____    ______ ____
ROOT
ATOM      1  C   UNL     1       1.280   8.816  19.549  0.00  0.00    +0.000 A 
ATOM      2  C   UNL     1       1.816   7.701  20.196  0.00  0.00    +0.000 A 
ATOM      3  C   UNL     1       2.657   6.814  19.518  0.00  0.00    +0.000 A 
ATOM      4  C   UNL     1       3.070   7.042  18.196  0.00  0.00    +0.000 A 
ATOM      5  C   UNL     1       2.531   8.169  17.554  0.00  0.00    +0.000 A 
ATOM      6  C   UNL     1       1.639   9.030  18.211  0.00  0.00    +0.000 A 
ENDROOT
BRANCH   4   7
ATOM      7  C   UNL     1       4.006   6.113  17.500  0.00  0.00    +0.000 A 
ATOM      8  C   UNL     1       5.163   6.647  16.884  0.00  0.00    +0.000 A 
ATOM      9  C   UNL     1       6.054   5.853  16.153  0.00  0.00    +0.000 A 
ATOM     10  C   UNL     1       5.801   4.499  15.992  0.00  0.00    +0.000 A 
ATOM     11  C   UNL     1       4.679   3.936  16.592  0.00  0.00    +0.000 A 
ATOM     12  C   UNL     1       3.792   4.712  17.369  0.00  0.00    +0.000 A 
BRANCH  12  13
ATOM     13  C   UNL     1       2.695   4.010  18.025  0.00  0.00    +0.000 A 
ATOM     14  N   UNL     1       2.827   3.315  19.207  0.00  0.00    +0.000 NA
ATOM     15  N   UNL     1       1.628   2.852  19.518  0.00  0.00    +0.000 NA
ATOM     16  N   UNL     1       0.841   3.243  18.511  0.00  0.00    +0.000 N 
ATOM     17  N   UNL     1       1.438   3.952  17.540  0.00  0.00    +0.000 NA
ATOM     18  H   UNL     1      -0.143   3.015  18.486  0.00  0.00    +0.000 HD
ENDBRANCH  12  13
ENDBRANCH   4   7
BRANCH   1  19
ATOM     19  C   UNL     1       0.218   9.687  20.203  0.00  0.00    +0.000 C 
BRANCH  19  20
ATOM     20  N   UNL     1      -0.165  10.896  19.487  0.00  0.00    +0.000 N 
ATOM     21  C   UNL     1      -1.337  10.830  18.732  0.00  0.00    +0.000 A 
ATOM     22  N   UNL     1      -1.942  11.973  18.350  0.00  0.00    +0.000 NA
ATOM     23  C   UNL     1      -3.114  11.879  17.690  0.00  0.00    +0.000 A 
ATOM     24  C   UNL     1      -3.720  10.691  17.378  0.00  0.00    +0.000 A 
ATOM     25  C   UNL     1      -3.029   9.576  17.770  0.00  0.00    +0.000 A 
ATOM     26  N   UNL     1      -1.854   9.623  18.426  0.00  0.00    +0.000 NA
BRANCH  20  27
ATOM     27  C   UNL     1       0.226  12.244  19.900  0.00  0.00    +0.000 C 
BRANCH  27  29
ATOM     28  C   UNL     1       2.191  12.669  18.281  0.00  0.00    +0.000 C 
ATOM     29  C   UNL     1       1.695  12.631  19.721  0.00  0.00    +0.000 C 
ENDBRANCH  27  29
ENDBRANCH  20  27
ENDBRANCH  19  20
ENDBRANCH   1  19
TORSDOF 6
ENDMDL
MODEL 5
REMARK VINA RESULT:      -8.0      2.685      3.619
REMARK  Name = 
REMARK  7 active torsions:
REMARK  status: ('A' for Active; 'I' for Inactive)
REMARK    1  A    between atoms: C_1  and  C_2
REMARK    2  A    between atoms: C_2  and  C_3
REMARK    3  A    between atoms: C_3  and  N_4
REMARK    4  A    between atoms: N_4  and  C_5
REMARK    5  A    between atoms: C_5  and  C_6
REMARK    6  A    between atoms: C_9  and  C_10
REMARK    7  A    between atoms: C_15  and  C_16
REMARK                            x       y       z     vdW  Elec       q    Type
REMARK                         _______ _______ _______ _____ _____    ______ ____
ROOT
ATOM      1  C   UNL     1       1.055   9.222  19.789  0.00  0.00    +0.000 A 
ATOM      2  C   UNL     1       1.415   9.294  18.441  0.00  0.00    +0.000 A 
ATOM      3  C   UNL     1       2.224   8.312  17.862  0.00  0.00    +0.000 A 
ATOM      4  C   UNL     1       2.638   7.173  18.572  0.00  0.00    +0.000 A 
ATOM      5  C   UNL     1       2.265   7.106  19.925  0.00  0.00    +0.000 A 
ATOM      6  C   UNL     1       1.505   8.118  20.527  0.00  0.00    +0.000 A 
ENDROOT
BRANCH   4   7
ATOM      7  C   UNL     1       3.461   6.109  17.928  0.00  0.00    +0.000 A 
ATOM      8  C   UNL     1       4.454   6.486  16.994  0.00  0.00    +0.000 A 
ATOM      9  C   UNL     1       5.219   5.545  16.296  0.00  0.00    +0.000 A 
ATOM     10  C   UNL     1       4.996   4.191  16.492  0.00  0.00    +0.000 A 
ATOM     11  C   UNL     1       4.034   3.781  17.410  0.00  0.00    +0.000 A 
ATOM     12  C   UNL     1       3.283   4.715  18.155  0.00  0.00    +0.000 A 
BRANCH  12  13
ATOM     13  C   UNL     1       2.362   4.182  19.153  0.00  0.00    +0.000 A 
ATOM     14  N   UNL     1       2.715   3.916  20.458  0.00  0.00    +0.000 NA
ATOM     15  N   UNL     1       1.624   3.491  21.073  0.00  0.00    +0.000 NA
ATOM     16  N   UNL     1       0.683   3.478  20.125  0.00  0.00    +0.000 N 
ATOM     17  N   UNL     1       1.072   3.879  18.905  0.00  0.00    +0.000 NA
ATOM     18  H   UNL     1      -0.263   3.181  20.320  0.00  0.00    +0.000 HD
ENDBRANCH  12  13
ENDBRANCH   4   7
BRANCH   1  19
ATOM     19  C   UNL     1       0.338  10.368  20.486  0.00  0.00    +0.000 C 
BRANCH  19  20
ATOM     20  N   UNL     1       0.055  11.547  19.678  0.00  0.00    +0.000 N 
ATOM     21  C   UNL     1       0.970  12.597  19.764  0.00  0.00    +0.000 A 
ATOM     22  N   UNL     1       0.981  13.543  18.803  0.00  0.00    +0.000 NA
ATOM     23  C   UNL     1       1.927  14.501  18.870  0.00  0.00    +0.000 A 
ATOM     24  C   UNL     1       2.870  14.574  19.860  0.00  0.00    +0.000 A 
ATOM     25  C   UNL     1       2.771  13.599  20.816  0.00  0.00    +0.000 A 
ATOM     26  N   UNL     1       1.841  12.627  20.792  0.00  0.00    +0.000 NA
BRANCH  20  27
ATOM     27  C   UNL     1      -0.736  11.518  18.448  0.00  0.00    +0.000 C 
BRANCH  27  29
ATOM     28  C   UNL     1      -2.255   9.846  17.196  0.00  0.00    +0.000 C 
ATOM     29  C   UNL     1      -2.007  10.667  18.456  0.00  0.00    +0.000 C 
ENDBRANCH  27  29
ENDBRANCH  20  27
ENDBRANCH  19  20
ENDBRANCH   1  19
TORSDOF 6
ENDMDL
MODEL 6
REMARK VINA RESULT:      -7.9      2.518      3.356
REMARK  Name = 
REMARK  7 active torsions:
REMARK  status: ('A' for Active; 'I' for Inactive)
REMARK    1  A    between atoms: C_1  and  C_2
REMARK    2  A    between atoms: C_2  and  C_3
REMARK    3  A    between atoms: C_3  and  N_4
REMARK    4  A    between atoms: N_4  and  C_5
REMARK    5  A    between atoms: C_5  and  C_6
REMARK    6  A    between atoms: C_9  and  C_10
REMARK    7  A    between atoms: C_15  and  C_16
REMARK                            x       y       z     vdW  Elec       q    Type
REMARK                         _______ _______ _______ _____ _____    ______ ____
ROOT
ATOM      1  C   UNL     1       1.162   9.043  19.570  0.00  0.00    +0.000 A 
ATOM      2  C   UNL     1       1.739   7.972  20.254  0.00  0.00    +0.000 A 
ATOM      3  C   UNL     1       2.561   7.056  19.590  0.00  0.00    +0.000 A 
ATOM      4  C   UNL     1       2.914   7.214  18.241  0.00  0.00    +0.000 A 
ATOM      5  C   UNL     1       2.334   8.298  17.562  0.00  0.00    +0.000 A 
ATOM      6  C   UNL     1       1.461   9.185  18.207  0.00  0.00    +0.000 A 
ENDROOT
BRANCH   4   7
ATOM      7  C   UNL     1       3.831   6.257  17.557  0.00  0.00    +0.000 A 
ATOM      8  C   UNL     1       4.983   6.763  16.908  0.00  0.00    +0.000 A 
ATOM      9  C   UNL     1       5.855   5.940  16.186  0.00  0.00    +0.000 A 
ATOM     10  C   UNL     1       5.588   4.584  16.068  0.00  0.00    +0.000 A 
ATOM     11  C   UNL     1       4.470   4.049  16.702  0.00  0.00    +0.000 A 
ATOM     12  C   UNL     1       3.603   4.855  17.470  0.00  0.00    +0.000 A 
BRANCH  12  13
ATOM     13  C   UNL     1       2.510   4.182  18.163  0.00  0.00    +0.000 A 
ATOM     14  N   UNL     1       2.628   3.617  19.414  0.00  0.00    +0.000 NA
ATOM     15  N   UNL     1       1.436   3.143  19.736  0.00  0.00    +0.000 NA
ATOM     16  N   UNL     1       0.670   3.398  18.671  0.00  0.00    +0.000 N 
ATOM     17  N   UNL     1       1.273   4.026  17.650  0.00  0.00    +0.000 NA
ATOM     18  H   UNL     1      -0.304   3.130  18.642  0.00  0.00    +0.000 HD
ENDBRANCH  12  13
ENDBRANCH   4   7
BRANCH   1  19
ATOM     19  C   UNL     1       0.118   9.938  20.221  0.00  0.00    +0.000 C 
BRANCH  19  20
ATOM     20  N   UNL     1      -0.235  11.156  19.502  0.00  0.00    +0.000 N 
ATOM     21  C   UNL     1       0.598  12.259  19.697  0.00  0.00    +0.000 A 
ATOM     22  N   UNL     1       0.560  13.278  18.816  0.00  0.00    +0.000 NA
ATOM     23  C   UNL     1       1.431  14.294  18.984  0.00  0.00    +0.000 A 
ATOM     24  C   UNL     1       2.344  14.353  20.003  0.00  0.00    +0.000 A 
ATOM     25  C   UNL     1       2.298  13.299  20.874  0.00  0.00    +0.000 A 
ATOM     26  N   UNL     1       1.443  12.266  20.747  0.00  0.00    +0.000 NA
BRANCH  20  27
ATOM     27  C   UNL     1      -0.995  11.171  18.253  0.00  0.00    +0.000 C 
BRANCH  27  29
ATOM     28  C   UNL     1      -2.539   9.815  16.690  0.00  0.00    +0.000 C 
ATOM     29  C   UNL     1      -2.135  10.160  18.118  0.00  0.00    +0.000 C 
ENDBRANCH  27  29
ENDBRANCH  20  27
ENDBRANCH  19  20
ENDBRANCH   1  19
TORSDOF 6
ENDMDL
MODEL 7
REMARK VINA RESULT:      -7.9      2.686      3.926
REMARK  Name = 
REMARK  7 active torsions:
REMARK  status: ('A' for Active; 'I' for Inactive)
REMARK    1  A    between atoms: C_1  and  C_2
REMARK    2  A    between atoms: C_2  and  C_3
REMARK    3  A    between atoms: C_3  and  N_4
REMARK    4  A    between atoms: N_4  and  C_5
REMARK    5  A    between atoms: C_5  and  C_6
REMARK    6  A    between atoms: C_9  and  C_10
REMARK    7  A    between atoms: C_15  and  C_16
REMARK                            x       y       z     vdW  Elec       q    Type
REMARK                         _______ _______ _______ _____ _____    ______ ____
ROOT
ATOM      1  C   UNL     1       0.902   9.415  19.347  0.00  0.00    +0.000 A 
ATOM      2  C   UNL     1       1.401   8.456  20.231  0.00  0.00    +0.000 A 
ATOM      3  C   UNL     1       2.229   7.425  19.778  0.00  0.00    +0.000 A 
ATOM      4  C   UNL     1       2.666   7.351  18.446  0.00  0.00    +0.000 A 
ATOM      5  C   UNL     1       2.166   8.324  17.565  0.00  0.00    +0.000 A 
ATOM      6  C   UNL     1       1.286   9.325  18.002  0.00  0.00    +0.000 A 
ENDROOT
BRANCH   4   7
ATOM      7  C   UNL     1       3.589   6.274  17.987  0.00  0.00    +0.000 A 
ATOM      8  C   UNL     1       4.661   6.615  17.128  0.00  0.00    +0.000 A 
ATOM      9  C   UNL     1       5.528   5.653  16.598  0.00  0.00    +0.000 A 
ATOM     10  C   UNL     1       5.334   4.312  16.890  0.00  0.00    +0.000 A 
ATOM     11  C   UNL     1       4.297   3.939  17.739  0.00  0.00    +0.000 A 
ATOM     12  C   UNL     1       3.439   4.898  18.318  0.00  0.00    +0.000 A 
BRANCH  12  13
ATOM     13  C   UNL     1       2.438   4.411  19.260  0.00  0.00    +0.000 A 
ATOM     14  N   UNL     1       2.678   4.221  20.604  0.00  0.00    +0.000 NA
ATOM     15  N   UNL     1       1.541   3.818  21.145  0.00  0.00    +0.000 NA
ATOM     16  N   UNL     1       0.685   3.742  20.121  0.00  0.00    +0.000 N 
ATOM     17  N   UNL     1       1.176   4.080  18.919  0.00  0.00    +0.000 NA
ATOM     18  H   UNL     1      -0.273   3.447  20.251  0.00  0.00    +0.000 HD
ENDBRANCH  12  13
ENDBRANCH   4   7
BRANCH   1  19
ATOM     19  C   UNL     1      -0.147  10.429  19.777  0.00  0.00    +0.000 C 
BRANCH  19  20
ATOM     20  N   UNL     1       0.176  11.249  20.938  0.00  0.00    +0.000 N 
ATOM     21  C   UNL     1       1.026  12.334  20.719  0.00  0.00    +0.000 A 
ATOM     22  N   UNL     1       1.078  13.325  21.632  0.00  0.00    +0.000 NA
ATOM     23  C   UNL     1       1.846  14.398  21.357  0.00  0.00    +0.000 A 
ATOM     24  C   UNL     1       2.583  14.535  20.211  0.00  0.00    +0.000 A 
ATOM     25  C   UNL     1       2.504  13.473  19.351  0.00  0.00    +0.000 A 
ATOM     26  N   UNL     1       1.754  12.380  19.586  0.00  0.00    +0.000 NA
BRANCH  20  27
ATOM     27  C   UNL     1      -0.686  11.368  22.113  0.00  0.00    +0.000 C 
BRANCH  27  29
ATOM     28  C   UNL     1       0.512   9.438  23.340  0.00  0.00    +0.000 C 
ATOM     29  C   UNL     1      -0.800  10.143  23.023  0.00  0.00    +0.000 C 
ENDBRANCH  27  29
ENDBRANCH  20  27
ENDBRANCH  19  20
ENDBRANCH   1  19
TORSDOF 6
ENDMDL
MODEL 8
REMARK VINA RESULT:      -7.9      2.185      2.930
REMARK  Name = 
REMARK  7 active torsions:
REMARK  status: ('A' for Active; 'I' for Inactive)
REMARK    1  A    between atoms: C_1  and  C_2
REMARK    2  A    between atoms: C_2  and  C_3
REMARK    3  A    between atoms: C_3  and  N_4
REMARK    4  A    between atoms: N_4  and  C_5
REMARK    5  A    between atoms: C_5  and  C_6
REMARK    6  A    between atoms: C_9  and  C_10
REMARK    7  A    between atoms: C_15  and  C_16
REMARK                            x       y       z     vdW  Elec       q    Type
REMARK                         _______ _______ _______ _____ _____    ______ ____
ROOT
ATOM      1  C   UNL     1       1.373   9.366  19.468  0.00  0.00    +0.000 A 
ATOM      2  C   UNL     1       1.815   9.367  18.143  0.00  0.00    +0.000 A 
ATOM      3  C   UNL     1       2.546   8.292  17.630  0.00  0.00    +0.000 A 
ATOM      4  C   UNL     1       2.795   7.134  18.383  0.00  0.00    +0.000 A 
ATOM      5  C   UNL     1       2.341   7.137  19.712  0.00  0.00    +0.000 A 
ATOM      6  C   UNL     1       1.660   8.239  20.250  0.00  0.00    +0.000 A 
ENDROOT
BRANCH   4   7
ATOM      7  C   UNL     1       3.535   5.973  17.807  0.00  0.00    +0.000 A 
ATOM      8  C   UNL     1       4.524   6.215  16.824  0.00  0.00    +0.000 A 
ATOM      9  C   UNL     1       5.211   5.177  16.186  0.00  0.00    +0.000 A 
ATOM     10  C   UNL     1       4.913   3.858  16.493  0.00  0.00    +0.000 A 
ATOM     11  C   UNL     1       3.953   3.581  17.463  0.00  0.00    +0.000 A 
ATOM     12  C   UNL     1       3.280   4.615  18.148  0.00  0.00    +0.000 A 
BRANCH  12  13
ATOM     13  C   UNL     1       2.356   4.219  19.205  0.00  0.00    +0.000 A 
ATOM     14  N   UNL     1       2.723   4.059  20.524  0.00  0.00    +0.000 NA
ATOM     15  N   UNL     1       1.627   3.742  21.192  0.00  0.00    +0.000 NA
ATOM     16  N   UNL     1       0.667   3.686  20.264  0.00  0.00    +0.000 N 
ATOM     17  N   UNL     1       1.049   3.954  19.007  0.00  0.00    +0.000 NA
ATOM     18  H   UNL     1      -0.287   3.453  20.501  0.00  0.00    +0.000 HD
ENDBRANCH  12  13
ENDBRANCH   4   7
BRANCH   1  19
ATOM     19  C   UNL     1       0.744  10.597  20.102  0.00  0.00    +0.000 C 
BRANCH  19  20
ATOM     20  N   UNL     1      -0.625  10.905  19.709  0.00  0.00    +0.000 N 
ATOM     21  C   UNL     1      -1.431  11.508  20.675  0.00  0.00    +0.000 A 
ATOM     22  N   UNL     1      -2.557  12.142  20.293  0.00  0.00    +0.000 NA
ATOM     23  C   UNL     1      -3.275  12.783  21.238  0.00  0.00    +0.000 A 
ATOM     24  C   UNL     1      -2.931  12.819  22.563  0.00  0.00    +0.000 A 
ATOM     25  C   UNL     1      -1.794  12.124  22.877  0.00  0.00    +0.000 A 
ATOM     26  N   UNL     1      -1.050  11.466  21.968  0.00  0.00    +0.000 NA
BRANCH  20  27
ATOM     27  C   UNL     1      -1.039  11.142  18.326  0.00  0.00    +0.000 C 
BRANCH  27  29
ATOM     28  C   UNL     1      -2.490  10.391  16.327  0.00  0.00    +0.000 C 
ATOM     29  C   UNL     1      -1.770  10.003  17.612  0.00  0.00    +0.000 C 
ENDBRANCH  27  29
ENDBRANCH  20  27
ENDBRANCH  19  20
ENDBRANCH   1  19
TORSDOF 6
ENDMDL
MODEL 9
REMARK VINA RESULT:      -7.9      0.738      1.100
REMARK  Name = 
REMARK  7 active torsions:
REMARK  status: ('A' for Active; 'I' for Inactive)
REMARK    1  A    between atoms: C_1  and  C_2
REMARK    2  A    between atoms: C_2  and  C_3
REMARK    3  A    between atoms: C_3  and  N_4
REMARK    4  A    between atoms: N_4  and  C_5
REMARK    5  A    between atoms: C_5  and  C_6
REMARK    6  A    between atoms: C_9  and  C_10
REMARK    7  A    between atoms: C_15  and  C_16
REMARK                            x       y       z     vdW  Elec       q    Type
REMARK                         _______ _______ _______ _____ _____    ______ ____
ROOT
ATOM      1  C   UNL     1       1.721   8.857  19.367  0.00  0.00    +0.000 A 
ATOM      2  C   UNL     1       1.689   7.912  20.395  0.00  0.00    +0.000 A 
ATOM      3  C   UNL     1       1.915   6.558  20.132  0.00  0.00    +0.000 A 
ATOM      4  C   UNL     1       2.266   6.096  18.853  0.00  0.00    +0.000 A 
ATOM      5  C   UNL     1       2.303   7.054  17.826  0.00  0.00    +0.000 A 
ATOM      6  C   UNL     1       2.017   8.405  18.074  0.00  0.00    +0.000 A 
ENDROOT
BRANCH   4   7
ATOM      7  C   UNL     1       2.553   4.655  18.595  0.00  0.00    +0.000 A 
ATOM      8  C   UNL     1       1.467   3.756  18.470  0.00  0.00    +0.000 A 
ATOM      9  C   UNL     1       1.653   2.380  18.298  0.00  0.00    +0.000 A 
ATOM     10  C   UNL     1       2.935   1.854  18.270  0.00  0.00    +0.000 A 
ATOM     11  C   UNL     1       4.028   2.708  18.380  0.00  0.00    +0.000 A 
ATOM     12  C   UNL     1       3.862   4.104  18.511  0.00  0.00    +0.000 A 
BRANCH  12  13
ATOM     13  C   UNL     1       5.072   4.918  18.532  0.00  0.00    +0.000 A 
ATOM     14  N   UNL     1       5.518   5.656  17.457  0.00  0.00    +0.000 NA
ATOM     15  N   UNL     1       6.607   6.293  17.853  0.00  0.00    +0.000 NA
ATOM     16  N   UNL     1       6.796   5.892  19.113  0.00  0.00    +0.000 N 
ATOM     17  N   UNL     1       5.891   5.027  19.597  0.00  0.00    +0.000 NA
ATOM     18  H   UNL     1       7.575   6.223  19.665  0.00  0.00    +0.000 HD
ENDBRANCH  12  13
ENDBRANCH   4   7
BRANCH   1  19
ATOM     19  C   UNL     1       1.294  10.299  19.594  0.00  0.00    +0.000 C 
BRANCH  19  20
ATOM     20  N   UNL     1      -0.121  10.595  19.412  0.00  0.00    +0.000 N 
ATOM     21  C   UNL     1      -0.787  11.154  20.504  0.00  0.00    +0.000 A 
ATOM     22  N   UNL     1      -1.965  11.780  20.309  0.00  0.00    +0.000 NA
ATOM     23  C   UNL     1      -2.546  12.379  21.368  0.00  0.00    +0.000 A 
ATOM     24  C   UNL     1      -2.014  12.381  22.630  0.00  0.00    +0.000 A 
ATOM     25  C   UNL     1      -0.835  11.697  22.754  0.00  0.00    +0.000 A 
ATOM     26  N   UNL     1      -0.222  11.080  21.726  0.00  0.00    +0.000 NA
BRANCH  20  27
ATOM     27  C   UNL     1      -0.734  10.866  18.112  0.00  0.00    +0.000 C 
BRANCH  27  29
ATOM     28  C   UNL     1      -2.403  10.193  16.260  0.00  0.00    +0.000 C 
ATOM     29  C   UNL     1      -1.779   9.867  17.611  0.00  0.00    +0.000 C 
ENDBRANCH  27  29
ENDBRANCH  20  27
ENDBRANCH  19  20
ENDBRANCH   1  19
TORSDOF 6
ENDMDL
