MODEL 1
REMARK VINA RESULT:      -7.1      0.000      0.000
REMARK  Name = 
REMARK  2 active torsions:
REMARK  status: ('A' for Active; 'I' for Inactive)
REMARK    1  A    between atoms: C_8  and  C_9
REMARK    2  A    between atoms: C_13  and  C_14
REMARK                            x       y       z     vdW  Elec       q    Type
REMARK                         _______ _______ _______ _____ _____    ______ ____
ROOT
ATOM      1  C   UNL     1       2.865   8.254  17.406  0.00  0.00    +0.000 C 
ATOM      2  C   UNL     1       3.420   7.109  17.819  0.00  0.00    +0.000 C 
ATOM      3  C   UNL     1       4.710   6.664  17.260  0.00  0.00    +0.000 C 
ATOM      4  O   UNL     1       5.281   7.146  16.294  0.00  0.00    +0.000 OA
ATOM      5  O   UNL     1       5.140   5.607  17.981  0.00  0.00    +0.000 OA
ATOM      6  C   UNL     1       4.099   5.087  18.822  0.00  0.00    +0.000 C 
ATOM      7  C   UNL     1       3.834   3.711  18.280  0.00  0.00    +0.000 C 
ATOM      8  C   UNL     1       3.939   2.535  18.927  0.00  0.00    +0.000 C 
ATOM      9  C   UNL     1       3.816   1.242  18.161  0.00  0.00    +0.000 C 
ATOM     10  C   UNL     1       4.259   2.389  20.395  0.00  0.00    +0.000 C 
ATOM     11  C   UNL     1       3.025   2.168  21.267  0.00  0.00    +0.000 C 
ATOM     12  C   UNL     1       2.317   3.462  21.710  0.00  0.00    +0.000 C 
ATOM     13  C   UNL     1       1.383   4.178  20.751  0.00  0.00    +0.000 C 
ATOM     14  C   UNL     1       0.445   3.304  19.974  0.00  0.00    +0.000 C 
ATOM     15  C   UNL     1       1.294   5.502  20.529  0.00  0.00    +0.000 C 
ATOM     16  C   UNL     1       2.425   6.445  20.175  0.00  0.00    +0.000 C 
ATOM     17  C   UNL     1       2.905   6.055  18.747  0.00  0.00    +0.000 C 
ENDROOT
TORSDOF 0
ENDMDL
MODEL 2
REMARK VINA RESULT:      -7.0      2.664      5.276
REMARK  Name = 
REMARK  2 active torsions:
REMARK  status: ('A' for Active; 'I' for Inactive)
REMARK    1  A    between atoms: C_8  and  C_9
REMARK    2  A    between atoms: C_13  and  C_14
REMARK                            x       y       z     vdW  Elec       q    Type
REMARK                         _______ _______ _______ _____ _____    ______ ____
ROOT
ATOM      1  C   UNL     1       2.723   2.654  20.479  0.00  0.00    +0.000 C 
ATOM      2  C   UNL     1       2.982   3.213  19.291  0.00  0.00    +0.000 C 
ATOM      3  C   UNL     1       2.069   2.999  18.154  0.00  0.00    +0.000 C 
ATOM      4  O   UNL     1       1.150   2.197  18.109  0.00  0.00    +0.000 OA
ATOM      5  O   UNL     1       2.442   3.823  17.152  0.00  0.00    +0.000 OA
ATOM      6  C   UNL     1       3.740   4.390  17.394  0.00  0.00    +0.000 C 
ATOM      7  C   UNL     1       4.603   3.824  16.302  0.00  0.00    +0.000 C 
ATOM      8  C   UNL     1       5.291   4.498  15.362  0.00  0.00    +0.000 C 
ATOM      9  C   UNL     1       5.950   3.750  14.231  0.00  0.00    +0.000 C 
ATOM     10  C   UNL     1       5.401   6.002  15.292  0.00  0.00    +0.000 C 
ATOM     11  C   UNL     1       6.697   6.546  15.891  0.00  0.00    +0.000 C 
ATOM     12  C   UNL     1       6.648   6.775  17.412  0.00  0.00    +0.000 C 
ATOM     13  C   UNL     1       6.825   5.602  18.360  0.00  0.00    +0.000 C 
ATOM     14  C   UNL     1       7.913   4.633  18.008  0.00  0.00    +0.000 C 
ATOM     15  C   UNL     1       6.127   5.341  19.480  0.00  0.00    +0.000 C 
ATOM     16  C   UNL     1       4.620   5.261  19.618  0.00  0.00    +0.000 C 
ATOM     17  C   UNL     1       4.163   4.004  18.823  0.00  0.00    +0.000 C 
ENDROOT
TORSDOF 0
ENDMDL
MODEL 3
REMARK VINA RESULT:      -6.9      1.611      2.109
REMARK  Name = 
REMARK  2 active torsions:
REMARK  status: ('A' for Active; 'I' for Inactive)
REMARK    1  A    between atoms: C_8  and  C_9
REMARK    2  A    between atoms: C_13  and  C_14
REMARK                            x       y       z     vdW  Elec       q    Type
REMARK                         _______ _______ _______ _____ _____    ______ ____
ROOT
ATOM      1  C   UNL     1       5.041   6.639  16.045  0.00  0.00    +0.000 C 
ATOM      2  C   UNL     1       4.962   6.007  17.222  0.00  0.00    +0.000 C 
ATOM      3  C   UNL     1       6.118   5.993  18.137  0.00  0.00    +0.000 C 
ATOM      4  O   UNL     1       7.252   6.359  17.871  0.00  0.00    +0.000 OA
ATOM      5  O   UNL     1       5.715   5.475  19.317  0.00  0.00    +0.000 OA
ATOM      6  C   UNL     1       4.429   4.845  19.202  0.00  0.00    +0.000 C 
ATOM      7  C   UNL     1       4.704   3.391  19.463  0.00  0.00    +0.000 C 
ATOM      8  C   UNL     1       4.183   2.614  20.431  0.00  0.00    +0.000 C 
ATOM      9  C   UNL     1       4.723   1.224  20.651  0.00  0.00    +0.000 C 
ATOM     10  C   UNL     1       3.119   3.056  21.406  0.00  0.00    +0.000 C 
ATOM     11  C   UNL     1       1.711   2.612  21.012  0.00  0.00    +0.000 C 
ATOM     12  C   UNL     1       0.993   3.563  20.038  0.00  0.00    +0.000 C 
ATOM     13  C   UNL     1       1.313   3.508  18.554  0.00  0.00    +0.000 C 
ATOM     14  C   UNL     1       1.433   2.137  17.960  0.00  0.00    +0.000 C 
ATOM     15  C   UNL     1       1.488   4.545  17.715  0.00  0.00    +0.000 C 
ATOM     16  C   UNL     1       2.424   5.721  17.901  0.00  0.00    +0.000 C 
ATOM     17  C   UNL     1       3.873   5.161  17.802  0.00  0.00    +0.000 C 
ENDROOT
TORSDOF 0
ENDMDL
MODEL 4
REMARK VINA RESULT:      -6.7      1.666      2.288
REMARK  Name = 
REMARK  2 active torsions:
REMARK  status: ('A' for Active; 'I' for Inactive)
REMARK    1  A    between atoms: C_8  and  C_9
REMARK    2  A    between atoms: C_13  and  C_14
REMARK                            x       y       z     vdW  Elec       q    Type
REMARK                         _______ _______ _______ _____ _____    ______ ____
ROOT
ATOM      1  C   UNL     1       6.329   7.294  17.151  0.00  0.00    +0.000 C 
ATOM      2  C   UNL     1       5.972   6.281  17.951  0.00  0.00    +0.000 C 
ATOM      3  C   UNL     1       7.001   5.459  18.613  0.00  0.00    +0.000 C 
ATOM      4  O   UNL     1       8.199   5.476  18.378  0.00  0.00    +0.000 OA
ATOM      5  O   UNL     1       6.387   4.654  19.506  0.00  0.00    +0.000 OA
ATOM      6  C   UNL     1       4.964   4.639  19.308  0.00  0.00    +0.000 C 
ATOM      7  C   UNL     1       4.662   3.227  18.892  0.00  0.00    +0.000 C 
ATOM      8  C   UNL     1       3.850   2.344  19.503  0.00  0.00    +0.000 C 
ATOM      9  C   UNL     1       3.819   0.908  19.042  0.00  0.00    +0.000 C 
ATOM     10  C   UNL     1       2.992   2.655  20.705  0.00  0.00    +0.000 C 
ATOM     11  C   UNL     1       1.537   2.960  20.352  0.00  0.00    +0.000 C 
ATOM     12  C   UNL     1       1.268   4.428  19.974  0.00  0.00    +0.000 C 
ATOM     13  C   UNL     1       1.602   4.922  18.577  0.00  0.00    +0.000 C 
ATOM     14  C   UNL     1       1.222   4.010  17.450  0.00  0.00    +0.000 C 
ATOM     15  C   UNL     1       2.187   6.085  18.239  0.00  0.00    +0.000 C 
ATOM     16  C   UNL     1       3.488   6.643  18.777  0.00  0.00    +0.000 C 
ATOM     17  C   UNL     1       4.624   5.713  18.260  0.00  0.00    +0.000 C 
ENDROOT
TORSDOF 0
ENDMDL
MODEL 5
REMARK VINA RESULT:      -6.5      2.403      5.058
REMARK  Name = 
REMARK  2 active torsions:
REMARK  status: ('A' for Active; 'I' for Inactive)
REMARK    1  A    between atoms: C_8  and  C_9
REMARK    2  A    between atoms: C_13  and  C_14
REMARK                            x       y       z     vdW  Elec       q    Type
REMARK                         _______ _______ _______ _____ _____    ______ ____
ROOT
ATOM      1  C   UNL     1       1.490   3.297  20.868  0.00  0.00    +0.000 C 
ATOM      2  C   UNL     1       2.710   3.345  20.319  0.00  0.00    +0.000 C 
ATOM      3  C   UNL     1       3.783   2.465  20.815  0.00  0.00    +0.000 C 
ATOM      4  O   UNL     1       3.747   1.784  21.828  0.00  0.00    +0.000 OA
ATOM      5  O   UNL     1       4.833   2.564  19.972  0.00  0.00    +0.000 OA
ATOM      6  C   UNL     1       4.686   3.680  19.080  0.00  0.00    +0.000 C 
ATOM      7  C   UNL     1       5.807   4.607  19.457  0.00  0.00    +0.000 C 
ATOM      8  C   UNL     1       6.808   5.052  18.674  0.00  0.00    +0.000 C 
ATOM      9  C   UNL     1       7.950   5.828  19.283  0.00  0.00    +0.000 C 
ATOM     10  C   UNL     1       6.936   4.765  17.198  0.00  0.00    +0.000 C 
ATOM     11  C   UNL     1       6.433   5.904  16.312  0.00  0.00    +0.000 C 
ATOM     12  C   UNL     1       4.919   5.870  16.030  0.00  0.00    +0.000 C 
ATOM     13  C   UNL     1       3.945   6.390  17.071  0.00  0.00    +0.000 C 
ATOM     14  C   UNL     1       4.326   7.673  17.744  0.00  0.00    +0.000 C 
ATOM     15  C   UNL     1       2.778   5.837  17.449  0.00  0.00    +0.000 C 
ATOM     16  C   UNL     1       2.549   4.411  17.906  0.00  0.00    +0.000 C 
ATOM     17  C   UNL     1       3.273   4.257  19.275  0.00  0.00    +0.000 C 
ENDROOT
TORSDOF 0
ENDMDL
MODEL 6
REMARK VINA RESULT:      -6.5      1.866      2.693
REMARK  Name = 
REMARK  2 active torsions:
REMARK  status: ('A' for Active; 'I' for Inactive)
REMARK    1  A    between atoms: C_8  and  C_9
REMARK    2  A    between atoms: C_13  and  C_14
REMARK                            x       y       z     vdW  Elec       q    Type
REMARK                         _______ _______ _______ _____ _____    ______ ____
ROOT
ATOM      1  C   UNL     1       5.490   4.821  15.471  0.00  0.00    +0.000 C 
ATOM      2  C   UNL     1       5.312   4.600  16.779  0.00  0.00    +0.000 C 
ATOM      3  C   UNL     1       6.469   4.570  17.693  0.00  0.00    +0.000 C 
ATOM      4  O   UNL     1       7.645   4.551  17.366  0.00  0.00    +0.000 OA
ATOM      5  O   UNL     1       6.004   4.536  18.960  0.00  0.00    +0.000 OA
ATOM      6  C   UNL     1       4.600   4.237  18.997  0.00  0.00    +0.000 C 
ATOM      7  C   UNL     1       4.522   2.901  19.682  0.00  0.00    +0.000 C 
ATOM      8  C   UNL     1       3.872   2.596  20.820  0.00  0.00    +0.000 C 
ATOM      9  C   UNL     1       4.066   1.241  21.455  0.00  0.00    +0.000 C 
ATOM     10  C   UNL     1       2.992   3.551  21.589  0.00  0.00    +0.000 C 
ATOM     11  C   UNL     1       1.502   3.372  21.301  0.00  0.00    +0.000 C 
ATOM     12  C   UNL     1       0.996   4.143  20.068  0.00  0.00    +0.000 C 
ATOM     13  C   UNL     1       1.226   3.579  18.677  0.00  0.00    +0.000 C 
ATOM     14  C   UNL     1       0.982   2.109  18.516  0.00  0.00    +0.000 C 
ATOM     15  C   UNL     1       1.612   4.248  17.576  0.00  0.00    +0.000 C 
ATOM     16  C   UNL     1       2.814   5.159  17.436  0.00  0.00    +0.000 C 
ATOM     17  C   UNL     1       4.077   4.257  17.550  0.00  0.00    +0.000 C 
ENDROOT
TORSDOF 0
ENDMDL
MODEL 7
REMARK VINA RESULT:      -6.5      1.525      1.986
REMARK  Name = 
REMARK  2 active torsions:
REMARK  status: ('A' for Active; 'I' for Inactive)
REMARK    1  A    between atoms: C_8  and  C_9
REMARK    2  A    between atoms: C_13  and  C_14
REMARK                            x       y       z     vdW  Elec       q    Type
REMARK                         _______ _______ _______ _____ _____    ______ ____
ROOT
ATOM      1  C   UNL     1       5.292   6.779  15.434  0.00  0.00    +0.000 C 
ATOM      2  C   UNL     1       5.342   5.876  16.420  0.00  0.00    +0.000 C 
ATOM      3  C   UNL     1       6.572   5.097  16.653  0.00  0.00    +0.000 C 
ATOM      4  O   UNL     1       7.543   5.047  15.915  0.00  0.00    +0.000 OA
ATOM      5  O   UNL     1       6.429   4.420  17.812  0.00  0.00    +0.000 OA
ATOM      6  C   UNL     1       5.065   4.433  18.263  0.00  0.00    +0.000 C 
ATOM      7  C   UNL     1       4.636   2.994  18.189  0.00  0.00    +0.000 C 
ATOM      8  C   UNL     1       4.192   2.214  19.192  0.00  0.00    +0.000 C 
ATOM      9  C   UNL     1       3.988   0.738  18.962  0.00  0.00    +0.000 C 
ATOM     10  C   UNL     1       3.946   2.688  20.604  0.00  0.00    +0.000 C 
ATOM     11  C   UNL     1       2.479   3.002  20.893  0.00  0.00    +0.000 C 
ATOM     12  C   UNL     1       2.044   4.427  20.504  0.00  0.00    +0.000 C 
ATOM     13  C   UNL     1       1.719   4.749  19.056  0.00  0.00    +0.000 C 
ATOM     14  C   UNL     1       0.899   3.730  18.325  0.00  0.00    +0.000 C 
ATOM     15  C   UNL     1       2.074   5.846  18.362  0.00  0.00    +0.000 C 
ATOM     16  C   UNL     1       3.469   6.415  18.205  0.00  0.00    +0.000 C 
ATOM     17  C   UNL     1       4.278   5.393  17.354  0.00  0.00    +0.000 C 
ENDROOT
TORSDOF 0
ENDMDL
MODEL 8
REMARK VINA RESULT:      -6.4      2.113      3.756
REMARK  Name = 
REMARK  2 active torsions:
REMARK  status: ('A' for Active; 'I' for Inactive)
REMARK    1  A    between atoms: C_8  and  C_9
REMARK    2  A    between atoms: C_13  and  C_14
REMARK                            x       y       z     vdW  Elec       q    Type
REMARK                         _______ _______ _______ _____ _____    ______ ____
ROOT
ATOM      1  C   UNL     1       7.740   4.568  17.151  0.00  0.00    +0.000 C 
ATOM      2  C   UNL     1       6.727   4.729  18.011  0.00  0.00    +0.000 C 
ATOM      3  C   UNL     1       6.971   5.301  19.347  0.00  0.00    +0.000 C 
ATOM      4  O   UNL     1       8.062   5.499  19.858  0.00  0.00    +0.000 OA
ATOM      5  O   UNL     1       5.776   5.542  19.927  0.00  0.00    +0.000 OA
ATOM      6  C   UNL     1       4.707   4.902  19.212  0.00  0.00    +0.000 C 
ATOM      7  C   UNL     1       4.174   3.880  20.178  0.00  0.00    +0.000 C 
ATOM      8  C   UNL     1       2.925   3.783  20.668  0.00  0.00    +0.000 C 
ATOM      9  C   UNL     1       2.626   2.802  21.775  0.00  0.00    +0.000 C 
ATOM     10  C   UNL     1       1.767   4.656  20.249  0.00  0.00    +0.000 C 
ATOM     11  C   UNL     1       0.855   4.000  19.214  0.00  0.00    +0.000 C 
ATOM     12  C   UNL     1       1.315   4.178  17.756  0.00  0.00    +0.000 C 
ATOM     13  C   UNL     1       2.413   3.291  17.196  0.00  0.00    +0.000 C 
ATOM     14  C   UNL     1       2.323   1.836  17.547  0.00  0.00    +0.000 C 
ATOM     15  C   UNL     1       3.446   3.659  16.417  0.00  0.00    +0.000 C 
ATOM     16  C   UNL     1       4.441   4.768  16.685  0.00  0.00    +0.000 C 
ATOM     17  C   UNL     1       5.290   4.324  17.911  0.00  0.00    +0.000 C 
ENDROOT
TORSDOF 0
ENDMDL
MODEL 9
REMARK VINA RESULT:      -6.3      2.681      5.306
REMARK  Name = 
REMARK  2 active torsions:
REMARK  status: ('A' for Active; 'I' for Inactive)
REMARK    1  A    between atoms: C_8  and  C_9
REMARK    2  A    between atoms: C_13  and  C_14
REMARK                            x       y       z     vdW  Elec       q    Type
REMARK                         _______ _______ _______ _____ _____    ______ ____
ROOT
ATOM      1  C   UNL     1       1.328   3.076  19.607  0.00  0.00    +0.000 C 
ATOM      2  C   UNL     1       2.660   3.183  19.530  0.00  0.00    +0.000 C 
ATOM      3  C   UNL     1       3.505   2.780  20.668  0.00  0.00    +0.000 C 
ATOM      4  O   UNL     1       3.117   2.508  21.793  0.00  0.00    +0.000 OA
ATOM      5  O   UNL     1       4.793   2.794  20.263  0.00  0.00    +0.000 OA
ATOM      6  C   UNL     1       4.939   3.468  19.002  0.00  0.00    +0.000 C 
ATOM      7  C   UNL     1       5.765   4.682  19.324  0.00  0.00    +0.000 C 
ATOM      8  C   UNL     1       6.963   5.022  18.813  0.00  0.00    +0.000 C 
ATOM      9  C   UNL     1       7.727   6.183  19.399  0.00  0.00    +0.000 C 
ATOM     10  C   UNL     1       7.675   4.268  17.717  0.00  0.00    +0.000 C 
ATOM     11  C   UNL     1       7.490   4.889  16.333  0.00  0.00    +0.000 C 
ATOM     12  C   UNL     1       6.213   4.441  15.599  0.00  0.00    +0.000 C 
ATOM     13  C   UNL     1       4.879   5.077  15.948  0.00  0.00    +0.000 C 
ATOM     14  C   UNL     1       4.888   6.564  16.128  0.00  0.00    +0.000 C 
ATOM     15  C   UNL     1       3.693   4.460  16.102  0.00  0.00    +0.000 C 
ATOM     16  C   UNL     1       3.391   3.272  16.992  0.00  0.00    +0.000 C 
ATOM     17  C   UNL     1       3.529   3.765  18.461  0.00  0.00    +0.000 C 
ENDROOT
TORSDOF 0
ENDMDL
