MODEL 1
REMARK VINA RESULT:      -8.1      0.000      0.000
REMARK  Name = 
REMARK  8 active torsions:
REMARK  status: ('A' for Active; 'I' for Inactive)
REMARK    1  A    between atoms: C_1  and  C_2
REMARK    2  A    between atoms: C_2  and  N_3
REMARK    3  A    between atoms: N_3  and  C_4
REMARK    4  A    between atoms: N_3  and  C_6
REMARK    5  A    between atoms: C_4  and  C_5
REMARK    6  A    between atoms: C_6  and  C_7
REMARK    7  A    between atoms: C_7  and  O_8
REMARK    8  A    between atoms: C_7  and  C_9
REMARK                            x       y       z     vdW  Elec       q    Type
REMARK                         _______ _______ _______ _____ _____    ______ ____
ROOT
ATOM      1  C   UNL     1       5.186   4.875  16.058  0.00  0.00    +0.000 A 
ATOM      2  C   UNL     1       5.202   6.268  16.116  0.00  0.00    +0.000 A 
ATOM      3  C   UNL     1       4.426   6.937  17.059  0.00  0.00    +0.000 A 
ATOM      4  C   UNL     1       3.620   6.233  17.968  0.00  0.00    +0.000 A 
ATOM      5  C   UNL     1       2.898   6.935  18.935  0.00  0.00    +0.000 A 
ATOM      6  C   UNL     1       2.115   6.260  19.869  0.00  0.00    +0.000 A 
ATOM      7  C   UNL     1       2.009   4.868  19.845  0.00  0.00    +0.000 A 
ATOM      8  C   UNL     1       1.201   4.220  20.795  0.00  0.00    +0.000 A 
ATOM      9  C   UNL     1       1.055   2.838  20.787  0.00  0.00    +0.000 A 
ATOM     10  C   UNL     1       1.714   2.082  19.827  0.00  0.00    +0.000 A 
ATOM     11  C   UNL     1       2.528   2.716  18.884  0.00  0.00    +0.000 A 
ATOM     12  C   UNL     1       2.709   4.123  18.864  0.00  0.00    +0.000 A 
ATOM     13  C   UNL     1       3.552   4.819  17.924  0.00  0.00    +0.000 A 
ATOM     14  C   UNL     1       4.355   4.174  16.951  0.00  0.00    +0.000 A 
ENDROOT
BRANCH   1  15
ATOM     15  C   UNL     1       6.080   4.112  15.105  0.00  0.00    +0.000 C 
BRANCH  15  16
ATOM     16  O   UNL     1       7.426   4.495  15.396  0.00  0.00    +0.000 OA
ATOM     17  H   UNL     1       7.427   5.457  15.526  0.00  0.00    +0.000 HD
ENDBRANCH  15  16
BRANCH  15  18
ATOM     18  C   UNL     1       5.704   4.331  13.609  0.00  0.00    +0.000 C 
BRANCH  18  19
ATOM     19  N   UNL     1       6.510   3.561  12.626  0.00  0.00    +0.000 NA
BRANCH  19  21
ATOM     20  C   UNL     1       4.337   3.144  11.397  0.00  0.00    +0.000 C 
ATOM     21  C   UNL     1       5.681   2.601  11.875  0.00  0.00    +0.000 C 
ENDBRANCH  19  21
BRANCH  19  22
ATOM     22  C   UNL     1       7.310   4.457  11.770  0.00  0.00    +0.000 C 
ATOM     23  C   UNL     1       8.059   5.587  12.474  0.00  0.00    +0.000 C 
ENDBRANCH  19  22
ENDBRANCH  18  19
ENDBRANCH  15  18
ENDBRANCH   1  15
TORSDOF 6
ENDMDL
MODEL 2
REMARK VINA RESULT:      -7.9      4.433      6.971
REMARK  Name = 
REMARK  8 active torsions:
REMARK  status: ('A' for Active; 'I' for Inactive)
REMARK    1  A    between atoms: C_1  and  C_2
REMARK    2  A    between atoms: C_2  and  N_3
REMARK    3  A    between atoms: N_3  and  C_4
REMARK    4  A    between atoms: N_3  and  C_6
REMARK    5  A    between atoms: C_4  and  C_5
REMARK    6  A    between atoms: C_6  and  C_7
REMARK    7  A    between atoms: C_7  and  O_8
REMARK    8  A    between atoms: C_7  and  C_9
REMARK                            x       y       z     vdW  Elec       q    Type
REMARK                         _______ _______ _______ _____ _____    ______ ____
ROOT
ATOM      1  C   UNL     1       2.379   6.899  19.352  0.00  0.00    +0.000 A 
ATOM      2  C   UNL     1       2.660   7.509  18.131  0.00  0.00    +0.000 A 
ATOM      3  C   UNL     1       2.224   8.809  17.882  0.00  0.00    +0.000 A 
ATOM      4  C   UNL     1       1.501   9.529  18.846  0.00  0.00    +0.000 A 
ATOM      5  C   UNL     1       1.127  10.849  18.583  0.00  0.00    +0.000 A 
ATOM      6  C   UNL     1       0.438  11.597  19.535  0.00  0.00    +0.000 A 
ATOM      7  C   UNL     1       0.077  11.039  20.763  0.00  0.00    +0.000 A 
ATOM      8  C   UNL     1      -0.629  11.819  21.695  0.00  0.00    +0.000 A 
ATOM      9  C   UNL     1      -1.023  11.290  22.919  0.00  0.00    +0.000 A 
ATOM     10  C   UNL     1      -0.719   9.971  23.228  0.00  0.00    +0.000 A 
ATOM     11  C   UNL     1      -0.008   9.191  22.312  0.00  0.00    +0.000 A 
ATOM     12  C   UNL     1       0.419   9.696  21.058  0.00  0.00    +0.000 A 
ATOM     13  C   UNL     1       1.169   8.936  20.089  0.00  0.00    +0.000 A 
ATOM     14  C   UNL     1       1.630   7.613  20.305  0.00  0.00    +0.000 A 
ENDROOT
BRANCH   1  15
ATOM     15  C   UNL     1       2.910   5.523  19.690  0.00  0.00    +0.000 C 
BRANCH  15  16
ATOM     16  O   UNL     1       4.333   5.631  19.768  0.00  0.00    +0.000 OA
ATOM     17  H   UNL     1       4.651   4.862  20.268  0.00  0.00    +0.000 HD
ENDBRANCH  15  16
BRANCH  15  18
ATOM     18  C   UNL     1       2.446   4.426  18.684  0.00  0.00    +0.000 C 
BRANCH  18  19
ATOM     19  N   UNL     1       1.438   3.465  19.203  0.00  0.00    +0.000 NA
BRANCH  19  21
ATOM     20  C   UNL     1       3.186   1.894  18.262  0.00  0.00    +0.000 C 
ATOM     21  C   UNL     1       1.816   2.070  18.913  0.00  0.00    +0.000 C 
ENDBRANCH  19  21
BRANCH  19  22
ATOM     22  C   UNL     1       1.137   3.719  20.624  0.00  0.00    +0.000 C 
ATOM     23  C   UNL     1       1.508   2.612  21.610  0.00  0.00    +0.000 C 
ENDBRANCH  19  22
ENDBRANCH  18  19
ENDBRANCH  15  18
ENDBRANCH   1  15
TORSDOF 6
ENDMDL
MODEL 3
REMARK VINA RESULT:      -7.8      3.911      6.068
REMARK  Name = 
REMARK  8 active torsions:
REMARK  status: ('A' for Active; 'I' for Inactive)
REMARK    1  A    between atoms: C_1  and  C_2
REMARK    2  A    between atoms: C_2  and  N_3
REMARK    3  A    between atoms: N_3  and  C_4
REMARK    4  A    between atoms: N_3  and  C_6
REMARK    5  A    between atoms: C_4  and  C_5
REMARK    6  A    between atoms: C_6  and  C_7
REMARK    7  A    between atoms: C_7  and  O_8
REMARK    8  A    between atoms: C_7  and  C_9
REMARK                            x       y       z     vdW  Elec       q    Type
REMARK                         _______ _______ _______ _____ _____    ______ ____
ROOT
ATOM      1  C   UNL     1       3.794   5.611  18.964  0.00  0.00    +0.000 A 
ATOM      2  C   UNL     1       4.090   6.093  17.690  0.00  0.00    +0.000 A 
ATOM      3  C   UNL     1       3.525   7.285  17.245  0.00  0.00    +0.000 A 
ATOM      4  C   UNL     1       2.654   8.026  18.061  0.00  0.00    +0.000 A 
ATOM      5  C   UNL     1       2.149   9.244  17.602  0.00  0.00    +0.000 A 
ATOM      6  C   UNL     1       1.309  10.014  18.404  0.00  0.00    +0.000 A 
ATOM      7  C   UNL     1       0.928   9.575  19.673  0.00  0.00    +0.000 A 
ATOM      8  C   UNL     1       0.070  10.372  20.451  0.00  0.00    +0.000 A 
ATOM      9  C   UNL     1      -0.347   9.957  21.710  0.00  0.00    +0.000 A 
ATOM     10  C   UNL     1       0.086   8.736  22.211  0.00  0.00    +0.000 A 
ATOM     11  C   UNL     1       0.947   7.941  21.449  0.00  0.00    +0.000 A 
ATOM     12  C   UNL     1       1.403   8.334  20.165  0.00  0.00    +0.000 A 
ATOM     13  C   UNL     1       2.305   7.557  19.351  0.00  0.00    +0.000 A 
ATOM     14  C   UNL     1       2.900   6.341  19.769  0.00  0.00    +0.000 A 
ENDROOT
BRANCH   1  15
ATOM     15  C   UNL     1       4.457   4.367  19.513  0.00  0.00    +0.000 C 
BRANCH  15  16
ATOM     16  O   UNL     1       5.867   4.536  19.351  0.00  0.00    +0.000 OA
ATOM     17  H   UNL     1       6.186   5.030  20.124  0.00  0.00    +0.000 HD
ENDBRANCH  15  16
BRANCH  15  18
ATOM     18  C   UNL     1       3.931   3.056  18.855  0.00  0.00    +0.000 C 
BRANCH  18  19
ATOM     19  N   UNL     1       2.935   2.292  19.652  0.00  0.00    +0.000 NA
BRANCH  19  21
ATOM     20  C   UNL     1       1.432   2.671  21.653  0.00  0.00    +0.000 C 
ATOM     21  C   UNL     1       2.815   2.820  21.023  0.00  0.00    +0.000 C 
ENDBRANCH  19  21
BRANCH  19  22
ATOM     22  C   UNL     1       1.649   2.184  18.939  0.00  0.00    +0.000 C 
ATOM     23  C   UNL     1       1.232   3.386  18.093  0.00  0.00    +0.000 C 
ENDBRANCH  19  22
ENDBRANCH  18  19
ENDBRANCH  15  18
ENDBRANCH   1  15
TORSDOF 6
ENDMDL
MODEL 4
REMARK VINA RESULT:      -7.8      0.942      1.137
REMARK  Name = 
REMARK  8 active torsions:
REMARK  status: ('A' for Active; 'I' for Inactive)
REMARK    1  A    between atoms: C_1  and  C_2
REMARK    2  A    between atoms: C_2  and  N_3
REMARK    3  A    between atoms: N_3  and  C_4
REMARK    4  A    between atoms: N_3  and  C_6
REMARK    5  A    between atoms: C_4  and  C_5
REMARK    6  A    between atoms: C_6  and  C_7
REMARK    7  A    between atoms: C_7  and  O_8
REMARK    8  A    between atoms: C_7  and  C_9
REMARK                            x       y       z     vdW  Elec       q    Type
REMARK                         _______ _______ _______ _____ _____    ______ ____
ROOT
ATOM      1  C   UNL     1       5.348   5.048  15.650  0.00  0.00    +0.000 A 
ATOM      2  C   UNL     1       5.516   6.397  15.961  0.00  0.00    +0.000 A 
ATOM      3  C   UNL     1       4.778   6.974  16.991  0.00  0.00    +0.000 A 
ATOM      4  C   UNL     1       3.857   6.220  17.736  0.00  0.00    +0.000 A 
ATOM      5  C   UNL     1       3.173   6.819  18.796  0.00  0.00    +0.000 A 
ATOM      6  C   UNL     1       2.278   6.085  19.571  0.00  0.00    +0.000 A 
ATOM      7  C   UNL     1       2.019   4.742  19.291  0.00  0.00    +0.000 A 
ATOM      8  C   UNL     1       1.101   4.035  20.087  0.00  0.00    +0.000 A 
ATOM      9  C   UNL     1       0.803   2.702  19.824  0.00  0.00    +0.000 A 
ATOM     10  C   UNL     1       1.417   2.057  18.758  0.00  0.00    +0.000 A 
ATOM     11  C   UNL     1       2.339   2.749  17.968  0.00  0.00    +0.000 A 
ATOM     12  C   UNL     1       2.677   4.105  18.209  0.00  0.00    +0.000 A 
ATOM     13  C   UNL     1       3.634   4.854  17.433  0.00  0.00    +0.000 A 
ATOM     14  C   UNL     1       4.405   4.302  16.380  0.00  0.00    +0.000 A 
ENDROOT
BRANCH   1  15
ATOM     15  C   UNL     1       6.195   4.367  14.597  0.00  0.00    +0.000 C 
BRANCH  15  16
ATOM     16  O   UNL     1       7.410   5.112  14.491  0.00  0.00    +0.000 OA
ATOM     17  H   UNL     1       7.551   5.553  15.345  0.00  0.00    +0.000 HD
ENDBRANCH  15  16
BRANCH  15  18
ATOM     18  C   UNL     1       5.463   4.216  13.230  0.00  0.00    +0.000 C 
BRANCH  18  19
ATOM     19  N   UNL     1       5.784   2.985  12.463  0.00  0.00    +0.000 NA
BRANCH  19  21
ATOM     20  C   UNL     1       3.865   3.800  11.029  0.00  0.00    +0.000 C 
ATOM     21  C   UNL     1       4.700   2.625  11.531  0.00  0.00    +0.000 C 
ENDBRANCH  19  21
BRANCH  19  22
ATOM     22  C   UNL     1       7.111   3.080  11.827  0.00  0.00    +0.000 C 
ATOM     23  C   UNL     1       7.513   1.930  10.906  0.00  0.00    +0.000 C 
ENDBRANCH  19  22
ENDBRANCH  18  19
ENDBRANCH  15  18
ENDBRANCH   1  15
TORSDOF 6
ENDMDL
MODEL 5
REMARK VINA RESULT:      -7.7      1.109      1.627
REMARK  Name = 
REMARK  8 active torsions:
REMARK  status: ('A' for Active; 'I' for Inactive)
REMARK    1  A    between atoms: C_1  and  C_2
REMARK    2  A    between atoms: C_2  and  N_3
REMARK    3  A    between atoms: N_3  and  C_4
REMARK    4  A    between atoms: N_3  and  C_6
REMARK    5  A    between atoms: C_4  and  C_5
REMARK    6  A    between atoms: C_6  and  C_7
REMARK    7  A    between atoms: C_7  and  O_8
REMARK    8  A    between atoms: C_7  and  C_9
REMARK                            x       y       z     vdW  Elec       q    Type
REMARK                         _______ _______ _______ _____ _____    ______ ____
ROOT
ATOM      1  C   UNL     1       5.614   5.013  15.689  0.00  0.00    +0.000 A 
ATOM      2  C   UNL     1       5.708   6.370  15.993  0.00  0.00    +0.000 A 
ATOM      3  C   UNL     1       4.876   6.929  16.960  0.00  0.00    +0.000 A 
ATOM      4  C   UNL     1       3.933   6.146  17.647  0.00  0.00    +0.000 A 
ATOM      5  C   UNL     1       3.153   6.729  18.648  0.00  0.00    +0.000 A 
ATOM      6  C   UNL     1       2.233   5.969  19.367  0.00  0.00    +0.000 A 
ATOM      7  C   UNL     1       2.046   4.614  19.086  0.00  0.00    +0.000 A 
ATOM      8  C   UNL     1       1.101   3.880  19.824  0.00  0.00    +0.000 A 
ATOM      9  C   UNL     1       0.874   2.534  19.557  0.00  0.00    +0.000 A 
ATOM     10  C   UNL     1       1.587   1.902  18.547  0.00  0.00    +0.000 A 
ATOM     11  C   UNL     1       2.537   2.622  17.815  0.00  0.00    +0.000 A 
ATOM     12  C   UNL     1       2.804   3.992  18.063  0.00  0.00    +0.000 A 
ATOM     13  C   UNL     1       3.785   4.770  17.347  0.00  0.00    +0.000 A 
ATOM     14  C   UNL     1       4.650   4.238  16.358  0.00  0.00    +0.000 A 
ENDROOT
BRANCH   1  15
ATOM     15  C   UNL     1       6.560   4.354  14.708  0.00  0.00    +0.000 C 
BRANCH  15  16
ATOM     16  O   UNL     1       7.121   5.395  13.905  0.00  0.00    +0.000 OA
ATOM     17  H   UNL     1       8.080   5.252  13.881  0.00  0.00    +0.000 HD
ENDBRANCH  15  16
BRANCH  15  18
ATOM     18  C   UNL     1       5.878   3.242  13.857  0.00  0.00    +0.000 C 
BRANCH  18  19
ATOM     19  N   UNL     1       5.767   3.524  12.402  0.00  0.00    +0.000 NA
BRANCH  19  21
ATOM     20  C   UNL     1       6.760   1.553  11.163  0.00  0.00    +0.000 C 
ATOM     21  C   UNL     1       6.919   2.989  11.654  0.00  0.00    +0.000 C 
ENDBRANCH  19  21
BRANCH  19  22
ATOM     22  C   UNL     1       4.460   3.096  11.871  0.00  0.00    +0.000 C 
ATOM     23  C   UNL     1       3.927   3.865  10.663  0.00  0.00    +0.000 C 
ENDBRANCH  19  22
ENDBRANCH  18  19
ENDBRANCH  15  18
ENDBRANCH   1  15
TORSDOF 6
ENDMDL
MODEL 6
REMARK VINA RESULT:      -7.7      1.699      2.548
REMARK  Name = 
REMARK  8 active torsions:
REMARK  status: ('A' for Active; 'I' for Inactive)
REMARK    1  A    between atoms: C_1  and  C_2
REMARK    2  A    between atoms: C_2  and  N_3
REMARK    3  A    between atoms: N_3  and  C_4
REMARK    4  A    between atoms: N_3  and  C_6
REMARK    5  A    between atoms: C_4  and  C_5
REMARK    6  A    between atoms: C_6  and  C_7
REMARK    7  A    between atoms: C_7  and  O_8
REMARK    8  A    between atoms: C_7  and  C_9
REMARK                            x       y       z     vdW  Elec       q    Type
REMARK                         _______ _______ _______ _____ _____    ______ ____
ROOT
ATOM      1  C   UNL     1       6.165   4.305  14.923  0.00  0.00    +0.000 A 
ATOM      2  C   UNL     1       7.218   4.959  15.561  0.00  0.00    +0.000 A 
ATOM      3  C   UNL     1       7.096   5.345  16.894  0.00  0.00    +0.000 A 
ATOM      4  C   UNL     1       5.922   5.087  17.620  0.00  0.00    +0.000 A 
ATOM      5  C   UNL     1       5.856   5.441  18.970  0.00  0.00    +0.000 A 
ATOM      6  C   UNL     1       4.716   5.167  19.722  0.00  0.00    +0.000 A 
ATOM      7  C   UNL     1       3.601   4.560  19.141  0.00  0.00    +0.000 A 
ATOM      8  C   UNL     1       2.463   4.309  19.927  0.00  0.00    +0.000 A 
ATOM      9  C   UNL     1       1.327   3.725  19.377  0.00  0.00    +0.000 A 
ATOM     10  C   UNL     1       1.312   3.385  18.031  0.00  0.00    +0.000 A 
ATOM     11  C   UNL     1       2.442   3.621  17.244  0.00  0.00    +0.000 A 
ATOM     12  C   UNL     1       3.623   4.206  17.769  0.00  0.00    +0.000 A 
ATOM     13  C   UNL     1       4.818   4.452  17.001  0.00  0.00    +0.000 A 
ATOM     14  C   UNL     1       4.980   4.073  15.645  0.00  0.00    +0.000 A 
ENDROOT
BRANCH   1  15
ATOM     15  C   UNL     1       6.294   3.794  13.505  0.00  0.00    +0.000 C 
BRANCH  15  16
ATOM     16  O   UNL     1       7.219   4.652  12.833  0.00  0.00    +0.000 OA
ATOM     17  H   UNL     1       7.254   5.483  13.335  0.00  0.00    +0.000 HD
ENDBRANCH  15  16
BRANCH  15  18
ATOM     18  C   UNL     1       4.926   3.692  12.767  0.00  0.00    +0.000 C 
BRANCH  18  19
ATOM     19  N   UNL     1       4.960   3.017  11.443  0.00  0.00    +0.000 NA
BRANCH  19  21
ATOM     20  C   UNL     1       7.040   1.704  10.846  0.00  0.00    +0.000 C 
ATOM     21  C   UNL     1       5.665   1.724  11.509  0.00  0.00    +0.000 C 
ENDBRANCH  19  21
BRANCH  19  22
ATOM     22  C   UNL     1       3.613   2.933  10.850  0.00  0.00    +0.000 C 
ATOM     23  C   UNL     1       3.219   4.049   9.884  0.00  0.00    +0.000 C 
ENDBRANCH  19  22
ENDBRANCH  18  19
ENDBRANCH  15  18
ENDBRANCH   1  15
TORSDOF 6
ENDMDL
MODEL 7
REMARK VINA RESULT:      -7.7      3.874      6.028
REMARK  Name = 
REMARK  8 active torsions:
REMARK  status: ('A' for Active; 'I' for Inactive)
REMARK    1  A    between atoms: C_1  and  C_2
REMARK    2  A    between atoms: C_2  and  N_3
REMARK    3  A    between atoms: N_3  and  C_4
REMARK    4  A    between atoms: N_3  and  C_6
REMARK    5  A    between atoms: C_4  and  C_5
REMARK    6  A    between atoms: C_6  and  C_7
REMARK    7  A    between atoms: C_7  and  O_8
REMARK    8  A    between atoms: C_7  and  C_9
REMARK                            x       y       z     vdW  Elec       q    Type
REMARK                         _______ _______ _______ _____ _____    ______ ____
ROOT
ATOM      1  C   UNL     1       2.464   6.609  19.353  0.00  0.00    +0.000 A 
ATOM      2  C   UNL     1       2.728   7.172  18.105  0.00  0.00    +0.000 A 
ATOM      3  C   UNL     1       2.297   8.465  17.816  0.00  0.00    +0.000 A 
ATOM      4  C   UNL     1       1.594   9.225  18.765  0.00  0.00    +0.000 A 
ATOM      5  C   UNL     1       1.224  10.537  18.459  0.00  0.00    +0.000 A 
ATOM      6  C   UNL     1       0.555  11.325  19.393  0.00  0.00    +0.000 A 
ATOM      7  C   UNL     1       0.211  10.815  20.647  0.00  0.00    +0.000 A 
ATOM      8  C   UNL     1      -0.474  11.634  21.561  0.00  0.00    +0.000 A 
ATOM      9  C   UNL     1      -0.851  11.153  22.810  0.00  0.00    +0.000 A 
ATOM     10  C   UNL     1      -0.550   9.844  23.163  0.00  0.00    +0.000 A 
ATOM     11  C   UNL     1       0.141   9.026  22.264  0.00  0.00    +0.000 A 
ATOM     12  C   UNL     1       0.550   9.481  20.985  0.00  0.00    +0.000 A 
ATOM     13  C   UNL     1       1.279   8.680  20.033  0.00  0.00    +0.000 A 
ATOM     14  C   UNL     1       1.735   7.364  20.291  0.00  0.00    +0.000 A 
ENDROOT
BRANCH   1  15
ATOM     15  C   UNL     1       2.991   5.243  19.732  0.00  0.00    +0.000 C 
BRANCH  15  16
ATOM     16  O   UNL     1       2.718   5.060  21.123  0.00  0.00    +0.000 OA
ATOM     17  H   UNL     1       3.288   5.677  21.610  0.00  0.00    +0.000 HD
ENDBRANCH  15  16
BRANCH  15  18
ATOM     18  C   UNL     1       4.499   5.055  19.389  0.00  0.00    +0.000 C 
BRANCH  18  19
ATOM     19  N   UNL     1       4.799   4.029  18.356  0.00  0.00    +0.000 NA
BRANCH  19  21
ATOM     20  C   UNL     1       3.488   1.868  18.219  0.00  0.00    +0.000 C 
ATOM     21  C   UNL     1       3.575   3.355  17.886  0.00  0.00    +0.000 C 
ENDBRANCH  19  21
BRANCH  19  22
ATOM     22  C   UNL     1       5.627   4.588  17.271  0.00  0.00    +0.000 C 
ATOM     23  C   UNL     1       5.224   4.218  15.844  0.00  0.00    +0.000 C 
ENDBRANCH  19  22
ENDBRANCH  18  19
ENDBRANCH  15  18
ENDBRANCH   1  15
TORSDOF 6
ENDMDL
MODEL 8
REMARK VINA RESULT:      -7.7      3.944      5.951
REMARK  Name = 
REMARK  8 active torsions:
REMARK  status: ('A' for Active; 'I' for Inactive)
REMARK    1  A    between atoms: C_1  and  C_2
REMARK    2  A    between atoms: C_2  and  N_3
REMARK    3  A    between atoms: N_3  and  C_4
REMARK    4  A    between atoms: N_3  and  C_6
REMARK    5  A    between atoms: C_4  and  C_5
REMARK    6  A    between atoms: C_6  and  C_7
REMARK    7  A    between atoms: C_7  and  O_8
REMARK    8  A    between atoms: C_7  and  C_9
REMARK                            x       y       z     vdW  Elec       q    Type
REMARK                         _______ _______ _______ _____ _____    ______ ____
ROOT
ATOM      1  C   UNL     1       2.649   6.758  19.202  0.00  0.00    +0.000 A 
ATOM      2  C   UNL     1       2.800   7.358  17.953  0.00  0.00    +0.000 A 
ATOM      3  C   UNL     1       2.244   8.611  17.708  0.00  0.00    +0.000 A 
ATOM      4  C   UNL     1       1.527   9.295  18.704  0.00  0.00    +0.000 A 
ATOM      5  C   UNL     1       1.030  10.573  18.440  0.00  0.00    +0.000 A 
ATOM      6  C   UNL     1       0.344  11.287  19.419  0.00  0.00    +0.000 A 
ATOM      7  C   UNL     1       0.110  10.732  20.679  0.00  0.00    +0.000 A 
ATOM      8  C   UNL     1      -0.597  11.476  21.641  0.00  0.00    +0.000 A 
ATOM      9  C   UNL     1      -0.866  10.948  22.898  0.00  0.00    +0.000 A 
ATOM     10  C   UNL     1      -0.435   9.666  23.213  0.00  0.00    +0.000 A 
ATOM     11  C   UNL     1       0.277   8.923  22.267  0.00  0.00    +0.000 A 
ATOM     12  C   UNL     1       0.580   9.429  20.977  0.00  0.00    +0.000 A 
ATOM     13  C   UNL     1       1.326   8.708  19.976  0.00  0.00    +0.000 A 
ATOM     14  C   UNL     1       1.907   7.433  20.188  0.00  0.00    +0.000 A 
ENDROOT
BRANCH   1  15
ATOM     15  C   UNL     1       3.312   5.438  19.531  0.00  0.00    +0.000 C 
BRANCH  15  16
ATOM     16  O   UNL     1       2.880   5.067  20.842  0.00  0.00    +0.000 OA
ATOM     17  H   UNL     1       1.933   5.273  20.899  0.00  0.00    +0.000 HD
ENDBRANCH  15  16
BRANCH  15  18
ATOM     18  C   UNL     1       4.865   5.487  19.404  0.00  0.00    +0.000 C 
BRANCH  18  19
ATOM     19  N   UNL     1       5.479   4.388  18.613  0.00  0.00    +0.000 NA
BRANCH  19  21
ATOM     20  C   UNL     1       4.849   4.280  16.165  0.00  0.00    +0.000 C 
ATOM     21  C   UNL     1       4.548   3.860  17.601  0.00  0.00    +0.000 C 
ENDBRANCH  19  21
BRANCH  19  22
ATOM     22  C   UNL     1       6.789   4.788  18.069  0.00  0.00    +0.000 C 
ATOM     23  C   UNL     1       7.628   5.733  18.928  0.00  0.00    +0.000 C 
ENDBRANCH  19  22
ENDBRANCH  18  19
ENDBRANCH  15  18
ENDBRANCH   1  15
TORSDOF 6
ENDMDL
MODEL 9
REMARK VINA RESULT:      -7.7      4.361      6.749
REMARK  Name = 
REMARK  8 active torsions:
REMARK  status: ('A' for Active; 'I' for Inactive)
REMARK    1  A    between atoms: C_1  and  C_2
REMARK    2  A    between atoms: C_2  and  N_3
REMARK    3  A    between atoms: N_3  and  C_4
REMARK    4  A    between atoms: N_3  and  C_6
REMARK    5  A    between atoms: C_4  and  C_5
REMARK    6  A    between atoms: C_6  and  C_7
REMARK    7  A    between atoms: C_7  and  O_8
REMARK    8  A    between atoms: C_7  and  C_9
REMARK                            x       y       z     vdW  Elec       q    Type
REMARK                         _______ _______ _______ _____ _____    ______ ____
ROOT
ATOM      1  C   UNL     1       2.710   6.955  19.216  0.00  0.00    +0.000 A 
ATOM      2  C   UNL     1       2.715   7.517  17.940  0.00  0.00    +0.000 A 
ATOM      3  C   UNL     1       2.007   8.690  17.690  0.00  0.00    +0.000 A 
ATOM      4  C   UNL     1       1.279   9.329  18.707  0.00  0.00    +0.000 A 
ATOM      5  C   UNL     1       0.624  10.532  18.433  0.00  0.00    +0.000 A 
ATOM      6  C   UNL     1      -0.078  11.204  19.431  0.00  0.00    +0.000 A 
ATOM      7  C   UNL     1      -0.171  10.679  20.722  0.00  0.00    +0.000 A 
ATOM      8  C   UNL     1      -0.897  11.378  21.701  0.00  0.00    +0.000 A 
ATOM      9  C   UNL     1      -1.028  10.874  22.990  0.00  0.00    +0.000 A 
ATOM     10  C   UNL     1      -0.436   9.661  23.319  0.00  0.00    +0.000 A 
ATOM     11  C   UNL     1       0.297   8.965  22.354  0.00  0.00    +0.000 A 
ATOM     12  C   UNL     1       0.462   9.449  21.032  0.00  0.00    +0.000 A 
ATOM     13  C   UNL     1       1.223   8.776  20.009  0.00  0.00    +0.000 A 
ATOM     14  C   UNL     1       1.957   7.583  20.225  0.00  0.00    +0.000 A 
ENDROOT
BRANCH   1  15
ATOM     15  C   UNL     1       3.537   5.732  19.545  0.00  0.00    +0.000 C 
BRANCH  15  16
ATOM     16  O   UNL     1       4.588   5.665  18.578  0.00  0.00    +0.000 OA
ATOM     17  H   UNL     1       4.196   5.335  17.753  0.00  0.00    +0.000 HD
ENDBRANCH  15  16
BRANCH  15  18
ATOM     18  C   UNL     1       2.694   4.423  19.605  0.00  0.00    +0.000 C 
BRANCH  18  19
ATOM     19  N   UNL     1       3.424   3.209  20.056  0.00  0.00    +0.000 NA
BRANCH  19  21
ATOM     20  C   UNL     1       1.324   2.970  21.448  0.00  0.00    +0.000 C 
ATOM     21  C   UNL     1       2.790   2.600  21.239  0.00  0.00    +0.000 C 
ENDBRANCH  19  21
BRANCH  19  22
ATOM     22  C   UNL     1       3.637   2.268  18.941  0.00  0.00    +0.000 C 
ATOM     23  C   UNL     1       2.510   2.157  17.915  0.00  0.00    +0.000 C 
ENDBRANCH  19  22
ENDBRANCH  18  19
ENDBRANCH  15  18
ENDBRANCH   1  15
TORSDOF 6
ENDMDL
