MODEL 1
REMARK VINA RESULT:      -9.1      0.000      0.000
REMARK  Name = 
REMARK  7 active torsions:
REMARK  status: ('A' for Active; 'I' for Inactive)
REMARK    1  A    between atoms: C_1  and  N_2
REMARK    2  A    between atoms: C_6  and  O_8
REMARK    3  A    between atoms: O_8  and  C_9
REMARK    4  A    between atoms: C_14  and  C_15
REMARK    5  A    between atoms: N_17  and  C_18
REMARK    6  A    between atoms: C_18  and  C_19
REMARK    7  A    between atoms: C_19  and  C_20
REMARK                            x       y       z     vdW  Elec       q    Type
REMARK                         _______ _______ _______ _____ _____    ______ ____
ROOT
ATOM      1  C   UNL     1       3.309   4.973  19.653  0.00  0.00    +0.000 A 
ATOM      2  C   UNL     1       3.609   3.593  19.597  0.00  0.00    +0.000 A 
ATOM      3  C   UNL     1       2.652   2.649  19.948  0.00  0.00    +0.000 A 
ATOM      4  C   UNL     1       1.406   3.074  20.389  0.00  0.00    +0.000 A 
ATOM      5  C   UNL     1       1.133   4.444  20.500  0.00  0.00    +0.000 A 
ATOM      6  C   UNL     1       2.084   5.429  20.162  0.00  0.00    +0.000 A 
ENDROOT
BRANCH   6   7
ATOM      7  C   UNL     1       1.699   6.875  20.384  0.00  0.00    +0.000 C 
ATOM      8  O   UNL     1       1.081   7.183  21.403  0.00  0.00    +0.000 OA
ATOM      9  N   UNL     1       2.060   7.817  19.432  0.00  0.00    +0.000 N 
ATOM     10  H   UNL     1       2.473   7.472  18.579  0.00  0.00    +0.000 HD
BRANCH   9  11
ATOM     11  C   UNL     1       1.469   9.151  19.372  0.00  0.00    +0.000 C 
BRANCH  11  12
ATOM     12  C   UNL     1       0.716   9.607  18.114  0.00  0.00    +0.000 C 
BRANCH  12  13
ATOM     13  C   UNL     1      -0.461  10.559  18.165  0.00  0.00    +0.000 A 
ATOM     14  C   UNL     1      -0.524  11.613  19.060  0.00  0.00    +0.000 A 
ATOM     15  N   UNL     1      -1.816  11.600  19.517  0.00  0.00    +0.000 N 
ATOM     16  C   UNL     1      -2.593  11.328  18.414  0.00  0.00    +0.000 A 
ATOM     17  C   UNL     1      -3.944  11.608  18.209  0.00  0.00    +0.000 A 
ATOM     18  C   UNL     1      -4.495  11.206  17.001  0.00  0.00    +0.000 A 
ATOM     19  C   UNL     1      -3.739  10.454  16.103  0.00  0.00    +0.000 A 
ATOM     20  C   UNL     1      -2.398  10.091  16.380  0.00  0.00    +0.000 A 
ATOM     21  C   UNL     1      -1.772  10.595  17.536  0.00  0.00    +0.000 A 
ATOM     22  H   UNL     1      -2.073  11.240  20.428  0.00  0.00    +0.000 HD
ENDBRANCH  12  13
ENDBRANCH  11  12
ENDBRANCH   9  11
ENDBRANCH   6   7
BRANCH   1  23
ATOM     23  O   UNL     1       4.313   5.882  19.292  0.00  0.00    +0.000 OA
BRANCH  23  29
ATOM     24  C   UNL     1       6.687   4.494  13.749  0.00  0.00    +0.000 C 
ATOM     25  N   UNL     1       6.648   5.249  14.995  0.00  0.00    +0.000 NA
ATOM     26  C   UNL     1       7.406   4.545  16.056  0.00  0.00    +0.000 C 
ATOM     27  C   UNL     1       7.367   5.330  17.380  0.00  0.00    +0.000 C 
ATOM     28  N   UNL     1       5.978   5.577  17.764  0.00  0.00    +0.000 N 
ATOM     29  C   UNL     1       5.564   5.351  19.062  0.00  0.00    +0.000 C 
ATOM     30  O   UNL     1       6.235   4.739  19.894  0.00  0.00    +0.000 OA
ATOM     31  C   UNL     1       5.180   6.251  16.745  0.00  0.00    +0.000 C 
ATOM     32  C   UNL     1       5.251   5.471  15.424  0.00  0.00    +0.000 C 
ENDBRANCH  23  29
ENDBRANCH   1  23
TORSDOF 6
ENDMDL
MODEL 2
REMARK VINA RESULT:      -9.0      2.153      2.946
REMARK  Name = 
REMARK  7 active torsions:
REMARK  status: ('A' for Active; 'I' for Inactive)
REMARK    1  A    between atoms: C_1  and  N_2
REMARK    2  A    between atoms: C_6  and  O_8
REMARK    3  A    between atoms: O_8  and  C_9
REMARK    4  A    between atoms: C_14  and  C_15
REMARK    5  A    between atoms: N_17  and  C_18
REMARK    6  A    between atoms: C_18  and  C_19
REMARK    7  A    between atoms: C_19  and  C_20
REMARK                            x       y       z     vdW  Elec       q    Type
REMARK                         _______ _______ _______ _____ _____    ______ ____
ROOT
ATOM      1  C   UNL     1       3.276   3.419  19.463  0.00  0.00    +0.000 A 
ATOM      2  C   UNL     1       3.447   2.417  20.445  0.00  0.00    +0.000 A 
ATOM      3  C   UNL     1       2.649   2.403  21.583  0.00  0.00    +0.000 A 
ATOM      4  C   UNL     1       1.704   3.405  21.764  0.00  0.00    +0.000 A 
ATOM      5  C   UNL     1       1.579   4.429  20.816  0.00  0.00    +0.000 A 
ATOM      6  C   UNL     1       2.379   4.480  19.656  0.00  0.00    +0.000 A 
ENDROOT
BRANCH   6   7
ATOM      7  C   UNL     1       2.200   5.668  18.737  0.00  0.00    +0.000 C 
ATOM      8  O   UNL     1       1.860   5.479  17.569  0.00  0.00    +0.000 OA
ATOM      9  N   UNL     1       2.421   6.942  19.240  0.00  0.00    +0.000 N 
ATOM     10  H   UNL     1       2.796   7.008  20.174  0.00  0.00    +0.000 HD
BRANCH   9  11
ATOM     11  C   UNL     1       2.603   8.112  18.384  0.00  0.00    +0.000 C 
BRANCH  11  12
ATOM     12  C   UNL     1       1.391   8.946  17.948  0.00  0.00    +0.000 C 
BRANCH  12  13
ATOM     13  C   UNL     1       0.577   9.776  18.919  0.00  0.00    +0.000 A 
ATOM     14  C   UNL     1       0.095  11.034  18.599  0.00  0.00    +0.000 A 
ATOM     15  N   UNL     1       0.320  11.786  19.722  0.00  0.00    +0.000 N 
ATOM     16  C   UNL     1       0.012  10.964  20.782  0.00  0.00    +0.000 A 
ATOM     17  C   UNL     1      -0.343  11.317  22.084  0.00  0.00    +0.000 A 
ATOM     18  C   UNL     1      -0.588  10.281  22.974  0.00  0.00    +0.000 A 
ATOM     19  C   UNL     1      -0.366   8.960  22.588  0.00  0.00    +0.000 A 
ATOM     20  C   UNL     1       0.096   8.632  21.290  0.00  0.00    +0.000 A 
ATOM     21  C   UNL     1       0.227   9.650  20.326  0.00  0.00    +0.000 A 
ATOM     22  H   UNL     1       1.079  12.453  19.793  0.00  0.00    +0.000 HD
ENDBRANCH  12  13
ENDBRANCH  11  12
ENDBRANCH   9  11
ENDBRANCH   6   7
BRANCH   1  23
ATOM     23  O   UNL     1       4.111   3.387  18.337  0.00  0.00    +0.000 OA
BRANCH  23  29
ATOM     24  C   UNL     1       7.599   5.010  13.491  0.00  0.00    +0.000 C 
ATOM     25  N   UNL     1       6.691   5.298  14.595  0.00  0.00    +0.000 NA
ATOM     26  C   UNL     1       7.447   5.510  15.852  0.00  0.00    +0.000 C 
ATOM     27  C   UNL     1       6.499   5.809  17.027  0.00  0.00    +0.000 C 
ATOM     28  N   UNL     1       5.515   4.734  17.148  0.00  0.00    +0.000 N 
ATOM     29  C   UNL     1       5.233   4.186  18.385  0.00  0.00    +0.000 C 
ATOM     30  O   UNL     1       5.914   4.387  19.390  0.00  0.00    +0.000 OA
ATOM     31  C   UNL     1       4.755   4.469  15.932  0.00  0.00    +0.000 C 
ATOM     32  C   UNL     1       5.715   4.201  14.764  0.00  0.00    +0.000 C 
ENDBRANCH  23  29
ENDBRANCH   1  23
TORSDOF 6
ENDMDL
MODEL 3
REMARK VINA RESULT:      -8.6      2.494      2.953
REMARK  Name = 
REMARK  7 active torsions:
REMARK  status: ('A' for Active; 'I' for Inactive)
REMARK    1  A    between atoms: C_1  and  N_2
REMARK    2  A    between atoms: C_6  and  O_8
REMARK    3  A    between atoms: O_8  and  C_9
REMARK    4  A    between atoms: C_14  and  C_15
REMARK    5  A    between atoms: N_17  and  C_18
REMARK    6  A    between atoms: C_18  and  C_19
REMARK    7  A    between atoms: C_19  and  C_20
REMARK                            x       y       z     vdW  Elec       q    Type
REMARK                         _______ _______ _______ _____ _____    ______ ____
ROOT
ATOM      1  C   UNL     1       3.336   3.264  19.585  0.00  0.00    +0.000 A 
ATOM      2  C   UNL     1       3.463   2.335  20.643  0.00  0.00    +0.000 A 
ATOM      3  C   UNL     1       2.562   2.344  21.701  0.00  0.00    +0.000 A 
ATOM      4  C   UNL     1       1.554   3.299  21.727  0.00  0.00    +0.000 A 
ATOM      5  C   UNL     1       1.468   4.255  20.707  0.00  0.00    +0.000 A 
ATOM      6  C   UNL     1       2.372   4.282  19.624  0.00  0.00    +0.000 A 
ENDROOT
BRANCH   6   7
ATOM      7  C   UNL     1       2.221   5.400  18.617  0.00  0.00    +0.000 C 
ATOM      8  O   UNL     1       1.689   5.164  17.532  0.00  0.00    +0.000 OA
ATOM      9  N   UNL     1       2.683   6.665  18.947  0.00  0.00    +0.000 N 
ATOM     10  H   UNL     1       3.198   6.754  19.810  0.00  0.00    +0.000 HD
BRANCH   9  11
ATOM     11  C   UNL     1       2.893   7.717  17.956  0.00  0.00    +0.000 C 
BRANCH  11  12
ATOM     12  C   UNL     1       1.784   8.737  17.665  0.00  0.00    +0.000 C 
BRANCH  12  13
ATOM     13  C   UNL     1       1.435   9.861  18.619  0.00  0.00    +0.000 A 
ATOM     14  C   UNL     1       0.637   9.668  19.733  0.00  0.00    +0.000 A 
ATOM     15  N   UNL     1      -0.196  10.755  19.753  0.00  0.00    +0.000 N 
ATOM     16  C   UNL     1       0.592  11.828  19.405  0.00  0.00    +0.000 A 
ATOM     17  C   UNL     1       0.388  13.182  19.671  0.00  0.00    +0.000 A 
ATOM     18  C   UNL     1       1.337  14.070  19.185  0.00  0.00    +0.000 A 
ATOM     19  C   UNL     1       2.372  13.612  18.372  0.00  0.00    +0.000 A 
ATOM     20  C   UNL     1       2.499  12.244  18.028  0.00  0.00    +0.000 A 
ATOM     21  C   UNL     1       1.629  11.302  18.612  0.00  0.00    +0.000 A 
ATOM     22  H   UNL     1      -1.164  10.711  19.457  0.00  0.00    +0.000 HD
ENDBRANCH  12  13
ENDBRANCH  11  12
ENDBRANCH   9  11
ENDBRANCH   6   7
BRANCH   1  23
ATOM     23  O   UNL     1       4.275   3.212  18.546  0.00  0.00    +0.000 OA
BRANCH  23  29
ATOM     24  C   UNL     1       7.522   5.151  13.649  0.00  0.00    +0.000 C 
ATOM     25  N   UNL     1       6.570   5.342  14.736  0.00  0.00    +0.000 NA
ATOM     26  C   UNL     1       7.273   5.718  15.986  0.00  0.00    +0.000 C 
ATOM     27  C   UNL     1       6.278   5.915  17.144  0.00  0.00    +0.000 C 
ATOM     28  N   UNL     1       5.469   4.708  17.307  0.00  0.00    +0.000 N 
ATOM     29  C   UNL     1       5.261   4.174  18.564  0.00  0.00    +0.000 C 
ATOM     30  O   UNL     1       5.895   4.518  19.562  0.00  0.00    +0.000 OA
ATOM     31  C   UNL     1       4.770   4.282  16.100  0.00  0.00    +0.000 C 
ATOM     32  C   UNL     1       5.771   4.116  14.947  0.00  0.00    +0.000 C 
ENDBRANCH  23  29
ENDBRANCH   1  23
TORSDOF 6
ENDMDL
MODEL 4
REMARK VINA RESULT:      -8.5      1.505      2.453
REMARK  Name = 
REMARK  7 active torsions:
REMARK  status: ('A' for Active; 'I' for Inactive)
REMARK    1  A    between atoms: C_1  and  N_2
REMARK    2  A    between atoms: C_6  and  O_8
REMARK    3  A    between atoms: O_8  and  C_9
REMARK    4  A    between atoms: C_14  and  C_15
REMARK    5  A    between atoms: N_17  and  C_18
REMARK    6  A    between atoms: C_18  and  C_19
REMARK    7  A    between atoms: C_19  and  C_20
REMARK                            x       y       z     vdW  Elec       q    Type
REMARK                         _______ _______ _______ _____ _____    ______ ____
ROOT
ATOM      1  C   UNL     1       3.394   5.239  19.577  0.00  0.00    +0.000 A 
ATOM      2  C   UNL     1       3.523   3.845  19.768  0.00  0.00    +0.000 A 
ATOM      3  C   UNL     1       2.458   3.099  20.259  0.00  0.00    +0.000 A 
ATOM      4  C   UNL     1       1.274   3.743  20.594  0.00  0.00    +0.000 A 
ATOM      5  C   UNL     1       1.171   5.134  20.459  0.00  0.00    +0.000 A 
ATOM      6  C   UNL     1       2.235   5.923  19.974  0.00  0.00    +0.000 A 
ENDROOT
BRANCH   6   7
ATOM      7  C   UNL     1       2.030   7.421  19.932  0.00  0.00    +0.000 C 
ATOM      8  O   UNL     1       1.723   8.014  20.966  0.00  0.00    +0.000 OA
ATOM      9  N   UNL     1       2.200   8.086  18.727  0.00  0.00    +0.000 N 
ATOM     10  H   UNL     1       2.350   7.518  17.907  0.00  0.00    +0.000 HD
BRANCH   9  11
ATOM     11  C   UNL     1       1.714   9.444  18.495  0.00  0.00    +0.000 C 
BRANCH  11  12
ATOM     12  C   UNL     1       0.232   9.691  18.183  0.00  0.00    +0.000 C 
BRANCH  12  13
ATOM     13  C   UNL     1      -0.649  10.570  19.045  0.00  0.00    +0.000 A 
ATOM     14  C   UNL     1      -1.498  11.524  18.509  0.00  0.00    +0.000 A 
ATOM     15  N   UNL     1      -1.349  12.615  19.324  0.00  0.00    +0.000 N 
ATOM     16  C   UNL     1      -1.280  12.112  20.603  0.00  0.00    +0.000 A 
ATOM     17  C   UNL     1      -1.550  12.757  21.809  0.00  0.00    +0.000 A 
ATOM     18  C   UNL     1      -1.382  12.018  22.971  0.00  0.00    +0.000 A 
ATOM     19  C   UNL     1      -0.853  10.730  22.910  0.00  0.00    +0.000 A 
ATOM     20  C   UNL     1      -0.487  10.133  21.680  0.00  0.00    +0.000 A 
ATOM     21  C   UNL     1      -0.768  10.807  20.475  0.00  0.00    +0.000 A 
ATOM     22  H   UNL     1      -0.803  13.427  19.061  0.00  0.00    +0.000 HD
ENDBRANCH  12  13
ENDBRANCH  11  12
ENDBRANCH   9  11
ENDBRANCH   6   7
BRANCH   1  23
ATOM     23  O   UNL     1       4.501   5.942  19.083  0.00  0.00    +0.000 OA
BRANCH  23  29
ATOM     24  C   UNL     1       6.297   3.978  13.497  0.00  0.00    +0.000 C 
ATOM     25  N   UNL     1       6.456   4.771  14.709  0.00  0.00    +0.000 NA
ATOM     26  C   UNL     1       7.140   3.984  15.763  0.00  0.00    +0.000 C 
ATOM     27  C   UNL     1       7.308   4.810  17.052  0.00  0.00    +0.000 C 
ATOM     28  N   UNL     1       6.004   5.304  17.490  0.00  0.00    +0.000 N 
ATOM     29  C   UNL     1       5.629   5.197  18.816  0.00  0.00    +0.000 C 
ATOM     30  O   UNL     1       6.232   4.508  19.640  0.00  0.00    +0.000 OA
ATOM     31  C   UNL     1       5.277   6.069  16.483  0.00  0.00    +0.000 C 
ATOM     32  C   UNL     1       5.142   5.244  15.196  0.00  0.00    +0.000 C 
ENDBRANCH  23  29
ENDBRANCH   1  23
TORSDOF 6
ENDMDL
MODEL 5
REMARK VINA RESULT:      -8.5      1.824      8.153
REMARK  Name = 
REMARK  7 active torsions:
REMARK  status: ('A' for Active; 'I' for Inactive)
REMARK    1  A    between atoms: C_1  and  N_2
REMARK    2  A    between atoms: C_6  and  O_8
REMARK    3  A    between atoms: O_8  and  C_9
REMARK    4  A    between atoms: C_14  and  C_15
REMARK    5  A    between atoms: N_17  and  C_18
REMARK    6  A    between atoms: C_18  and  C_19
REMARK    7  A    between atoms: C_19  and  C_20
REMARK                            x       y       z     vdW  Elec       q    Type
REMARK                         _______ _______ _______ _____ _____    ______ ____
ROOT
ATOM      1  C   UNL     1       2.475   5.167  20.045  0.00  0.00    +0.000 A 
ATOM      2  C   UNL     1       1.131   4.873  20.369  0.00  0.00    +0.000 A 
ATOM      3  C   UNL     1       0.701   3.555  20.465  0.00  0.00    +0.000 A 
ATOM      4  C   UNL     1       1.596   2.527  20.205  0.00  0.00    +0.000 A 
ATOM      5  C   UNL     1       2.912   2.823  19.826  0.00  0.00    +0.000 A 
ATOM      6  C   UNL     1       3.379   4.149  19.708  0.00  0.00    +0.000 A 
ENDROOT
BRANCH   6   7
ATOM      7  C   UNL     1       4.800   4.348  19.228  0.00  0.00    +0.000 C 
ATOM      8  O   UNL     1       5.616   3.438  19.373  0.00  0.00    +0.000 OA
ATOM      9  N   UNL     1       5.142   5.553  18.633  0.00  0.00    +0.000 N 
ATOM     10  H   UNL     1       4.447   6.284  18.644  0.00  0.00    +0.000 HD
BRANCH   9  11
ATOM     11  C   UNL     1       6.526   5.978  18.440  0.00  0.00    +0.000 C 
BRANCH  11  12
ATOM     12  C   UNL     1       7.151   5.964  17.038  0.00  0.00    +0.000 C 
BRANCH  12  13
ATOM     13  C   UNL     1       6.437   5.393  15.831  0.00  0.00    +0.000 A 
ATOM     14  C   UNL     1       5.150   4.889  15.899  0.00  0.00    +0.000 A 
ATOM     15  N   UNL     1       5.188   3.741  15.152  0.00  0.00    +0.000 N 
ATOM     16  C   UNL     1       5.963   4.044  14.054  0.00  0.00    +0.000 A 
ATOM     17  C   UNL     1       5.986   3.422  12.806  0.00  0.00    +0.000 A 
ATOM     18  C   UNL     1       6.885   3.916  11.872  0.00  0.00    +0.000 A 
ATOM     19  C   UNL     1       7.791   4.912  12.233  0.00  0.00    +0.000 A 
ATOM     20  C   UNL     1       7.819   5.456  13.540  0.00  0.00    +0.000 A 
ATOM     21  C   UNL     1       6.834   5.068  14.470  0.00  0.00    +0.000 A 
ATOM     22  H   UNL     1       5.221   2.817  15.565  0.00  0.00    +0.000 HD
ENDBRANCH  12  13
ENDBRANCH  11  12
ENDBRANCH   9  11
ENDBRANCH   6   7
BRANCH   1  23
ATOM     23  O   UNL     1       2.853   6.514  19.957  0.00  0.00    +0.000 OA
BRANCH  23  29
ATOM     24  C   UNL     1      -1.378  11.015  19.600  0.00  0.00    +0.000 C 
ATOM     25  N   UNL     1      -0.019  10.497  19.500  0.00  0.00    +0.000 NA
ATOM     26  C   UNL     1       0.226   9.929  18.153  0.00  0.00    +0.000 C 
ATOM     27  C   UNL     1       1.656   9.372  18.037  0.00  0.00    +0.000 C 
ATOM     28  N   UNL     1       1.889   8.394  19.099  0.00  0.00    +0.000 N 
ATOM     29  C   UNL     1       2.481   7.180  18.809  0.00  0.00    +0.000 C 
ATOM     30  O   UNL     1       2.639   6.755  17.664  0.00  0.00    +0.000 OA
ATOM     31  C   UNL     1       1.643   8.895  20.447  0.00  0.00    +0.000 C 
ATOM     32  C   UNL     1       0.223   9.473  20.539  0.00  0.00    +0.000 C 
ENDBRANCH  23  29
ENDBRANCH   1  23
TORSDOF 6
ENDMDL
MODEL 6
REMARK VINA RESULT:      -8.5      2.596      9.201
REMARK  Name = 
REMARK  7 active torsions:
REMARK  status: ('A' for Active; 'I' for Inactive)
REMARK    1  A    between atoms: C_1  and  N_2
REMARK    2  A    between atoms: C_6  and  O_8
REMARK    3  A    between atoms: O_8  and  C_9
REMARK    4  A    between atoms: C_14  and  C_15
REMARK    5  A    between atoms: N_17  and  C_18
REMARK    6  A    between atoms: C_18  and  C_19
REMARK    7  A    between atoms: C_19  and  C_20
REMARK                            x       y       z     vdW  Elec       q    Type
REMARK                         _______ _______ _______ _____ _____    ______ ____
ROOT
ATOM      1  C   UNL     1       0.174  10.125  19.794  0.00  0.00    +0.000 A 
ATOM      2  C   UNL     1      -0.593  10.229  20.977  0.00  0.00    +0.000 A 
ATOM      3  C   UNL     1      -0.284   9.453  22.088  0.00  0.00    +0.000 A 
ATOM      4  C   UNL     1       0.767   8.548  22.015  0.00  0.00    +0.000 A 
ATOM      5  C   UNL     1       1.487   8.407  20.821  0.00  0.00    +0.000 A 
ATOM      6  C   UNL     1       1.193   9.169  19.671  0.00  0.00    +0.000 A 
ENDROOT
BRANCH   6   7
ATOM      7  C   UNL     1       1.996   8.884  18.421  0.00  0.00    +0.000 C 
ATOM      8  O   UNL     1       1.831   9.590  17.427  0.00  0.00    +0.000 OA
ATOM      9  N   UNL     1       2.901   7.832  18.433  0.00  0.00    +0.000 N 
ATOM     10  H   UNL     1       2.903   7.238  19.248  0.00  0.00    +0.000 HD
BRANCH   9  11
ATOM     11  C   UNL     1       3.472   7.264  17.215  0.00  0.00    +0.000 C 
BRANCH  11  12
ATOM     12  C   UNL     1       4.255   5.945  17.271  0.00  0.00    +0.000 C 
BRANCH  12  13
ATOM     13  C   UNL     1       4.264   5.051  18.493  0.00  0.00    +0.000 A 
ATOM     14  C   UNL     1       5.410   4.415  18.939  0.00  0.00    +0.000 A 
ATOM     15  N   UNL     1       4.997   3.151  19.270  0.00  0.00    +0.000 N 
ATOM     16  C   UNL     1       3.778   3.314  19.889  0.00  0.00    +0.000 A 
ATOM     17  C   UNL     1       3.129   2.455  20.775  0.00  0.00    +0.000 A 
ATOM     18  C   UNL     1       1.885   2.854  21.243  0.00  0.00    +0.000 A 
ATOM     19  C   UNL     1       1.286   4.008  20.741  0.00  0.00    +0.000 A 
ATOM     20  C   UNL     1       1.920   4.810  19.762  0.00  0.00    +0.000 A 
ATOM     21  C   UNL     1       3.236   4.503  19.365  0.00  0.00    +0.000 A 
ATOM     22  H   UNL     1       5.171   2.344  18.683  0.00  0.00    +0.000 HD
ENDBRANCH  12  13
ENDBRANCH  11  12
ENDBRANCH   9  11
ENDBRANCH   6   7
BRANCH   1  23
ATOM     23  O   UNL     1      -0.185  10.928  18.703  0.00  0.00    +0.000 OA
BRANCH  23  29
ATOM     24  C   UNL     1      -5.922  12.639  20.265  0.00  0.00    +0.000 C 
ATOM     25  N   UNL     1      -4.768  12.620  19.376  0.00  0.00    +0.000 NA
ATOM     26  C   UNL     1      -4.822  11.446  18.473  0.00  0.00    +0.000 C 
ATOM     27  C   UNL     1      -3.603  11.412  17.533  0.00  0.00    +0.000 C 
ATOM     28  N   UNL     1      -2.373  11.446  18.323  0.00  0.00    +0.000 N 
ATOM     29  C   UNL     1      -1.340  10.574  18.038  0.00  0.00    +0.000 C 
ATOM     30  O   UNL     1      -1.455   9.602  17.291  0.00  0.00    +0.000 OA
ATOM     31  C   UNL     1      -2.277  12.572  19.244  0.00  0.00    +0.000 C 
ATOM     32  C   UNL     1      -3.512  12.609  20.156  0.00  0.00    +0.000 C 
ENDBRANCH  23  29
ENDBRANCH   1  23
TORSDOF 6
ENDMDL
MODEL 7
REMARK VINA RESULT:      -8.5      2.646      8.773
REMARK  Name = 
REMARK  7 active torsions:
REMARK  status: ('A' for Active; 'I' for Inactive)
REMARK    1  A    between atoms: C_1  and  N_2
REMARK    2  A    between atoms: C_6  and  O_8
REMARK    3  A    between atoms: O_8  and  C_9
REMARK    4  A    between atoms: C_14  and  C_15
REMARK    5  A    between atoms: N_17  and  C_18
REMARK    6  A    between atoms: C_18  and  C_19
REMARK    7  A    between atoms: C_19  and  C_20
REMARK                            x       y       z     vdW  Elec       q    Type
REMARK                         _______ _______ _______ _____ _____    ______ ____
ROOT
ATOM      1  C   UNL     1       2.259   5.717  20.100  0.00  0.00    +0.000 A 
ATOM      2  C   UNL     1       1.066   5.043  20.447  0.00  0.00    +0.000 A 
ATOM      3  C   UNL     1       0.835   3.746  20.003  0.00  0.00    +0.000 A 
ATOM      4  C   UNL     1       1.773   3.130  19.185  0.00  0.00    +0.000 A 
ATOM      5  C   UNL     1       2.925   3.824  18.795  0.00  0.00    +0.000 A 
ATOM      6  C   UNL     1       3.187   5.144  19.218  0.00  0.00    +0.000 A 
ENDROOT
BRANCH   6   7
ATOM      7  C   UNL     1       4.432   5.815  18.682  0.00  0.00    +0.000 C 
ATOM      8  O   UNL     1       4.318   6.721  17.856  0.00  0.00    +0.000 OA
ATOM      9  N   UNL     1       5.670   5.392  19.141  0.00  0.00    +0.000 N 
ATOM     10  H   UNL     1       5.685   4.578  19.736  0.00  0.00    +0.000 HD
BRANCH   9  11
ATOM     11  C   UNL     1       6.922   5.723  18.465  0.00  0.00    +0.000 C 
BRANCH  11  12
ATOM     12  C   UNL     1       7.476   4.802  17.369  0.00  0.00    +0.000 C 
BRANCH  12  13
ATOM     13  C   UNL     1       6.737   4.534  16.075  0.00  0.00    +0.000 A 
ATOM     14  C   UNL     1       5.527   3.864  16.035  0.00  0.00    +0.000 A 
ATOM     15  N   UNL     1       5.636   3.015  14.966  0.00  0.00    +0.000 N 
ATOM     16  C   UNL     1       6.279   3.740  13.987  0.00  0.00    +0.000 A 
ATOM     17  C   UNL     1       6.272   3.537  12.607  0.00  0.00    +0.000 A 
ATOM     18  C   UNL     1       7.028   4.410  11.838  0.00  0.00    +0.000 A 
ATOM     19  C   UNL     1       7.839   5.361  12.454  0.00  0.00    +0.000 A 
ATOM     20  C   UNL     1       7.911   5.479  13.863  0.00  0.00    +0.000 A 
ATOM     21  C   UNL     1       7.057   4.697  14.665  0.00  0.00    +0.000 A 
ATOM     22  H   UNL     1       5.810   2.022  15.067  0.00  0.00    +0.000 HD
ENDBRANCH  12  13
ENDBRANCH  11  12
ENDBRANCH   9  11
ENDBRANCH   6   7
BRANCH   1  23
ATOM     23  O   UNL     1       2.438   7.025  20.572  0.00  0.00    +0.000 OA
BRANCH  23  29
ATOM     24  C   UNL     1      -1.457  11.135  23.066  0.00  0.00    +0.000 C 
ATOM     25  N   UNL     1      -0.223  10.758  22.388  0.00  0.00    +0.000 NA
ATOM     26  C   UNL     1      -0.430  10.696  20.922  0.00  0.00    +0.000 C 
ATOM     27  C   UNL     1       0.866  10.292  20.195  0.00  0.00    +0.000 C 
ATOM     28  N   UNL     1       1.359   9.027  20.738  0.00  0.00    +0.000 N 
ATOM     29  C   UNL     1       1.770   8.018  19.888  0.00  0.00    +0.000 C 
ATOM     30  O   UNL     1       1.549   8.016  18.678  0.00  0.00    +0.000 OA
ATOM     31  C   UNL     1       1.561   9.027  22.183  0.00  0.00    +0.000 C 
ATOM     32  C   UNL     1       0.269   9.458  22.892  0.00  0.00    +0.000 C 
ENDBRANCH  23  29
ENDBRANCH   1  23
TORSDOF 6
ENDMDL
MODEL 8
REMARK VINA RESULT:      -8.4      1.414      1.660
REMARK  Name = 
REMARK  7 active torsions:
REMARK  status: ('A' for Active; 'I' for Inactive)
REMARK    1  A    between atoms: C_1  and  N_2
REMARK    2  A    between atoms: C_6  and  O_8
REMARK    3  A    between atoms: O_8  and  C_9
REMARK    4  A    between atoms: C_14  and  C_15
REMARK    5  A    between atoms: N_17  and  C_18
REMARK    6  A    between atoms: C_18  and  C_19
REMARK    7  A    between atoms: C_19  and  C_20
REMARK                            x       y       z     vdW  Elec       q    Type
REMARK                         _______ _______ _______ _____ _____    ______ ____
ROOT
ATOM      1  C   UNL     1       3.324   3.429  19.468  0.00  0.00    +0.000 A 
ATOM      2  C   UNL     1       3.510   2.394  20.413  0.00  0.00    +0.000 A 
ATOM      3  C   UNL     1       2.757   2.363  21.581  0.00  0.00    +0.000 A 
ATOM      4  C   UNL     1       1.842   3.378  21.829  0.00  0.00    +0.000 A 
ATOM      5  C   UNL     1       1.704   4.434  20.918  0.00  0.00    +0.000 A 
ATOM      6  C   UNL     1       2.459   4.503  19.728  0.00  0.00    +0.000 A 
ENDROOT
BRANCH   6   7
ATOM      7  C   UNL     1       2.272   5.722  18.853  0.00  0.00    +0.000 C 
ATOM      8  O   UNL     1       2.033   5.571  17.655  0.00  0.00    +0.000 OA
ATOM      9  N   UNL     1       2.369   6.980  19.429  0.00  0.00    +0.000 N 
ATOM     10  H   UNL     1       2.669   7.022  20.391  0.00  0.00    +0.000 HD
BRANCH   9  11
ATOM     11  C   UNL     1       2.537   8.201  18.644  0.00  0.00    +0.000 C 
BRANCH  11  12
ATOM     12  C   UNL     1       1.383   8.730  17.782  0.00  0.00    +0.000 C 
BRANCH  12  13
ATOM     13  C   UNL     1       0.587   9.965  18.151  0.00  0.00    +0.000 A 
ATOM     14  C   UNL     1       1.146  11.034  18.830  0.00  0.00    +0.000 A 
ATOM     15  N   UNL     1       0.201  11.387  19.756  0.00  0.00    +0.000 N 
ATOM     16  C   UNL     1      -1.007  11.288  19.103  0.00  0.00    +0.000 A 
ATOM     17  C   UNL     1      -2.216  11.912  19.409  0.00  0.00    +0.000 A 
ATOM     18  C   UNL     1      -3.300  11.623  18.592  0.00  0.00    +0.000 A 
ATOM     19  C   UNL     1      -3.184  10.659  17.592  0.00  0.00    +0.000 A 
ATOM     20  C   UNL     1      -1.972   9.961  17.368  0.00  0.00    +0.000 A 
ATOM     21  C   UNL     1      -0.821  10.326  18.093  0.00  0.00    +0.000 A 
ATOM     22  H   UNL     1       0.276  11.147  20.737  0.00  0.00    +0.000 HD
ENDBRANCH  12  13
ENDBRANCH  11  12
ENDBRANCH   9  11
ENDBRANCH   6   7
BRANCH   1  23
ATOM     23  O   UNL     1       4.113   3.414  18.310  0.00  0.00    +0.000 OA
BRANCH  23  29
ATOM     24  C   UNL     1       7.593   5.027  13.456  0.00  0.00    +0.000 C 
ATOM     25  N   UNL     1       6.741   5.323  14.599  0.00  0.00    +0.000 NA
ATOM     26  C   UNL     1       7.543   5.405  15.843  0.00  0.00    +0.000 C 
ATOM     27  C   UNL     1       6.652   5.711  17.060  0.00  0.00    +0.000 C 
ATOM     28  N   UNL     1       5.589   4.711  17.153  0.00  0.00    +0.000 N 
ATOM     29  C   UNL     1       5.296   4.119  18.367  0.00  0.00    +0.000 C 
ATOM     30  O   UNL     1       6.017   4.210  19.361  0.00  0.00    +0.000 OA
ATOM     31  C   UNL     1       4.779   4.575  15.948  0.00  0.00    +0.000 C 
ATOM     32  C   UNL     1       5.684   4.298  14.739  0.00  0.00    +0.000 C 
ENDBRANCH  23  29
ENDBRANCH   1  23
TORSDOF 6
ENDMDL
MODEL 9
REMARK VINA RESULT:      -8.4      1.465      1.907
REMARK  Name = 
REMARK  7 active torsions:
REMARK  status: ('A' for Active; 'I' for Inactive)
REMARK    1  A    between atoms: C_1  and  N_2
REMARK    2  A    between atoms: C_6  and  O_8
REMARK    3  A    between atoms: O_8  and  C_9
REMARK    4  A    between atoms: C_14  and  C_15
REMARK    5  A    between atoms: N_17  and  C_18
REMARK    6  A    between atoms: C_18  and  C_19
REMARK    7  A    between atoms: C_19  and  C_20
REMARK                            x       y       z     vdW  Elec       q    Type
REMARK                         _______ _______ _______ _____ _____    ______ ____
ROOT
ATOM      1  C   UNL     1       3.533   4.242  19.543  0.00  0.00    +0.000 A 
ATOM      2  C   UNL     1       3.670   2.938  20.071  0.00  0.00    +0.000 A 
ATOM      3  C   UNL     1       2.826   2.496  21.083  0.00  0.00    +0.000 A 
ATOM      4  C   UNL     1       1.868   3.360  21.597  0.00  0.00    +0.000 A 
ATOM      5  C   UNL     1       1.776   4.671  21.111  0.00  0.00    +0.000 A 
ATOM      6  C   UNL     1       2.623   5.156  20.093  0.00  0.00    +0.000 A 
ENDROOT
BRANCH   6   7
ATOM      7  C   UNL     1       2.474   6.608  19.695  0.00  0.00    +0.000 C 
ATOM      8  O   UNL     1       1.854   7.373  20.433  0.00  0.00    +0.000 OA
ATOM      9  N   UNL     1       3.047   7.038  18.507  0.00  0.00    +0.000 N 
ATOM     10  H   UNL     1       3.448   6.331  17.909  0.00  0.00    +0.000 HD
BRANCH   9  11
ATOM     11  C   UNL     1       2.694   8.303  17.868  0.00  0.00    +0.000 C 
BRANCH  11  12
ATOM     12  C   UNL     1       1.225   8.638  17.578  0.00  0.00    +0.000 C 
BRANCH  12  13
ATOM     13  C   UNL     1       0.546   9.879  18.119  0.00  0.00    +0.000 A 
ATOM     14  C   UNL     1       1.202  10.789  18.931  0.00  0.00    +0.000 A 
ATOM     15  N   UNL     1       0.291  11.100  19.906  0.00  0.00    +0.000 N 
ATOM     16  C   UNL     1      -0.919  11.203  19.259  0.00  0.00    +0.000 A 
ATOM     17  C   UNL     1      -2.065  11.890  19.659  0.00  0.00    +0.000 A 
ATOM     18  C   UNL     1      -3.169  11.817  18.822  0.00  0.00    +0.000 A 
ATOM     19  C   UNL     1      -3.141  10.991  17.699  0.00  0.00    +0.000 A 
ATOM     20  C   UNL     1      -1.999  10.221  17.369  0.00  0.00    +0.000 A 
ATOM     21  C   UNL     1      -0.821  10.375  18.125  0.00  0.00    +0.000 A 
ATOM     22  H   UNL     1       0.341  10.722  20.845  0.00  0.00    +0.000 HD
ENDBRANCH  12  13
ENDBRANCH  11  12
ENDBRANCH   9  11
ENDBRANCH   6   7
BRANCH   1  23
ATOM     23  O   UNL     1       4.414   4.637  18.526  0.00  0.00    +0.000 OA
BRANCH  23  29
ATOM     24  C   UNL     1       7.933   5.556  13.521  0.00  0.00    +0.000 C 
ATOM     25  N   UNL     1       7.394   4.736  14.598  0.00  0.00    +0.000 NA
ATOM     26  C   UNL     1       6.100   4.132  14.199  0.00  0.00    +0.000 C 
ATOM     27  C   UNL     1       5.517   3.269  15.333  0.00  0.00    +0.000 C 
ATOM     28  N   UNL     1       5.401   4.071  16.550  0.00  0.00    +0.000 N 
ATOM     29  C   UNL     1       4.240   4.034  17.299  0.00  0.00    +0.000 C 
ATOM     30  O   UNL     1       3.189   3.533  16.900  0.00  0.00    +0.000 OA
ATOM     31  C   UNL     1       6.643   4.705  16.977  0.00  0.00    +0.000 C 
ATOM     32  C   UNL     1       7.226   5.540  15.828  0.00  0.00    +0.000 C 
ENDBRANCH  23  29
ENDBRANCH   1  23
TORSDOF 6
ENDMDL
