MODEL 1
REMARK VINA RESULT:      -8.0      0.000      0.000
REMARK  Name = 
REMARK  5 active torsions:
REMARK  status: ('A' for Active; 'I' for Inactive)
REMARK    1  A    between atoms: C_1  and  C_2
REMARK    2  A    between atoms: C_2  and  C_3
REMARK    3  A    between atoms: N_5  and  C_6
REMARK    4  A    between atoms: C_11  and  C_12
REMARK    5  A    between atoms: C_12  and  C_13
REMARK                            x       y       z     vdW  Elec       q    Type
REMARK                         _______ _______ _______ _____ _____    ______ ____
ROOT
ATOM      1  C   UNL     1       0.573  10.443  20.453  0.00  0.00    +0.000 C 
ATOM      2  C   UNL     1       0.455  10.028  21.936  0.00  0.00    +0.000 C 
ATOM      3  C   UNL     1      -0.778  10.681  19.769  0.00  0.00    +0.000 C 
ATOM      4  S   UNL     1      -1.635  12.088  20.407  0.00  0.00    +0.000 S 
ATOM      5  O   UNL     1      -1.969  11.843  21.797  0.00  0.00    +0.000 OA
ATOM      6  O   UNL     1      -2.708  12.393  19.476  0.00  0.00    +0.000 OA
ATOM      7  C   UNL     1      -0.447  13.407  20.328  0.00  0.00    +0.000 C 
ATOM      8  C   UNL     1      -0.249  13.965  18.921  0.00  0.00    +0.000 C 
ATOM      9  C   UNL     1      -0.408  15.467  19.075  0.00  0.00    +0.000 C 
ATOM     10  O   UNL     1      -0.431  15.748  20.478  0.00  0.00    +0.000 OA
ATOM     11  C   UNL     1      -0.985  14.588  21.114  0.00  0.00    +0.000 C 
ATOM     12  C   UNL     1       0.895  12.887  20.817  0.00  0.00    +0.000 C 
ATOM     13  N   UNL     1       1.734  13.578  21.525  0.00  0.00    +0.000 NA
ATOM     14  N   UNL     1       1.370  11.667  20.413  0.00  0.00    +0.000 N 
ATOM     15  H   UNL     1       1.381  14.517  21.749  0.00  0.00    +0.000 HD
ATOM     16  H   UNL     1       2.284  11.532  20.851  0.00  0.00    +0.000 HD
ENDROOT
BRANCH   1  22
ATOM     17  C   UNL     1       2.275   7.067  19.452  0.00  0.00    +0.000 A 
ATOM     18  C   UNL     1       2.681   7.390  18.153  0.00  0.00    +0.000 A 
ATOM     19  C   UNL     1       2.451   8.652  17.624  0.00  0.00    +0.000 A 
ATOM     20  C   UNL     1       1.789   9.601  18.384  0.00  0.00    +0.000 A 
ATOM     21  F   UNL     1       1.643  10.824  17.857  0.00  0.00    +0.000 F 
ATOM     22  C   UNL     1       1.298   9.319  19.671  0.00  0.00    +0.000 A 
ATOM     23  C   UNL     1       1.545   8.020  20.190  0.00  0.00    +0.000 A 
BRANCH  17  26
ATOM     24  C   UNL     1       2.163   4.594  19.551  0.00  0.00    +0.000 C 
ATOM     25  O   UNL     1       1.502   4.404  18.540  0.00  0.00    +0.000 OA
ATOM     26  N   UNL     1       2.600   5.818  20.041  0.00  0.00    +0.000 N 
ATOM     27  H   UNL     1       3.286   5.801  20.784  0.00  0.00    +0.000 HD
BRANCH  24  29
ATOM     28  C   UNL     1       3.912   2.809  20.050  0.00  0.00    +0.000 C 
ATOM     29  C   UNL     1       2.549   3.384  20.359  0.00  0.00    +0.000 C 
ATOM     30  C   UNL     1       1.503   2.474  20.981  0.00  0.00    +0.000 C 
ATOM     31  C   UNL     1       2.200   3.480  21.843  0.00  0.00    +0.000 C 
ENDBRANCH  24  29
ENDBRANCH  17  26
ENDBRANCH   1  22
TORSDOF 3
ENDMDL
MODEL 2
REMARK VINA RESULT:      -7.6      3.740      8.655
REMARK  Name = 
REMARK  5 active torsions:
REMARK  status: ('A' for Active; 'I' for Inactive)
REMARK    1  A    between atoms: C_1  and  C_2
REMARK    2  A    between atoms: C_2  and  C_3
REMARK    3  A    between atoms: N_5  and  C_6
REMARK    4  A    between atoms: C_11  and  C_12
REMARK    5  A    between atoms: C_12  and  C_13
REMARK                            x       y       z     vdW  Elec       q    Type
REMARK                         _______ _______ _______ _____ _____    ______ ____
ROOT
ATOM      1  C   UNL     1       3.043   6.442  18.592  0.00  0.00    +0.000 C 
ATOM      2  C   UNL     1       2.218   5.329  17.911  0.00  0.00    +0.000 C 
ATOM      3  C   UNL     1       4.105   5.916  19.566  0.00  0.00    +0.000 C 
ATOM      4  S   UNL     1       5.403   5.031  18.757  0.00  0.00    +0.000 S 
ATOM      5  O   UNL     1       4.848   3.839  18.144  0.00  0.00    +0.000 OA
ATOM      6  O   UNL     1       6.482   4.882  19.720  0.00  0.00    +0.000 OA
ATOM      7  C   UNL     1       5.958   6.128  17.475  0.00  0.00    +0.000 C 
ATOM      8  C   UNL     1       6.835   7.268  17.986  0.00  0.00    +0.000 C 
ATOM      9  C   UNL     1       8.069   7.233  17.101  0.00  0.00    +0.000 C 
ATOM     10  O   UNL     1       7.794   6.329  16.027  0.00  0.00    +0.000 OA
ATOM     11  C   UNL     1       6.873   5.356  16.542  0.00  0.00    +0.000 C 
ATOM     12  C   UNL     1       4.744   6.742  16.796  0.00  0.00    +0.000 C 
ATOM     13  N   UNL     1       4.661   6.985  15.524  0.00  0.00    +0.000 NA
ATOM     14  N   UNL     1       3.686   7.211  17.529  0.00  0.00    +0.000 N 
ATOM     15  H   UNL     1       5.502   6.690  15.011  0.00  0.00    +0.000 HD
ATOM     16  H   UNL     1       2.998   7.586  16.872  0.00  0.00    +0.000 HD
ENDROOT
BRANCH   1  22
ATOM     17  C   UNL     1       0.906   9.478  19.818  0.00  0.00    +0.000 A 
ATOM     18  C   UNL     1       0.381   8.931  20.994  0.00  0.00    +0.000 A 
ATOM     19  C   UNL     1       0.722   7.649  21.401  0.00  0.00    +0.000 A 
ATOM     20  C   UNL     1       1.577   6.890  20.622  0.00  0.00    +0.000 A 
ATOM     21  F   UNL     1       1.928   5.681  21.084  0.00  0.00    +0.000 F 
ATOM     22  C   UNL     1       2.088   7.357  19.398  0.00  0.00    +0.000 A 
ATOM     23  C   UNL     1       1.723   8.671  19.002  0.00  0.00    +0.000 A 
BRANCH  17  26
ATOM     24  C   UNL     1       0.955  11.918  20.248  0.00  0.00    +0.000 C 
ATOM     25  O   UNL     1       1.524  11.897  21.329  0.00  0.00    +0.000 OA
ATOM     26  N   UNL     1       0.649  10.823  19.449  0.00  0.00    +0.000 N 
ATOM     27  H   UNL     1       0.341  11.012  18.504  0.00  0.00    +0.000 HD
BRANCH  24  29
ATOM     28  C   UNL     1       0.244  14.309  20.765  0.00  0.00    +0.000 C 
ATOM     29  C   UNL     1       0.535  13.262  19.716  0.00  0.00    +0.000 C 
ATOM     30  C   UNL     1      -0.103  13.413  18.345  0.00  0.00    +0.000 C 
ATOM     31  C   UNL     1       1.347  13.746  18.516  0.00  0.00    +0.000 C 
ENDBRANCH  24  29
ENDBRANCH  17  26
ENDBRANCH   1  22
TORSDOF 3
ENDMDL
MODEL 3
REMARK VINA RESULT:      -7.5      2.600      3.581
REMARK  Name = 
REMARK  5 active torsions:
REMARK  status: ('A' for Active; 'I' for Inactive)
REMARK    1  A    between atoms: C_1  and  C_2
REMARK    2  A    between atoms: C_2  and  C_3
REMARK    3  A    between atoms: N_5  and  C_6
REMARK    4  A    between atoms: C_11  and  C_12
REMARK    5  A    between atoms: C_12  and  C_13
REMARK                            x       y       z     vdW  Elec       q    Type
REMARK                         _______ _______ _______ _____ _____    ______ ____
ROOT
ATOM      1  C   UNL     1       0.700  10.312  19.694  0.00  0.00    +0.000 C 
ATOM      2  C   UNL     1      -0.794  10.237  19.308  0.00  0.00    +0.000 C 
ATOM      3  C   UNL     1       1.562  11.071  18.679  0.00  0.00    +0.000 C 
ATOM      4  S   UNL     1       1.183  12.796  18.605  0.00  0.00    +0.000 S 
ATOM      5  O   UNL     1      -0.175  12.957  18.122  0.00  0.00    +0.000 OA
ATOM      6  O   UNL     1       2.263  13.439  17.876  0.00  0.00    +0.000 OA
ATOM      7  C   UNL     1       1.258  13.340  20.294  0.00  0.00    +0.000 C 
ATOM      8  C   UNL     1       2.682  13.512  20.816  0.00  0.00    +0.000 C 
ATOM      9  C   UNL     1       2.707  14.906  21.419  0.00  0.00    +0.000 C 
ATOM     10  O   UNL     1       1.355  15.371  21.467  0.00  0.00    +0.000 OA
ATOM     11  C   UNL     1       0.670  14.738  20.377  0.00  0.00    +0.000 C 
ATOM     12  C   UNL     1       0.560  12.314  21.172  0.00  0.00    +0.000 C 
ATOM     13  N   UNL     1      -0.167  12.607  22.205  0.00  0.00    +0.000 NA
ATOM     14  N   UNL     1       0.773  10.972  20.996  0.00  0.00    +0.000 N 
ATOM     15  H   UNL     1      -0.247  13.621  22.356  0.00  0.00    +0.000 HD
ATOM     16  H   UNL     1       0.217  10.477  21.697  0.00  0.00    +0.000 HD
ENDROOT
BRANCH   1  22
ATOM     17  C   UNL     1       2.515   6.931  18.945  0.00  0.00    +0.000 A 
ATOM     18  C   UNL     1       2.179   6.227  20.106  0.00  0.00    +0.000 A 
ATOM     19  C   UNL     1       1.373   6.797  21.081  0.00  0.00    +0.000 A 
ATOM     20  C   UNL     1       0.912   8.091  20.915  0.00  0.00    +0.000 A 
ATOM     21  F   UNL     1       0.087   8.580  21.851  0.00  0.00    +0.000 F 
ATOM     22  C   UNL     1       1.266   8.875  19.802  0.00  0.00    +0.000 A 
ATOM     23  C   UNL     1       2.093   8.269  18.819  0.00  0.00    +0.000 A 
BRANCH  17  26
ATOM     24  C   UNL     1       4.530   5.807  18.040  0.00  0.00    +0.000 C 
ATOM     25  O   UNL     1       5.182   5.751  19.073  0.00  0.00    +0.000 OA
ATOM     26  N   UNL     1       3.248   6.321  17.895  0.00  0.00    +0.000 N 
ATOM     27  H   UNL     1       2.772   6.135  17.022  0.00  0.00    +0.000 HD
BRANCH  24  29
ATOM     28  C   UNL     1       4.679   3.913  16.344  0.00  0.00    +0.000 C 
ATOM     29  C   UNL     1       5.173   5.269  16.791  0.00  0.00    +0.000 C 
ATOM     30  C   UNL     1       6.554   5.720  16.346  0.00  0.00    +0.000 C 
ATOM     31  C   UNL     1       5.347   6.301  15.677  0.00  0.00    +0.000 C 
ENDBRANCH  24  29
ENDBRANCH  17  26
ENDBRANCH   1  22
TORSDOF 3
ENDMDL
MODEL 4
REMARK VINA RESULT:      -7.5      3.569      8.919
REMARK  Name = 
REMARK  5 active torsions:
REMARK  status: ('A' for Active; 'I' for Inactive)
REMARK    1  A    between atoms: C_1  and  C_2
REMARK    2  A    between atoms: C_2  and  C_3
REMARK    3  A    between atoms: N_5  and  C_6
REMARK    4  A    between atoms: C_11  and  C_12
REMARK    5  A    between atoms: C_12  and  C_13
REMARK                            x       y       z     vdW  Elec       q    Type
REMARK                         _______ _______ _______ _____ _____    ______ ____
ROOT
ATOM      1  C   UNL     1       2.793   6.247  18.515  0.00  0.00    +0.000 C 
ATOM      2  C   UNL     1       1.801   5.581  17.537  0.00  0.00    +0.000 C 
ATOM      3  C   UNL     1       3.382   5.281  19.550  0.00  0.00    +0.000 C 
ATOM      4  S   UNL     1       4.441   4.063  18.831  0.00  0.00    +0.000 S 
ATOM      5  O   UNL     1       3.655   3.219  17.951  0.00  0.00    +0.000 OA
ATOM      6  O   UNL     1       5.176   3.441  19.920  0.00  0.00    +0.000 OA
ATOM      7  C   UNL     1       5.592   4.996  17.852  0.00  0.00    +0.000 C 
ATOM      8  C   UNL     1       6.677   5.683  18.677  0.00  0.00    +0.000 C 
ATOM      9  C   UNL     1       7.982   5.282  18.012  0.00  0.00    +0.000 C 
ATOM     10  O   UNL     1       7.647   4.645  16.775  0.00  0.00    +0.000 OA
ATOM     11  C   UNL     1       6.365   4.033  16.968  0.00  0.00    +0.000 C 
ATOM     12  C   UNL     1       4.831   6.071  17.093  0.00  0.00    +0.000 C 
ATOM     13  N   UNL     1       5.106   6.445  15.881  0.00  0.00    +0.000 NA
ATOM     14  N   UNL     1       3.867   6.824  17.710  0.00  0.00    +0.000 N 
ATOM     15  H   UNL     1       5.883   5.913  15.471  0.00  0.00    +0.000 HD
ATOM     16  H   UNL     1       3.503   7.484  17.020  0.00  0.00    +0.000 HD
ENDROOT
BRANCH   1  22
ATOM     17  C   UNL     1       1.257   9.680  19.585  0.00  0.00    +0.000 A 
ATOM     18  C   UNL     1       0.753   9.326  20.841  0.00  0.00    +0.000 A 
ATOM     19  C   UNL     1       0.925   8.045  21.347  0.00  0.00    +0.000 A 
ATOM     20  C   UNL     1       1.586   7.095  20.588  0.00  0.00    +0.000 A 
ATOM     21  F   UNL     1       1.784   5.890  21.139  0.00  0.00    +0.000 F 
ATOM     22  C   UNL     1       2.059   7.369  19.292  0.00  0.00    +0.000 A 
ATOM     23  C   UNL     1       1.870   8.686  18.797  0.00  0.00    +0.000 A 
BRANCH  17  26
ATOM     24  C   UNL     1       1.319  12.136  19.912  0.00  0.00    +0.000 C 
ATOM     25  O   UNL     1       1.576  12.150  21.107  0.00  0.00    +0.000 OA
ATOM     26  N   UNL     1       1.181  11.013  19.106  0.00  0.00    +0.000 N 
ATOM     27  H   UNL     1       1.147  11.163  18.106  0.00  0.00    +0.000 HD
BRANCH  24  29
ATOM     28  C   UNL     1       2.214  13.851  18.254  0.00  0.00    +0.000 C 
ATOM     29  C   UNL     1       1.129  13.465  19.232  0.00  0.00    +0.000 C 
ATOM     30  C   UNL     1       0.292  14.568  19.857  0.00  0.00    +0.000 C 
ATOM     31  C   UNL     1      -0.300  13.734  18.763  0.00  0.00    +0.000 C 
ENDBRANCH  24  29
ENDBRANCH  17  26
ENDBRANCH   1  22
TORSDOF 3
ENDMDL
MODEL 5
REMARK VINA RESULT:      -7.3      4.542      7.484
REMARK  Name = 
REMARK  5 active torsions:
REMARK  status: ('A' for Active; 'I' for Inactive)
REMARK    1  A    between atoms: C_1  and  C_2
REMARK    2  A    between atoms: C_2  and  C_3
REMARK    3  A    between atoms: N_5  and  C_6
REMARK    4  A    between atoms: C_11  and  C_12
REMARK    5  A    between atoms: C_12  and  C_13
REMARK                            x       y       z     vdW  Elec       q    Type
REMARK                         _______ _______ _______ _____ _____    ______ ____
ROOT
ATOM      1  C   UNL     1      -0.359  11.938  19.208  0.00  0.00    +0.000 C 
ATOM      2  C   UNL     1       0.379  10.684  19.724  0.00  0.00    +0.000 C 
ATOM      3  C   UNL     1      -0.551  13.024  20.274  0.00  0.00    +0.000 C 
ATOM      4  S   UNL     1       0.971  13.761  20.788  0.00  0.00    +0.000 S 
ATOM      5  O   UNL     1       1.784  12.752  21.438  0.00  0.00    +0.000 OA
ATOM      6  O   UNL     1       0.632  14.966  21.527  0.00  0.00    +0.000 OA
ATOM      7  C   UNL     1       1.763  14.247  19.274  0.00  0.00    +0.000 C 
ATOM      8  C   UNL     1       1.174  15.513  18.657  0.00  0.00    +0.000 C 
ATOM      9  C   UNL     1       2.371  16.410  18.397  0.00  0.00    +0.000 C 
ATOM     10  O   UNL     1       3.545  15.620  18.604  0.00  0.00    +0.000 OA
ATOM     11  C   UNL     1       3.199  14.630  19.584  0.00  0.00    +0.000 C 
ATOM     12  C   UNL     1       1.619  13.123  18.262  0.00  0.00    +0.000 C 
ATOM     13  N   UNL     1       2.535  12.782  17.410  0.00  0.00    +0.000 NA
ATOM     14  N   UNL     1       0.425  12.471  18.096  0.00  0.00    +0.000 N 
ATOM     15  H   UNL     1       3.393  13.341  17.509  0.00  0.00    +0.000 HD
ATOM     16  H   UNL     1       0.556  11.770  17.363  0.00  0.00    +0.000 HD
ENDROOT
BRANCH   1  22
ATOM     17  C   UNL     1      -4.223  11.695  18.662  0.00  0.00    +0.000 A 
ATOM     18  C   UNL     1      -4.262  10.629  17.758  0.00  0.00    +0.000 A 
ATOM     19  C   UNL     1      -3.099   9.985  17.360  0.00  0.00    +0.000 A 
ATOM     20  C   UNL     1      -1.878  10.419  17.847  0.00  0.00    +0.000 A 
ATOM     21  F   UNL     1      -0.787   9.731  17.484  0.00  0.00    +0.000 F 
ATOM     22  C   UNL     1      -1.766  11.526  18.708  0.00  0.00    +0.000 A 
ATOM     23  C   UNL     1      -2.970  12.168  19.099  0.00  0.00    +0.000 A 
BRANCH  17  26
ATOM     24  C   UNL     1      -5.718  12.402  20.508  0.00  0.00    +0.000 C 
ATOM     25  O   UNL     1      -5.009  12.072  21.448  0.00  0.00    +0.000 OA
ATOM     26  N   UNL     1      -5.413  12.289  19.158  0.00  0.00    +0.000 N 
ATOM     27  H   UNL     1      -6.019  12.768  18.505  0.00  0.00    +0.000 HD
BRANCH  24  29
ATOM     28  C   UNL     1      -7.806  12.319  21.965  0.00  0.00    +0.000 C 
ATOM     29  C   UNL     1      -7.064  12.992  20.835  0.00  0.00    +0.000 C 
ATOM     30  C   UNL     1      -7.864  13.771  19.805  0.00  0.00    +0.000 C 
ATOM     31  C   UNL     1      -7.095  14.520  20.848  0.00  0.00    +0.000 C 
ENDBRANCH  24  29
ENDBRANCH  17  26
ENDBRANCH   1  22
TORSDOF 3
ENDMDL
MODEL 6
REMARK VINA RESULT:      -7.3      3.558      8.866
REMARK  Name = 
REMARK  5 active torsions:
REMARK  status: ('A' for Active; 'I' for Inactive)
REMARK    1  A    between atoms: C_1  and  C_2
REMARK    2  A    between atoms: C_2  and  C_3
REMARK    3  A    between atoms: N_5  and  C_6
REMARK    4  A    between atoms: C_11  and  C_12
REMARK    5  A    between atoms: C_12  and  C_13
REMARK                            x       y       z     vdW  Elec       q    Type
REMARK                         _______ _______ _______ _____ _____    ______ ____
ROOT
ATOM      1  C   UNL     1       2.750   5.965  18.674  0.00  0.00    +0.000 C 
ATOM      2  C   UNL     1       1.769   5.354  17.649  0.00  0.00    +0.000 C 
ATOM      3  C   UNL     1       3.378   4.933  19.618  0.00  0.00    +0.000 C 
ATOM      4  S   UNL     1       4.466   3.814  18.790  0.00  0.00    +0.000 S 
ATOM      5  O   UNL     1       3.698   3.024  17.847  0.00  0.00    +0.000 OA
ATOM      6  O   UNL     1       5.230   3.124  19.816  0.00  0.00    +0.000 OA
ATOM      7  C   UNL     1       5.579   4.862  17.886  0.00  0.00    +0.000 C 
ATOM      8  C   UNL     1       6.650   5.510  18.759  0.00  0.00    +0.000 C 
ATOM      9  C   UNL     1       7.960   5.207  18.052  0.00  0.00    +0.000 C 
ATOM     10  O   UNL     1       7.633   4.668  16.768  0.00  0.00    +0.000 OA
ATOM     11  C   UNL     1       6.371   4.003  16.917  0.00  0.00    +0.000 C 
ATOM     12  C   UNL     1       4.779   5.974  17.227  0.00  0.00    +0.000 C 
ATOM     13  N   UNL     1       5.029   6.458  16.050  0.00  0.00    +0.000 NA
ATOM     14  N   UNL     1       3.798   6.641  17.913  0.00  0.00    +0.000 N 
ATOM     15  H   UNL     1       5.819   5.987  15.590  0.00  0.00    +0.000 HD
ATOM     16  H   UNL     1       3.407   7.346  17.284  0.00  0.00    +0.000 HD
ENDROOT
BRANCH   1  22
ATOM     17  C   UNL     1       1.259   9.273  20.131  0.00  0.00    +0.000 A 
ATOM     18  C   UNL     1       0.619   8.759  21.263  0.00  0.00    +0.000 A 
ATOM     19  C   UNL     1       0.687   7.408  21.572  0.00  0.00    +0.000 A 
ATOM     20  C   UNL     1       1.380   6.550  20.736  0.00  0.00    +0.000 A 
ATOM     21  F   UNL     1       1.471   5.265  21.104  0.00  0.00    +0.000 F 
ATOM     22  C   UNL     1       1.990   6.993  19.548  0.00  0.00    +0.000 A 
ATOM     23  C   UNL     1       1.905   8.380  19.254  0.00  0.00    +0.000 A 
BRANCH  17  26
ATOM     24  C   UNL     1       0.179  11.400  19.460  0.00  0.00    +0.000 C 
ATOM     25  O   UNL     1      -0.964  10.986  19.331  0.00  0.00    +0.000 OA
ATOM     26  N   UNL     1       1.287  10.666  19.864  0.00  0.00    +0.000 N 
ATOM     27  H   UNL     1       2.124  11.183  20.098  0.00  0.00    +0.000 HD
BRANCH  24  29
ATOM     28  C   UNL     1      -0.513  13.464  18.137  0.00  0.00    +0.000 C 
ATOM     29  C   UNL     1       0.425  12.852  19.151  0.00  0.00    +0.000 C 
ATOM     30  C   UNL     1       1.789  13.491  19.354  0.00  0.00    +0.000 C 
ATOM     31  C   UNL     1       0.719  13.716  20.376  0.00  0.00    +0.000 C 
ENDBRANCH  24  29
ENDBRANCH  17  26
ENDBRANCH   1  22
TORSDOF 3
ENDMDL
MODEL 7
REMARK VINA RESULT:      -7.3      2.730      3.758
REMARK  Name = 
REMARK  5 active torsions:
REMARK  status: ('A' for Active; 'I' for Inactive)
REMARK    1  A    between atoms: C_1  and  C_2
REMARK    2  A    between atoms: C_2  and  C_3
REMARK    3  A    between atoms: N_5  and  C_6
REMARK    4  A    between atoms: C_11  and  C_12
REMARK    5  A    between atoms: C_12  and  C_13
REMARK                            x       y       z     vdW  Elec       q    Type
REMARK                         _______ _______ _______ _____ _____    ______ ____
ROOT
ATOM      1  C   UNL     1       0.980  10.033  19.297  0.00  0.00    +0.000 C 
ATOM      2  C   UNL     1       1.418  10.549  17.909  0.00  0.00    +0.000 C 
ATOM      3  C   UNL     1       1.471  10.901  20.462  0.00  0.00    +0.000 C 
ATOM      4  S   UNL     1       0.728  12.504  20.488  0.00  0.00    +0.000 S 
ATOM      5  O   UNL     1       1.133  13.228  19.299  0.00  0.00    +0.000 OA
ATOM      6  O   UNL     1       1.014  13.085  21.789  0.00  0.00    +0.000 OA
ATOM      7  C   UNL     1      -1.017  12.187  20.399  0.00  0.00    +0.000 C 
ATOM      8  C   UNL     1      -1.618  11.710  21.719  0.00  0.00    +0.000 C 
ATOM      9  C   UNL     1      -2.814  12.617  21.950  0.00  0.00    +0.000 C 
ATOM     10  O   UNL     1      -3.020  13.359  20.743  0.00  0.00    +0.000 OA
ATOM     11  C   UNL     1      -1.733  13.498  20.128  0.00  0.00    +0.000 C 
ATOM     12  C   UNL     1      -1.267  11.109  19.357  0.00  0.00    +0.000 C 
ATOM     13  N   UNL     1      -2.283  11.091  18.551  0.00  0.00    +0.000 NA
ATOM     14  N   UNL     1      -0.481   9.989  19.296  0.00  0.00    +0.000 N 
ATOM     15  H   UNL     1      -2.896  11.907  18.672  0.00  0.00    +0.000 HD
ATOM     16  H   UNL     1      -0.836   9.403  18.537  0.00  0.00    +0.000 HD
ENDROOT
BRANCH   1  22
ATOM     17  C   UNL     1       2.908   6.661  18.852  0.00  0.00    +0.000 A 
ATOM     18  C   UNL     1       2.452   5.982  19.987  0.00  0.00    +0.000 A 
ATOM     19  C   UNL     1       1.535   6.566  20.850  0.00  0.00    +0.000 A 
ATOM     20  C   UNL     1       1.080   7.848  20.596  0.00  0.00    +0.000 A 
ATOM     21  F   UNL     1       0.150   8.350  21.420  0.00  0.00    +0.000 F 
ATOM     22  C   UNL     1       1.548   8.607  19.508  0.00  0.00    +0.000 A 
ATOM     23  C   UNL     1       2.487   7.988  18.642  0.00  0.00    +0.000 A 
BRANCH  17  26
ATOM     24  C   UNL     1       5.000   5.489  18.223  0.00  0.00    +0.000 C 
ATOM     25  O   UNL     1       5.504   5.417  19.334  0.00  0.00    +0.000 OA
ATOM     26  N   UNL     1       3.761   6.034  17.907  0.00  0.00    +0.000 N 
ATOM     27  H   UNL     1       3.403   5.860  16.978  0.00  0.00    +0.000 HD
BRANCH  24  29
ATOM     28  C   UNL     1       7.263   4.720  17.341  0.00  0.00    +0.000 C 
ATOM     29  C   UNL     1       5.792   4.937  17.069  0.00  0.00    +0.000 C 
ATOM     30  C   UNL     1       5.342   5.123  15.631  0.00  0.00    +0.000 C 
ATOM     31  C   UNL     1       5.095   3.811  16.308  0.00  0.00    +0.000 C 
ENDBRANCH  24  29
ENDBRANCH  17  26
ENDBRANCH   1  22
TORSDOF 3
ENDMDL
MODEL 8
REMARK VINA RESULT:      -7.3      3.871      8.590
REMARK  Name = 
REMARK  5 active torsions:
REMARK  status: ('A' for Active; 'I' for Inactive)
REMARK    1  A    between atoms: C_1  and  C_2
REMARK    2  A    between atoms: C_2  and  C_3
REMARK    3  A    between atoms: N_5  and  C_6
REMARK    4  A    between atoms: C_11  and  C_12
REMARK    5  A    between atoms: C_12  and  C_13
REMARK                            x       y       z     vdW  Elec       q    Type
REMARK                         _______ _______ _______ _____ _____    ______ ____
ROOT
ATOM      1  C   UNL     1       3.027   6.372  18.621  0.00  0.00    +0.000 C 
ATOM      2  C   UNL     1       2.185   5.293  17.904  0.00  0.00    +0.000 C 
ATOM      3  C   UNL     1       4.079   5.799  19.577  0.00  0.00    +0.000 C 
ATOM      4  S   UNL     1       5.365   4.922  18.740  0.00  0.00    +0.000 S 
ATOM      5  O   UNL     1       4.793   3.759  18.090  0.00  0.00    +0.000 OA
ATOM      6  O   UNL     1       6.441   4.726  19.697  0.00  0.00    +0.000 OA
ATOM      7  C   UNL     1       5.936   6.051  17.493  0.00  0.00    +0.000 C 
ATOM      8  C   UNL     1       6.830   7.161  18.040  0.00  0.00    +0.000 C 
ATOM      9  C   UNL     1       8.064   7.136  17.155  0.00  0.00    +0.000 C 
ATOM     10  O   UNL     1       7.775   6.270  16.053  0.00  0.00    +0.000 OA
ATOM     11  C   UNL     1       6.841   5.296  16.536  0.00  0.00    +0.000 C 
ATOM     12  C   UNL     1       4.732   6.704  16.834  0.00  0.00    +0.000 C 
ATOM     13  N   UNL     1       4.653   6.989  15.571  0.00  0.00    +0.000 NA
ATOM     14  N   UNL     1       3.681   7.165  17.582  0.00  0.00    +0.000 N 
ATOM     15  H   UNL     1       5.490   6.698  15.049  0.00  0.00    +0.000 HD
ATOM     16  H   UNL     1       2.999   7.571  16.938  0.00  0.00    +0.000 HD
ENDROOT
BRANCH   1  22
ATOM     17  C   UNL     1       0.974   9.413  19.973  0.00  0.00    +0.000 A 
ATOM     18  C   UNL     1       0.394   8.818  21.098  0.00  0.00    +0.000 A 
ATOM     19  C   UNL     1       0.672   7.501  21.435  0.00  0.00    +0.000 A 
ATOM     20  C   UNL     1       1.520   6.756  20.634  0.00  0.00    +0.000 A 
ATOM     21  F   UNL     1       1.809   5.508  21.030  0.00  0.00    +0.000 F 
ATOM     22  C   UNL     1       2.084   7.275  19.455  0.00  0.00    +0.000 A 
ATOM     23  C   UNL     1       1.783   8.624  19.131  0.00  0.00    +0.000 A 
BRANCH  17  26
ATOM     24  C   UNL     1       1.496  11.482  18.713  0.00  0.00    +0.000 C 
ATOM     25  O   UNL     1       2.333  11.020  17.950  0.00  0.00    +0.000 OA
ATOM     26  N   UNL     1       0.781  10.788  19.680  0.00  0.00    +0.000 N 
ATOM     27  H   UNL     1      -0.001  11.265  20.109  0.00  0.00    +0.000 HD
BRANCH  24  29
ATOM     28  C   UNL     1      -0.236  13.305  18.307  0.00  0.00    +0.000 C 
ATOM     29  C   UNL     1       1.203  12.954  18.604  0.00  0.00    +0.000 C 
ATOM     30  C   UNL     1       2.283  13.957  18.238  0.00  0.00    +0.000 C 
ATOM     31  C   UNL     1       1.879  13.812  19.672  0.00  0.00    +0.000 C 
ENDBRANCH  24  29
ENDBRANCH  17  26
ENDBRANCH   1  22
TORSDOF 3
ENDMDL
MODEL 9
REMARK VINA RESULT:      -7.2      2.834      9.018
REMARK  Name = 
REMARK  5 active torsions:
REMARK  status: ('A' for Active; 'I' for Inactive)
REMARK    1  A    between atoms: C_1  and  C_2
REMARK    2  A    between atoms: C_2  and  C_3
REMARK    3  A    between atoms: N_5  and  C_6
REMARK    4  A    between atoms: C_11  and  C_12
REMARK    5  A    between atoms: C_12  and  C_13
REMARK                            x       y       z     vdW  Elec       q    Type
REMARK                         _______ _______ _______ _____ _____    ______ ____
ROOT
ATOM      1  C   UNL     1       2.770   6.587  18.791  0.00  0.00    +0.000 C 
ATOM      2  C   UNL     1       3.534   7.106  17.554  0.00  0.00    +0.000 C 
ATOM      3  C   UNL     1       1.760   5.479  18.473  0.00  0.00    +0.000 C 
ATOM      4  S   UNL     1       2.527   3.978  17.943  0.00  0.00    +0.000 S 
ATOM      5  O   UNL     1       3.210   4.220  16.686  0.00  0.00    +0.000 OA
ATOM      6  O   UNL     1       1.513   2.938  17.996  0.00  0.00    +0.000 OA
ATOM      7  C   UNL     1       3.739   3.631  19.194  0.00  0.00    +0.000 C 
ATOM      8  C   UNL     1       3.141   3.059  20.478  0.00  0.00    +0.000 C 
ATOM      9  C   UNL     1       3.958   1.811  20.762  0.00  0.00    +0.000 C 
ATOM     10  O   UNL     1       5.077   1.825  19.869  0.00  0.00    +0.000 OA
ATOM     11  C   UNL     1       4.647   2.523  18.692  0.00  0.00    +0.000 C 
ATOM     12  C   UNL     1       4.460   4.920  19.549  0.00  0.00    +0.000 C 
ATOM     13  N   UNL     1       5.725   4.999  19.826  0.00  0.00    +0.000 NA
ATOM     14  N   UNL     1       3.770   6.089  19.734  0.00  0.00    +0.000 N 
ATOM     15  H   UNL     1       6.202   4.092  19.752  0.00  0.00    +0.000 HD
ATOM     16  H   UNL     1       4.449   6.814  19.975  0.00  0.00    +0.000 HD
ENDROOT
BRANCH   1  22
ATOM     17  C   UNL     1       1.238  10.106  19.540  0.00  0.00    +0.000 A 
ATOM     18  C   UNL     1       0.568   9.817  20.734  0.00  0.00    +0.000 A 
ATOM     19  C   UNL     1       0.628   8.551  21.300  0.00  0.00    +0.000 A 
ATOM     20  C   UNL     1       1.344   7.552  20.664  0.00  0.00    +0.000 A 
ATOM     21  F   UNL     1       1.426   6.363  21.276  0.00  0.00    +0.000 F 
ATOM     22  C   UNL     1       1.986   7.761  19.430  0.00  0.00    +0.000 A 
ATOM     23  C   UNL     1       1.909   9.064  18.871  0.00  0.00    +0.000 A 
BRANCH  17  26
ATOM     24  C   UNL     1       1.533  12.556  19.768  0.00  0.00    +0.000 C 
ATOM     25  O   UNL     1       1.821  12.591  20.956  0.00  0.00    +0.000 OA
ATOM     26  N   UNL     1       1.272  11.422  19.011  0.00  0.00    +0.000 N 
ATOM     27  H   UNL     1       1.226  11.536  18.006  0.00  0.00    +0.000 HD
BRANCH  24  29
ATOM     28  C   UNL     1       2.474  14.072  17.950  0.00  0.00    +0.000 C 
ATOM     29  C   UNL     1       1.448  13.871  19.041  0.00  0.00    +0.000 C 
ATOM     30  C   UNL     1       0.821  15.097  19.682  0.00  0.00    +0.000 C 
ATOM     31  C   UNL     1       0.026  14.306  18.691  0.00  0.00    +0.000 C 
ENDBRANCH  24  29
ENDBRANCH  17  26
ENDBRANCH   1  22
TORSDOF 3
ENDMDL
