MODEL 1
REMARK VINA RESULT:      -9.9      0.000      0.000
REMARK  Name = 
REMARK  2 active torsions:
REMARK  status: ('A' for Active; 'I' for Inactive)
REMARK    1  A    between atoms: C_4  and  C_5
REMARK    2  A    between atoms: C_5  and  C_12
REMARK                            x       y       z     vdW  Elec       q    Type
REMARK                         _______ _______ _______ _____ _____    ______ ____
ROOT
ATOM      1  C   UNL     1       3.674   5.977  18.133  0.00  0.00    +0.000 C 
ATOM      2  C   UNL     1       3.034   4.870  17.674  0.00  0.00    +0.000 C 
ATOM      3  C   UNL     1       3.696   3.659  17.038  0.00  0.00    +0.000 C 
ATOM      4  C   UNL     1       3.305   2.382  17.784  0.00  0.00    +0.000 C 
ATOM      5  O   UNL     1       1.882   2.224  17.838  0.00  0.00    +0.000 OA
ATOM      6  C   UNL     1       1.257   3.333  18.495  0.00  0.00    +0.000 C 
ATOM      7  C   UNL     1       1.526   4.641  17.743  0.00  0.00    +0.000 C 
ENDROOT
BRANCH   1   8
ATOM      8  C   UNL     1       2.852   7.137  18.551  0.00  0.00    +0.000 A 
ATOM      9  C   UNL     1       2.538   8.115  17.601  0.00  0.00    +0.000 A 
ATOM     10  C   UNL     1       1.668   9.156  17.921  0.00  0.00    +0.000 A 
ATOM     11  C   UNL     1       1.086   9.231  19.193  0.00  0.00    +0.000 A 
ATOM     12  C   UNL     1       0.161  10.240  19.503  0.00  0.00    +0.000 A 
ATOM     13  C   UNL     1      -0.428  10.300  20.766  0.00  0.00    +0.000 A 
ATOM     14  C   UNL     1      -0.087   9.365  21.738  0.00  0.00    +0.000 A 
ATOM     15  C   UNL     1       0.836   8.357  21.446  0.00  0.00    +0.000 A 
ATOM     16  C   UNL     1       1.423   8.269  20.173  0.00  0.00    +0.000 A 
ATOM     17  C   UNL     1       2.317   7.233  19.842  0.00  0.00    +0.000 A 
ENDBRANCH   1   8
BRANCH   1  21
ATOM     18  C   UNL     1       7.936   6.278  18.455  0.00  0.00    +0.000 A 
ATOM     19  C   UNL     1       7.282   6.874  17.378  0.00  0.00    +0.000 A 
ATOM     20  C   UNL     1       5.895   6.756  17.247  0.00  0.00    +0.000 A 
ATOM     21  C   UNL     1       5.153   6.043  18.196  0.00  0.00    +0.000 A 
ATOM     22  C   UNL     1       5.823   5.437  19.268  0.00  0.00    +0.000 A 
ATOM     23  C   UNL     1       7.209   5.556  19.397  0.00  0.00    +0.000 A 
ENDBRANCH   1  21
TORSDOF 2
ENDMDL
MODEL 2
REMARK VINA RESULT:      -9.7      0.102      1.012
REMARK  Name = 
REMARK  2 active torsions:
REMARK  status: ('A' for Active; 'I' for Inactive)
REMARK    1  A    between atoms: C_4  and  C_5
REMARK    2  A    between atoms: C_5  and  C_12
REMARK                            x       y       z     vdW  Elec       q    Type
REMARK                         _______ _______ _______ _____ _____    ______ ____
ROOT
ATOM      1  C   UNL     1       3.622   6.018  18.181  0.00  0.00    +0.000 C 
ATOM      2  C   UNL     1       2.993   4.911  17.705  0.00  0.00    +0.000 C 
ATOM      3  C   UNL     1       3.669   3.708  17.068  0.00  0.00    +0.000 C 
ATOM      4  C   UNL     1       3.274   2.424  17.799  0.00  0.00    +0.000 C 
ATOM      5  O   UNL     1       1.851   2.259  17.833  0.00  0.00    +0.000 OA
ATOM      6  C   UNL     1       1.212   3.360  18.491  0.00  0.00    +0.000 C 
ATOM      7  C   UNL     1       1.486   4.675  17.753  0.00  0.00    +0.000 C 
ENDROOT
BRANCH   1   8
ATOM      8  C   UNL     1       2.789   7.170  18.597  0.00  0.00    +0.000 A 
ATOM      9  C   UNL     1       2.438   8.127  17.638  0.00  0.00    +0.000 A 
ATOM     10  C   UNL     1       1.557   9.158  17.959  0.00  0.00    +0.000 A 
ATOM     11  C   UNL     1       1.002   9.245  19.243  0.00  0.00    +0.000 A 
ATOM     12  C   UNL     1       0.067  10.244  19.556  0.00  0.00    +0.000 A 
ATOM     13  C   UNL     1      -0.496  10.316  20.830  0.00  0.00    +0.000 A 
ATOM     14  C   UNL     1      -0.117   9.403  21.810  0.00  0.00    +0.000 A 
ATOM     15  C   UNL     1       0.817   8.406  21.515  0.00  0.00    +0.000 A 
ATOM     16  C   UNL     1       1.378   8.306  20.231  0.00  0.00    +0.000 A 
ATOM     17  C   UNL     1       2.281   7.279  19.898  0.00  0.00    +0.000 A 
ENDBRANCH   1   8
BRANCH   1  21
ATOM     18  C   UNL     1       7.905   6.114  18.285  0.00  0.00    +0.000 A 
ATOM     19  C   UNL     1       7.204   5.468  19.303  0.00  0.00    +0.000 A 
ATOM     20  C   UNL     1       5.806   5.457  19.294  0.00  0.00    +0.000 A 
ATOM     21  C   UNL     1       5.100   6.090  18.265  0.00  0.00    +0.000 A 
ATOM     22  C   UNL     1       5.815   6.748  17.254  0.00  0.00    +0.000 A 
ATOM     23  C   UNL     1       7.212   6.758  17.264  0.00  0.00    +0.000 A 
ENDBRANCH   1  21
TORSDOF 2
ENDMDL
MODEL 3
REMARK VINA RESULT:      -9.4      0.623      1.600
REMARK  Name = 
REMARK  2 active torsions:
REMARK  status: ('A' for Active; 'I' for Inactive)
REMARK    1  A    between atoms: C_4  and  C_5
REMARK    2  A    between atoms: C_5  and  C_12
REMARK                            x       y       z     vdW  Elec       q    Type
REMARK                         _______ _______ _______ _____ _____    ______ ____
ROOT
ATOM      1  C   UNL     1       3.572   5.742  18.299  0.00  0.00    +0.000 C 
ATOM      2  C   UNL     1       3.007   4.618  17.786  0.00  0.00    +0.000 C 
ATOM      3  C   UNL     1       3.732   3.533  17.007  0.00  0.00    +0.000 C 
ATOM      4  C   UNL     1       3.516   2.168  17.662  0.00  0.00    +0.000 C 
ATOM      5  O   UNL     1       2.122   1.866  17.791  0.00  0.00    +0.000 OA
ATOM      6  C   UNL     1       1.444   2.851  18.581  0.00  0.00    +0.000 C 
ATOM      7  C   UNL     1       1.536   4.236  17.930  0.00  0.00    +0.000 C 
ENDROOT
BRANCH   1   8
ATOM      8  C   UNL     1       2.677   6.777  18.867  0.00  0.00    +0.000 A 
ATOM      9  C   UNL     1       2.230   6.630  20.185  0.00  0.00    +0.000 A 
ATOM     10  C   UNL     1       1.488   7.639  20.796  0.00  0.00    +0.000 A 
ATOM     11  C   UNL     1       1.189   8.820  20.105  0.00  0.00    +0.000 A 
ATOM     12  C   UNL     1       0.497   9.867  20.733  0.00  0.00    +0.000 A 
ATOM     13  C   UNL     1       0.217  11.047  20.046  0.00  0.00    +0.000 A 
ATOM     14  C   UNL     1       0.609  11.188  18.717  0.00  0.00    +0.000 A 
ATOM     15  C   UNL     1       1.295  10.153  18.076  0.00  0.00    +0.000 A 
ATOM     16  C   UNL     1       1.604   8.966  18.760  0.00  0.00    +0.000 A 
ATOM     17  C   UNL     1       2.337   7.932  18.149  0.00  0.00    +0.000 A 
ENDBRANCH   1   8
BRANCH   1  21
ATOM     18  C   UNL     1       7.798   6.443  18.373  0.00  0.00    +0.000 A 
ATOM     19  C   UNL     1       7.022   7.013  17.365  0.00  0.00    +0.000 A 
ATOM     20  C   UNL     1       5.647   6.766  17.315  0.00  0.00    +0.000 A 
ATOM     21  C   UNL     1       5.039   5.949  18.275  0.00  0.00    +0.000 A 
ATOM     22  C   UNL     1       5.832   5.370  19.277  0.00  0.00    +0.000 A 
ATOM     23  C   UNL     1       7.206   5.618  19.326  0.00  0.00    +0.000 A 
ENDBRANCH   1  21
TORSDOF 2
ENDMDL
MODEL 4
REMARK VINA RESULT:      -9.3      0.622      1.883
REMARK  Name = 
REMARK  2 active torsions:
REMARK  status: ('A' for Active; 'I' for Inactive)
REMARK    1  A    between atoms: C_4  and  C_5
REMARK    2  A    between atoms: C_5  and  C_12
REMARK                            x       y       z     vdW  Elec       q    Type
REMARK                         _______ _______ _______ _____ _____    ______ ____
ROOT
ATOM      1  C   UNL     1       3.526   5.806  18.352  0.00  0.00    +0.000 C 
ATOM      2  C   UNL     1       2.978   4.677  17.830  0.00  0.00    +0.000 C 
ATOM      3  C   UNL     1       3.720   3.603  17.053  0.00  0.00    +0.000 C 
ATOM      4  C   UNL     1       3.513   2.234  17.701  0.00  0.00    +0.000 C 
ATOM      5  O   UNL     1       2.121   1.916  17.818  0.00  0.00    +0.000 OA
ATOM      6  C   UNL     1       1.426   2.892  18.605  0.00  0.00    +0.000 C 
ATOM      7  C   UNL     1       1.509   4.280  17.960  0.00  0.00    +0.000 C 
ENDROOT
BRANCH   1   8
ATOM      8  C   UNL     1       2.616   6.829  18.916  0.00  0.00    +0.000 A 
ATOM      9  C   UNL     1       2.172   6.681  20.235  0.00  0.00    +0.000 A 
ATOM     10  C   UNL     1       1.416   7.682  20.842  0.00  0.00    +0.000 A 
ATOM     11  C   UNL     1       1.098   8.855  20.145  0.00  0.00    +0.000 A 
ATOM     12  C   UNL     1       0.390   9.894  20.770  0.00  0.00    +0.000 A 
ATOM     13  C   UNL     1       0.091  11.066  20.076  0.00  0.00    +0.000 A 
ATOM     14  C   UNL     1       0.480  11.207  18.747  0.00  0.00    +0.000 A 
ATOM     15  C   UNL     1       1.181  10.180  18.110  0.00  0.00    +0.000 A 
ATOM     16  C   UNL     1       1.509   9.001  18.800  0.00  0.00    +0.000 A 
ATOM     17  C   UNL     1       2.258   7.975  18.193  0.00  0.00    +0.000 A 
ENDBRANCH   1   8
BRANCH   1  21
ATOM     18  C   UNL     1       7.773   6.348  18.175  0.00  0.00    +0.000 A 
ATOM     19  C   UNL     1       7.219   5.561  19.185  0.00  0.00    +0.000 A 
ATOM     20  C   UNL     1       5.833   5.403  19.269  0.00  0.00    +0.000 A 
ATOM     21  C   UNL     1       4.992   6.028  18.341  0.00  0.00    +0.000 A 
ATOM     22  C   UNL     1       5.559   6.827  17.338  0.00  0.00    +0.000 A 
ATOM     23  C   UNL     1       6.945   6.984  17.255  0.00  0.00    +0.000 A 
ENDBRANCH   1  21
TORSDOF 2
ENDMDL
MODEL 5
REMARK VINA RESULT:      -9.1      1.086      1.485
REMARK  Name = 
REMARK  2 active torsions:
REMARK  status: ('A' for Active; 'I' for Inactive)
REMARK    1  A    between atoms: C_4  and  C_5
REMARK    2  A    between atoms: C_5  and  C_12
REMARK                            x       y       z     vdW  Elec       q    Type
REMARK                         _______ _______ _______ _____ _____    ______ ____
ROOT
ATOM      1  C   UNL     1       3.441   5.339  18.036  0.00  0.00    +0.000 C 
ATOM      2  C   UNL     1       2.657   4.231  18.076  0.00  0.00    +0.000 C 
ATOM      3  C   UNL     1       3.019   2.863  17.520  0.00  0.00    +0.000 C 
ATOM      4  C   UNL     1       2.900   1.795  18.608  0.00  0.00    +0.000 C 
ATOM      5  O   UNL     1       1.591   1.785  19.190  0.00  0.00    +0.000 OA
ATOM      6  C   UNL     1       1.268   3.054  19.774  0.00  0.00    +0.000 C 
ATOM      7  C   UNL     1       1.273   4.163  18.716  0.00  0.00    +0.000 C 
ENDROOT
BRANCH   1   8
ATOM      8  C   UNL     1       2.849   6.630  18.460  0.00  0.00    +0.000 A 
ATOM      9  C   UNL     1       2.668   7.633  17.502  0.00  0.00    +0.000 A 
ATOM     10  C   UNL     1       2.004   8.813  17.832  0.00  0.00    +0.000 A 
ATOM     11  C   UNL     1       1.499   9.007  19.124  0.00  0.00    +0.000 A 
ATOM     12  C   UNL     1       0.775  10.166  19.448  0.00  0.00    +0.000 A 
ATOM     13  C   UNL     1       0.260  10.346  20.731  0.00  0.00    +0.000 A 
ATOM     14  C   UNL     1       0.478   9.381  21.710  0.00  0.00    +0.000 A 
ATOM     15  C   UNL     1       1.200   8.224  21.404  0.00  0.00    +0.000 A 
ATOM     16  C   UNL     1       1.708   8.016  20.111  0.00  0.00    +0.000 A 
ATOM     17  C   UNL     1       2.395   6.837  19.769  0.00  0.00    +0.000 A 
ENDBRANCH   1   8
BRANCH   1  21
ATOM     18  C   UNL     1       7.462   4.998  16.593  0.00  0.00    +0.000 A 
ATOM     19  C   UNL     1       7.210   4.909  17.962  0.00  0.00    +0.000 A 
ATOM     20  C   UNL     1       5.905   5.050  18.445  0.00  0.00    +0.000 A 
ATOM     21  C   UNL     1       4.844   5.276  17.562  0.00  0.00    +0.000 A 
ATOM     22  C   UNL     1       5.111   5.376  16.189  0.00  0.00    +0.000 A 
ATOM     23  C   UNL     1       6.415   5.236  15.707  0.00  0.00    +0.000 A 
ENDBRANCH   1  21
TORSDOF 2
ENDMDL
MODEL 6
REMARK VINA RESULT:      -8.8      1.848      3.725
REMARK  Name = 
REMARK  2 active torsions:
REMARK  status: ('A' for Active; 'I' for Inactive)
REMARK    1  A    between atoms: C_4  and  C_5
REMARK    2  A    between atoms: C_5  and  C_12
REMARK                            x       y       z     vdW  Elec       q    Type
REMARK                         _______ _______ _______ _____ _____    ______ ____
ROOT
ATOM      1  C   UNL     1       2.937   5.956  18.780  0.00  0.00    +0.000 C 
ATOM      2  C   UNL     1       4.138   5.844  18.157  0.00  0.00    +0.000 C 
ATOM      3  C   UNL     1       4.987   4.586  18.079  0.00  0.00    +0.000 C 
ATOM      4  C   UNL     1       5.299   4.240  16.622  0.00  0.00    +0.000 C 
ATOM      5  O   UNL     1       5.935   5.333  15.950  0.00  0.00    +0.000 OA
ATOM      6  C   UNL     1       5.110   6.506  15.963  0.00  0.00    +0.000 C 
ATOM      7  C   UNL     1       4.837   6.970  17.398  0.00  0.00    +0.000 C 
ENDROOT
BRANCH   1   8
ATOM      8  C   UNL     1       2.342   7.306  18.914  0.00  0.00    +0.000 A 
ATOM      9  C   UNL     1       2.158   8.077  17.760  0.00  0.00    +0.000 A 
ATOM     10  C   UNL     1       1.491   9.299  17.826  0.00  0.00    +0.000 A 
ATOM     11  C   UNL     1       0.985   9.768  19.046  0.00  0.00    +0.000 A 
ATOM     12  C   UNL     1       0.259  10.968  19.110  0.00  0.00    +0.000 A 
ATOM     13  C   UNL     1      -0.257  11.421  20.324  0.00  0.00    +0.000 A 
ATOM     14  C   UNL     1      -0.038  10.692  21.489  0.00  0.00    +0.000 A 
ATOM     15  C   UNL     1       0.687   9.498  21.442  0.00  0.00    +0.000 A 
ATOM     16  C   UNL     1       1.196   9.016  20.225  0.00  0.00    +0.000 A 
ATOM     17  C   UNL     1       1.886   7.791  20.147  0.00  0.00    +0.000 A 
ENDBRANCH   1   8
BRANCH   1  21
ATOM     18  C   UNL     1       1.085   2.449  20.403  0.00  0.00    +0.000 A 
ATOM     19  C   UNL     1       0.912   2.759  19.055  0.00  0.00    +0.000 A 
ATOM     20  C   UNL     1       1.487   3.917  18.523  0.00  0.00    +0.000 A 
ATOM     21  C   UNL     1       2.241   4.770  19.336  0.00  0.00    +0.000 A 
ATOM     22  C   UNL     1       2.397   4.456  20.693  0.00  0.00    +0.000 A 
ATOM     23  C   UNL     1       1.822   3.298  21.223  0.00  0.00    +0.000 A 
ENDBRANCH   1  21
TORSDOF 2
ENDMDL
MODEL 7
REMARK VINA RESULT:      -8.8      1.836      3.801
REMARK  Name = 
REMARK  2 active torsions:
REMARK  status: ('A' for Active; 'I' for Inactive)
REMARK    1  A    between atoms: C_4  and  C_5
REMARK    2  A    between atoms: C_5  and  C_12
REMARK                            x       y       z     vdW  Elec       q    Type
REMARK                         _______ _______ _______ _____ _____    ______ ____
ROOT
ATOM      1  C   UNL     1       3.037   5.965  18.874  0.00  0.00    +0.000 C 
ATOM      2  C   UNL     1       4.225   5.877  18.221  0.00  0.00    +0.000 C 
ATOM      3  C   UNL     1       5.127   4.654  18.174  0.00  0.00    +0.000 C 
ATOM      4  C   UNL     1       5.412   4.255  16.725  0.00  0.00    +0.000 C 
ATOM      5  O   UNL     1       5.979   5.343  15.986  0.00  0.00    +0.000 OA
ATOM      6  C   UNL     1       5.105   6.479  15.972  0.00  0.00    +0.000 C 
ATOM      7  C   UNL     1       4.851   6.995  17.392  0.00  0.00    +0.000 C 
ENDROOT
BRANCH   1   8
ATOM      8  C   UNL     1       2.387   7.293  18.965  0.00  0.00    +0.000 A 
ATOM      9  C   UNL     1       2.193   8.029  17.791  0.00  0.00    +0.000 A 
ATOM     10  C   UNL     1       1.477   9.224  17.817  0.00  0.00    +0.000 A 
ATOM     11  C   UNL     1       0.932   9.702  19.016  0.00  0.00    +0.000 A 
ATOM     12  C   UNL     1       0.158  10.872  19.040  0.00  0.00    +0.000 A 
ATOM     13  C   UNL     1      -0.396  11.333  20.234  0.00  0.00    +0.000 A 
ATOM     14  C   UNL     1      -0.168  10.641  21.420  0.00  0.00    +0.000 A 
ATOM     15  C   UNL     1       0.605   9.476  21.413  0.00  0.00    +0.000 A 
ATOM     16  C   UNL     1       1.153   8.986  20.216  0.00  0.00    +0.000 A 
ATOM     17  C   UNL     1       1.892   7.789  20.179  0.00  0.00    +0.000 A 
ENDBRANCH   1   8
BRANCH   1  21
ATOM     18  C   UNL     1       1.072   2.616  20.686  0.00  0.00    +0.000 A 
ATOM     19  C   UNL     1       1.944   3.397  21.443  0.00  0.00    +0.000 A 
ATOM     20  C   UNL     1       2.613   4.473  20.854  0.00  0.00    +0.000 A 
ATOM     21  C   UNL     1       2.412   4.778  19.503  0.00  0.00    +0.000 A 
ATOM     22  C   UNL     1       1.542   3.978  18.747  0.00  0.00    +0.000 A 
ATOM     23  C   UNL     1       0.875   2.902  19.338  0.00  0.00    +0.000 A 
ENDBRANCH   1  21
TORSDOF 2
ENDMDL
MODEL 8
REMARK VINA RESULT:      -8.4      1.601      1.895
REMARK  Name = 
REMARK  2 active torsions:
REMARK  status: ('A' for Active; 'I' for Inactive)
REMARK    1  A    between atoms: C_4  and  C_5
REMARK    2  A    between atoms: C_5  and  C_12
REMARK                            x       y       z     vdW  Elec       q    Type
REMARK                         _______ _______ _______ _____ _____    ______ ____
ROOT
ATOM      1  C   UNL     1       3.503   5.471  18.763  0.00  0.00    +0.000 C 
ATOM      2  C   UNL     1       2.899   4.389  19.319  0.00  0.00    +0.000 C 
ATOM      3  C   UNL     1       3.331   2.942  19.149  0.00  0.00    +0.000 C 
ATOM      4  C   UNL     1       3.568   2.290  20.512  0.00  0.00    +0.000 C 
ATOM      5  O   UNL     1       2.407   2.386  21.346  0.00  0.00    +0.000 OA
ATOM      6  C   UNL     1       2.032   3.753  21.564  0.00  0.00    +0.000 C 
ATOM      7  C   UNL     1       1.684   4.445  20.242  0.00  0.00    +0.000 C 
ENDROOT
BRANCH   1   8
ATOM      8  C   UNL     1       2.832   6.786  18.887  0.00  0.00    +0.000 A 
ATOM      9  C   UNL     1       2.738   7.602  17.754  0.00  0.00    +0.000 A 
ATOM     10  C   UNL     1       2.010   8.790  17.798  0.00  0.00    +0.000 A 
ATOM     11  C   UNL     1       1.353   9.178  18.972  0.00  0.00    +0.000 A 
ATOM     12  C   UNL     1       0.566  10.341  19.007  0.00  0.00    +0.000 A 
ATOM     13  C   UNL     1      -0.100  10.713  20.174  0.00  0.00    +0.000 A 
ATOM     14  C   UNL     1       0.027   9.940  21.324  0.00  0.00    +0.000 A 
ATOM     15  C   UNL     1       0.810   8.782  21.307  0.00  0.00    +0.000 A 
ATOM     16  C   UNL     1       1.470   8.380  20.134  0.00  0.00    +0.000 A 
ATOM     17  C   UNL     1       2.223   7.192  20.081  0.00  0.00    +0.000 A 
ENDBRANCH   1   8
BRANCH   1  21
ATOM     18  C   UNL     1       7.187   4.938  16.640  0.00  0.00    +0.000 A 
ATOM     19  C   UNL     1       7.212   5.329  17.978  0.00  0.00    +0.000 A 
ATOM     20  C   UNL     1       6.015   5.535  18.671  0.00  0.00    +0.000 A 
ATOM     21  C   UNL     1       4.785   5.347  18.030  0.00  0.00    +0.000 A 
ATOM     22  C   UNL     1       4.772   4.967  16.680  0.00  0.00    +0.000 A 
ATOM     23  C   UNL     1       5.969   4.762  15.989  0.00  0.00    +0.000 A 
ENDBRANCH   1  21
TORSDOF 2
ENDMDL
MODEL 9
REMARK VINA RESULT:      -7.9      2.057      6.209
REMARK  Name = 
REMARK  2 active torsions:
REMARK  status: ('A' for Active; 'I' for Inactive)
REMARK    1  A    between atoms: C_4  and  C_5
REMARK    2  A    between atoms: C_5  and  C_12
REMARK                            x       y       z     vdW  Elec       q    Type
REMARK                         _______ _______ _______ _____ _____    ______ ____
ROOT
ATOM      1  C   UNL     1       3.289   5.793  18.965  0.00  0.00    +0.000 C 
ATOM      2  C   UNL     1       3.093   4.706  19.757  0.00  0.00    +0.000 C 
ATOM      3  C   UNL     1       2.182   4.641  20.971  0.00  0.00    +0.000 C 
ATOM      4  C   UNL     1       1.174   3.500  20.824  0.00  0.00    +0.000 C 
ATOM      5  O   UNL     1       1.833   2.247  20.606  0.00  0.00    +0.000 OA
ATOM      6  C   UNL     1       2.644   2.281  19.424  0.00  0.00    +0.000 C 
ATOM      7  C   UNL     1       3.744   3.342  19.543  0.00  0.00    +0.000 C 
ENDROOT
BRANCH   1   8
ATOM      8  C   UNL     1       4.355   5.727  17.939  0.00  0.00    +0.000 A 
ATOM      9  C   UNL     1       5.618   6.245  18.246  0.00  0.00    +0.000 A 
ATOM     10  C   UNL     1       6.680   6.093  17.356  0.00  0.00    +0.000 A 
ATOM     11  C   UNL     1       6.501   5.410  16.146  0.00  0.00    +0.000 A 
ATOM     12  C   UNL     1       7.579   5.199  15.272  0.00  0.00    +0.000 A 
ATOM     13  C   UNL     1       7.398   4.504  14.077  0.00  0.00    +0.000 A 
ATOM     14  C   UNL     1       6.136   4.029  13.732  0.00  0.00    +0.000 A 
ATOM     15  C   UNL     1       5.052   4.235  14.589  0.00  0.00    +0.000 A 
ATOM     16  C   UNL     1       5.220   4.915  15.807  0.00  0.00    +0.000 A 
ATOM     17  C   UNL     1       4.153   5.090  16.707  0.00  0.00    +0.000 A 
ENDBRANCH   1   8
BRANCH   1  21
ATOM     18  C   UNL     1       1.100   9.448  19.423  0.00  0.00    +0.000 A 
ATOM     19  C   UNL     1       1.297   8.620  20.527  0.00  0.00    +0.000 A 
ATOM     20  C   UNL     1       1.984   7.411  20.382  0.00  0.00    +0.000 A 
ATOM     21  C   UNL     1       2.481   7.025  19.131  0.00  0.00    +0.000 A 
ATOM     22  C   UNL     1       2.265   7.860  18.026  0.00  0.00    +0.000 A 
ATOM     23  C   UNL     1       1.578   9.067  18.172  0.00  0.00    +0.000 A 
ENDBRANCH   1  21
TORSDOF 2
ENDMDL
