MODEL 1
REMARK VINA RESULT:      -6.9      0.000      0.000
REMARK  Name = 
REMARK  6 active torsions:
REMARK  status: ('A' for Active; 'I' for Inactive)
REMARK    1  A    between atoms: C_1  and  C_2
REMARK    2  A    between atoms: C_2  and  C_8
REMARK    3  A    between atoms: C_3  and  C_4
REMARK    4  A    between atoms: C_4  and  N_5
REMARK    5  A    between atoms: N_5  and  C_6
REMARK    6  A    between atoms: N_5  and  C_7
REMARK                            x       y       z     vdW  Elec       q    Type
REMARK                         _______ _______ _______ _____ _____    ______ ____
ROOT
ATOM      1  C   UNL     1       4.705   4.831  17.497  0.00  0.00    +0.000 A 
ATOM      2  C   UNL     1       4.675   5.649  18.649  0.00  0.00    +0.000 A 
ATOM      3  C   UNL     1       3.672   5.503  19.610  0.00  0.00    +0.000 A 
ATOM      4  C   UNL     1       2.688   4.519  19.459  0.00  0.00    +0.000 A 
ATOM      5  C   UNL     1       1.693   4.348  20.436  0.00  0.00    +0.000 A 
ATOM      6  C   UNL     1       0.731   3.345  20.285  0.00  0.00    +0.000 A 
ATOM      7  C   UNL     1       0.753   2.510  19.165  0.00  0.00    +0.000 A 
ATOM      8  C   UNL     1       1.734   2.678  18.184  0.00  0.00    +0.000 A 
ATOM      9  C   UNL     1       2.705   3.683  18.322  0.00  0.00    +0.000 A 
ATOM     10  C   UNL     1       3.696   3.855  17.346  0.00  0.00    +0.000 A 
ENDROOT
BRANCH   1  12
ATOM     11  C   UNL     1       7.069   5.698  16.839  0.00  0.00    +0.000 C 
ATOM     12  C   UNL     1       5.792   4.964  16.463  0.00  0.00    +0.000 C 
ATOM     13  C   UNL     1       5.607   4.445  15.220  0.00  0.00    +0.000 C 
BRANCH  13  14
ATOM     14  C   UNL     1       6.569   4.557  14.058  0.00  0.00    +0.000 C 
BRANCH  14  15
ATOM     15  N   UNL     1       6.316   3.567  12.994  0.00  0.00    +0.000 NA
ATOM     16  C   UNL     1       4.905   3.555  12.576  0.00  0.00    +0.000 C 
ATOM     17  C   UNL     1       7.178   3.864  11.838  0.00  0.00    +0.000 C 
ENDBRANCH  14  15
ENDBRANCH  13  14
ENDBRANCH   1  12
TORSDOF 3
ENDMDL
MODEL 2
REMARK VINA RESULT:      -6.9      0.988      1.262
REMARK  Name = 
REMARK  6 active torsions:
REMARK  status: ('A' for Active; 'I' for Inactive)
REMARK    1  A    between atoms: C_1  and  C_2
REMARK    2  A    between atoms: C_2  and  C_8
REMARK    3  A    between atoms: C_3  and  C_4
REMARK    4  A    between atoms: C_4  and  N_5
REMARK    5  A    between atoms: N_5  and  C_6
REMARK    6  A    between atoms: N_5  and  C_7
REMARK                            x       y       z     vdW  Elec       q    Type
REMARK                         _______ _______ _______ _____ _____    ______ ____
ROOT
ATOM      1  C   UNL     1       4.673   4.485  16.705  0.00  0.00    +0.000 A 
ATOM      2  C   UNL     1       4.217   5.727  17.202  0.00  0.00    +0.000 A 
ATOM      3  C   UNL     1       3.149   5.795  18.099  0.00  0.00    +0.000 A 
ATOM      4  C   UNL     1       2.526   4.624  18.544  0.00  0.00    +0.000 A 
ATOM      5  C   UNL     1       1.469   4.684  19.468  0.00  0.00    +0.000 A 
ATOM      6  C   UNL     1       0.871   3.505  19.923  0.00  0.00    +0.000 A 
ATOM      7  C   UNL     1       1.319   2.265  19.462  0.00  0.00    +0.000 A 
ATOM      8  C   UNL     1       2.364   2.195  18.536  0.00  0.00    +0.000 A 
ATOM      9  C   UNL     1       2.971   3.371  18.070  0.00  0.00    +0.000 A 
ATOM     10  C   UNL     1       4.023   3.312  17.145  0.00  0.00    +0.000 A 
ENDROOT
BRANCH   1  12
ATOM     11  C   UNL     1       7.239   4.627  16.292  0.00  0.00    +0.000 C 
ATOM     12  C   UNL     1       5.837   4.396  15.752  0.00  0.00    +0.000 C 
ATOM     13  C   UNL     1       5.614   4.130  14.438  0.00  0.00    +0.000 C 
BRANCH  13  14
ATOM     14  C   UNL     1       6.663   4.077  13.351  0.00  0.00    +0.000 C 
BRANCH  14  15
ATOM     15  N   UNL     1       6.138   3.607  12.055  0.00  0.00    +0.000 NA
ATOM     16  C   UNL     1       6.845   2.409  11.575  0.00  0.00    +0.000 C 
ATOM     17  C   UNL     1       4.700   3.320  12.186  0.00  0.00    +0.000 C 
ENDBRANCH  14  15
ENDBRANCH  13  14
ENDBRANCH   1  12
TORSDOF 3
ENDMDL
MODEL 3
REMARK VINA RESULT:      -6.7      3.590      4.922
REMARK  Name = 
REMARK  6 active torsions:
REMARK  status: ('A' for Active; 'I' for Inactive)
REMARK    1  A    between atoms: C_1  and  C_2
REMARK    2  A    between atoms: C_2  and  C_8
REMARK    3  A    between atoms: C_3  and  C_4
REMARK    4  A    between atoms: C_4  and  N_5
REMARK    5  A    between atoms: N_5  and  C_6
REMARK    6  A    between atoms: N_5  and  C_7
REMARK                            x       y       z     vdW  Elec       q    Type
REMARK                         _______ _______ _______ _____ _____    ______ ____
ROOT
ATOM      1  C   UNL     1       2.991   6.873  18.391  0.00  0.00    +0.000 A 
ATOM      2  C   UNL     1       2.604   6.448  19.682  0.00  0.00    +0.000 A 
ATOM      3  C   UNL     1       1.780   7.242  20.484  0.00  0.00    +0.000 A 
ATOM      4  C   UNL     1       1.302   8.468  20.009  0.00  0.00    +0.000 A 
ATOM      5  C   UNL     1       0.452   9.258  20.800  0.00  0.00    +0.000 A 
ATOM      6  C   UNL     1      -0.038  10.469  20.304  0.00  0.00    +0.000 A 
ATOM      7  C   UNL     1       0.314  10.900  19.022  0.00  0.00    +0.000 A 
ATOM      8  C   UNL     1       1.167  10.125  18.231  0.00  0.00    +0.000 A 
ATOM      9  C   UNL     1       1.668   8.908  18.718  0.00  0.00    +0.000 A 
ATOM     10  C   UNL     1       2.519   8.121  17.930  0.00  0.00    +0.000 A 
ENDROOT
BRANCH   1  12
ATOM     11  C   UNL     1       3.622   4.517  17.482  0.00  0.00    +0.000 C 
ATOM     12  C   UNL     1       3.861   6.018  17.507  0.00  0.00    +0.000 C 
ATOM     13  C   UNL     1       4.846   6.595  16.768  0.00  0.00    +0.000 C 
BRANCH  13  14
ATOM     14  C   UNL     1       5.841   5.870  15.892  0.00  0.00    +0.000 C 
BRANCH  14  15
ATOM     15  N   UNL     1       7.212   5.876  16.436  0.00  0.00    +0.000 NA
ATOM     16  C   UNL     1       7.439   7.011  17.345  0.00  0.00    +0.000 C 
ATOM     17  C   UNL     1       7.461   4.610  17.145  0.00  0.00    +0.000 C 
ENDBRANCH  14  15
ENDBRANCH  13  14
ENDBRANCH   1  12
TORSDOF 3
ENDMDL
MODEL 4
REMARK VINA RESULT:      -6.7      1.128      1.234
REMARK  Name = 
REMARK  6 active torsions:
REMARK  status: ('A' for Active; 'I' for Inactive)
REMARK    1  A    between atoms: C_1  and  C_2
REMARK    2  A    between atoms: C_2  and  C_8
REMARK    3  A    between atoms: C_3  and  C_4
REMARK    4  A    between atoms: C_4  and  N_5
REMARK    5  A    between atoms: N_5  and  C_6
REMARK    6  A    between atoms: N_5  and  C_7
REMARK                            x       y       z     vdW  Elec       q    Type
REMARK                         _______ _______ _______ _____ _____    ______ ____
ROOT
ATOM      1  C   UNL     1       4.612   4.439  17.498  0.00  0.00    +0.000 A 
ATOM      2  C   UNL     1       5.386   3.940  18.569  0.00  0.00    +0.000 A 
ATOM      3  C   UNL     1       4.779   3.416  19.713  0.00  0.00    +0.000 A 
ATOM      4  C   UNL     1       3.384   3.354  19.806  0.00  0.00    +0.000 A 
ATOM      5  C   UNL     1       2.768   2.804  20.942  0.00  0.00    +0.000 A 
ATOM      6  C   UNL     1       1.374   2.725  21.012  0.00  0.00    +0.000 A 
ATOM      7  C   UNL     1       0.589   3.194  19.955  0.00  0.00    +0.000 A 
ATOM      8  C   UNL     1       1.192   3.751  18.825  0.00  0.00    +0.000 A 
ATOM      9  C   UNL     1       2.591   3.838  18.743  0.00  0.00    +0.000 A 
ATOM     10  C   UNL     1       3.206   4.391  17.611  0.00  0.00    +0.000 A 
ENDROOT
BRANCH   1  12
ATOM     11  C   UNL     1       5.107   6.470  15.947  0.00  0.00    +0.000 C 
ATOM     12  C   UNL     1       5.253   4.988  16.250  0.00  0.00    +0.000 C 
ATOM     13  C   UNL     1       5.930   4.153  15.417  0.00  0.00    +0.000 C 
BRANCH  13  14
ATOM     14  C   UNL     1       6.566   4.535  14.099  0.00  0.00    +0.000 C 
BRANCH  14  15
ATOM     15  N   UNL     1       6.311   3.559  13.023  0.00  0.00    +0.000 NA
ATOM     16  C   UNL     1       4.895   3.539  12.621  0.00  0.00    +0.000 C 
ATOM     17  C   UNL     1       7.156   3.882  11.861  0.00  0.00    +0.000 C 
ENDBRANCH  14  15
ENDBRANCH  13  14
ENDBRANCH   1  12
TORSDOF 3
ENDMDL
MODEL 5
REMARK VINA RESULT:      -6.7      1.107      1.296
REMARK  Name = 
REMARK  6 active torsions:
REMARK  status: ('A' for Active; 'I' for Inactive)
REMARK    1  A    between atoms: C_1  and  C_2
REMARK    2  A    between atoms: C_2  and  C_8
REMARK    3  A    between atoms: C_3  and  C_4
REMARK    4  A    between atoms: C_4  and  N_5
REMARK    5  A    between atoms: N_5  and  C_6
REMARK    6  A    between atoms: N_5  and  C_7
REMARK                            x       y       z     vdW  Elec       q    Type
REMARK                         _______ _______ _______ _____ _____    ______ ____
ROOT
ATOM      1  C   UNL     1       4.517   4.643  17.557  0.00  0.00    +0.000 A 
ATOM      2  C   UNL     1       3.430   5.543  17.473  0.00  0.00    +0.000 A 
ATOM      3  C   UNL     1       2.353   5.456  18.358  0.00  0.00    +0.000 A 
ATOM      4  C   UNL     1       2.345   4.485  19.366  0.00  0.00    +0.000 A 
ATOM      5  C   UNL     1       1.277   4.410  20.276  0.00  0.00    +0.000 A 
ATOM      6  C   UNL     1       1.293   3.451  21.293  0.00  0.00    +0.000 A 
ATOM      7  C   UNL     1       2.367   2.565  21.409  0.00  0.00    +0.000 A 
ATOM      8  C   UNL     1       3.429   2.626  20.503  0.00  0.00    +0.000 A 
ATOM      9  C   UNL     1       3.424   3.582  19.476  0.00  0.00    +0.000 A 
ATOM     10  C   UNL     1       4.488   3.655  18.565  0.00  0.00    +0.000 A 
ENDROOT
BRANCH   1  12
ATOM     11  C   UNL     1       7.039   5.167  17.187  0.00  0.00    +0.000 C 
ATOM     12  C   UNL     1       5.694   4.739  16.623  0.00  0.00    +0.000 C 
ATOM     13  C   UNL     1       5.532   4.460  15.302  0.00  0.00    +0.000 C 
BRANCH  13  14
ATOM     14  C   UNL     1       6.593   4.576  14.232  0.00  0.00    +0.000 C 
BRANCH  14  15
ATOM     15  N   UNL     1       6.381   3.657  13.096  0.00  0.00    +0.000 NA
ATOM     16  C   UNL     1       4.962   3.574  12.713  0.00  0.00    +0.000 C 
ATOM     17  C   UNL     1       7.184   4.107  11.948  0.00  0.00    +0.000 C 
ENDBRANCH  14  15
ENDBRANCH  13  14
ENDBRANCH   1  12
TORSDOF 3
ENDMDL
MODEL 6
REMARK VINA RESULT:      -6.7      3.950      5.663
REMARK  Name = 
REMARK  6 active torsions:
REMARK  status: ('A' for Active; 'I' for Inactive)
REMARK    1  A    between atoms: C_1  and  C_2
REMARK    2  A    between atoms: C_2  and  C_8
REMARK    3  A    between atoms: C_3  and  C_4
REMARK    4  A    between atoms: C_4  and  N_5
REMARK    5  A    between atoms: N_5  and  C_6
REMARK    6  A    between atoms: N_5  and  C_7
REMARK                            x       y       z     vdW  Elec       q    Type
REMARK                         _______ _______ _______ _____ _____    ______ ____
ROOT
ATOM      1  C   UNL     1       2.491   7.276  18.509  0.00  0.00    +0.000 A 
ATOM      2  C   UNL     1       2.153   8.372  17.682  0.00  0.00    +0.000 A 
ATOM      3  C   UNL     1       1.444   9.464  18.188  0.00  0.00    +0.000 A 
ATOM      4  C   UNL     1       1.078   9.502  19.539  0.00  0.00    +0.000 A 
ATOM      5  C   UNL     1       0.389  10.610  20.060  0.00  0.00    +0.000 A 
ATOM      6  C   UNL     1       0.051  10.647  21.416  0.00  0.00    +0.000 A 
ATOM      7  C   UNL     1       0.394   9.585  22.257  0.00  0.00    +0.000 A 
ATOM      8  C   UNL     1       1.072   8.475  21.745  0.00  0.00    +0.000 A 
ATOM      9  C   UNL     1       1.415   8.424  20.385  0.00  0.00    +0.000 A 
ATOM     10  C   UNL     1       2.099   7.317  19.864  0.00  0.00    +0.000 A 
ENDROOT
BRANCH   1  12
ATOM     11  C   UNL     1       4.725   6.313  17.583  0.00  0.00    +0.000 C 
ATOM     12  C   UNL     1       3.273   6.102  17.981  0.00  0.00    +0.000 C 
ATOM     13  C   UNL     1       2.668   4.891  17.855  0.00  0.00    +0.000 C 
BRANCH  13  14
ATOM     14  C   UNL     1       3.293   3.641  17.279  0.00  0.00    +0.000 C 
BRANCH  14  15
ATOM     15  N   UNL     1       3.156   2.462  18.157  0.00  0.00    +0.000 NA
ATOM     16  C   UNL     1       4.018   2.557  19.346  0.00  0.00    +0.000 C 
ATOM     17  C   UNL     1       1.750   2.321  18.568  0.00  0.00    +0.000 C 
ENDBRANCH  14  15
ENDBRANCH  13  14
ENDBRANCH   1  12
TORSDOF 3
ENDMDL
MODEL 7
REMARK VINA RESULT:      -6.7      3.833      5.472
REMARK  Name = 
REMARK  6 active torsions:
REMARK  status: ('A' for Active; 'I' for Inactive)
REMARK    1  A    between atoms: C_1  and  C_2
REMARK    2  A    between atoms: C_2  and  C_8
REMARK    3  A    between atoms: C_3  and  C_4
REMARK    4  A    between atoms: C_4  and  N_5
REMARK    5  A    between atoms: N_5  and  C_6
REMARK    6  A    between atoms: N_5  and  C_7
REMARK                            x       y       z     vdW  Elec       q    Type
REMARK                         _______ _______ _______ _____ _____    ______ ____
ROOT
ATOM      1  C   UNL     1       2.597   6.943  18.779  0.00  0.00    +0.000 A 
ATOM      2  C   UNL     1       2.449   7.946  17.794  0.00  0.00    +0.000 A 
ATOM      3  C   UNL     1       1.788   9.143  18.079  0.00  0.00    +0.000 A 
ATOM      4  C   UNL     1       1.279   9.380  19.361  0.00  0.00    +0.000 A 
ATOM      5  C   UNL     1       0.637  10.593  19.661  0.00  0.00    +0.000 A 
ATOM      6  C   UNL     1       0.155  10.828  20.952  0.00  0.00    +0.000 A 
ATOM      7  C   UNL     1       0.309   9.859  21.948  0.00  0.00    +0.000 A 
ATOM      8  C   UNL     1       0.938   8.646  21.656  0.00  0.00    +0.000 A 
ATOM      9  C   UNL     1       1.424   8.397  20.363  0.00  0.00    +0.000 A 
ATOM     10  C   UNL     1       2.062   7.185  20.062  0.00  0.00    +0.000 A 
ENDROOT
BRANCH   1  12
ATOM     11  C   UNL     1       2.603   4.567  17.717  0.00  0.00    +0.000 C 
ATOM     12  C   UNL     1       3.326   5.657  18.491  0.00  0.00    +0.000 C 
ATOM     13  C   UNL     1       4.599   5.488  18.939  0.00  0.00    +0.000 C 
BRANCH  13  14
ATOM     14  C   UNL     1       5.434   4.237  18.793  0.00  0.00    +0.000 C 
BRANCH  14  15
ATOM     15  N   UNL     1       6.844   4.512  18.456  0.00  0.00    +0.000 NA
ATOM     16  C   UNL     1       7.043   4.668  17.006  0.00  0.00    +0.000 C 
ATOM     17  C   UNL     1       7.285   5.729  19.156  0.00  0.00    +0.000 C 
ENDBRANCH  14  15
ENDBRANCH  13  14
ENDBRANCH   1  12
TORSDOF 3
ENDMDL
MODEL 8
REMARK VINA RESULT:      -6.7      1.435      1.846
REMARK  Name = 
REMARK  6 active torsions:
REMARK  status: ('A' for Active; 'I' for Inactive)
REMARK    1  A    between atoms: C_1  and  C_2
REMARK    2  A    between atoms: C_2  and  C_8
REMARK    3  A    between atoms: C_3  and  C_4
REMARK    4  A    between atoms: C_4  and  N_5
REMARK    5  A    between atoms: N_5  and  C_6
REMARK    6  A    between atoms: N_5  and  C_7
REMARK                            x       y       z     vdW  Elec       q    Type
REMARK                         _______ _______ _______ _____ _____    ______ ____
ROOT
ATOM      1  C   UNL     1       4.459   4.877  17.961  0.00  0.00    +0.000 A 
ATOM      2  C   UNL     1       3.215   5.492  17.693  0.00  0.00    +0.000 A 
ATOM      3  C   UNL     1       2.074   5.158  18.426  0.00  0.00    +0.000 A 
ATOM      4  C   UNL     1       2.150   4.219  19.461  0.00  0.00    +0.000 A 
ATOM      5  C   UNL     1       1.012   3.898  20.219  0.00  0.00    +0.000 A 
ATOM      6  C   UNL     1       1.107   2.976  21.266  0.00  0.00    +0.000 A 
ATOM      7  C   UNL     1       2.331   2.371  21.562  0.00  0.00    +0.000 A 
ATOM      8  C   UNL     1       3.467   2.677  20.808  0.00  0.00    +0.000 A 
ATOM      9  C   UNL     1       3.384   3.599  19.753  0.00  0.00    +0.000 A 
ATOM     10  C   UNL     1       4.519   3.916  18.993  0.00  0.00    +0.000 A 
ENDROOT
BRANCH   1  12
ATOM     11  C   UNL     1       6.499   6.460  17.634  0.00  0.00    +0.000 C 
ATOM     12  C   UNL     1       5.701   5.243  17.192  0.00  0.00    +0.000 C 
ATOM     13  C   UNL     1       6.075   4.498  16.119  0.00  0.00    +0.000 C 
BRANCH  13  14
ATOM     14  C   UNL     1       7.250   4.776  15.209  0.00  0.00    +0.000 C 
BRANCH  14  15
ATOM     15  N   UNL     1       6.860   5.004  13.804  0.00  0.00    +0.000 NA
ATOM     16  C   UNL     1       8.016   5.345  12.960  0.00  0.00    +0.000 C 
ATOM     17  C   UNL     1       6.195   3.800  13.280  0.00  0.00    +0.000 C 
ENDBRANCH  14  15
ENDBRANCH  13  14
ENDBRANCH   1  12
TORSDOF 3
ENDMDL
MODEL 9
REMARK VINA RESULT:      -6.7      3.731      5.122
REMARK  Name = 
REMARK  6 active torsions:
REMARK  status: ('A' for Active; 'I' for Inactive)
REMARK    1  A    between atoms: C_1  and  C_2
REMARK    2  A    between atoms: C_2  and  C_8
REMARK    3  A    between atoms: C_3  and  C_4
REMARK    4  A    between atoms: C_4  and  N_5
REMARK    5  A    between atoms: N_5  and  C_6
REMARK    6  A    between atoms: N_5  and  C_7
REMARK                            x       y       z     vdW  Elec       q    Type
REMARK                         _______ _______ _______ _____ _____    ______ ____
ROOT
ATOM      1  C   UNL     1       2.744   7.387  18.320  0.00  0.00    +0.000 A 
ATOM      2  C   UNL     1       2.360   8.527  17.578  0.00  0.00    +0.000 A 
ATOM      3  C   UNL     1       1.549   9.514  18.143  0.00  0.00    +0.000 A 
ATOM      4  C   UNL     1       1.121   9.401  19.470  0.00  0.00    +0.000 A 
ATOM      5  C   UNL     1       0.327  10.404  20.052  0.00  0.00    +0.000 A 
ATOM      6  C   UNL     1      -0.074  10.291  21.386  0.00  0.00    +0.000 A 
ATOM      7  C   UNL     1       0.311   9.183  22.146  0.00  0.00    +0.000 A 
ATOM      8  C   UNL     1       1.093   8.176  21.573  0.00  0.00    +0.000 A 
ATOM      9  C   UNL     1       1.500   8.276  20.234  0.00  0.00    +0.000 A 
ATOM     10  C   UNL     1       2.289   7.274  19.652  0.00  0.00    +0.000 A 
ENDROOT
BRANCH   1  12
ATOM     11  C   UNL     1       3.354   4.869  18.065  0.00  0.00    +0.000 C 
ATOM     12  C   UNL     1       3.635   6.325  17.731  0.00  0.00    +0.000 C 
ATOM     13  C   UNL     1       4.675   6.685  16.933  0.00  0.00    +0.000 C 
BRANCH  13  14
ATOM     14  C   UNL     1       5.695   5.749  16.326  0.00  0.00    +0.000 C 
BRANCH  14  15
ATOM     15  N   UNL     1       7.058   5.947  16.855  0.00  0.00    +0.000 NA
ATOM     16  C   UNL     1       7.212   7.259  17.503  0.00  0.00    +0.000 C 
ATOM     17  C   UNL     1       7.370   4.875  17.814  0.00  0.00    +0.000 C 
ENDBRANCH  14  15
ENDBRANCH  13  14
ENDBRANCH   1  12
TORSDOF 3
ENDMDL
