MODEL 1
REMARK VINA RESULT:      -8.2      0.000      0.000
REMARK  Name = 
REMARK  7 active torsions:
REMARK  status: ('A' for Active; 'I' for Inactive)
REMARK    1  A    between atoms: C_1  and  O_2
REMARK    2  A    between atoms: O_2  and  C_3
REMARK    3  A    between atoms: C_6  and  C_7
REMARK    4  A    between atoms: C_7  and  C_8
REMARK    5  A    between atoms: C_14  and  O_15
REMARK    6  A    between atoms: O_15  and  C_16
REMARK    7  A    between atoms: C_16  and  C_17
REMARK                            x       y       z     vdW  Elec       q    Type
REMARK                         _______ _______ _______ _____ _____    ______ ____
ROOT
ATOM      1  C   UNL     1       1.639   6.771  20.583  0.00  0.00    +0.000 C 
ATOM      2  C   UNL     1       2.280   5.549  21.242  0.00  0.00    +0.000 C 
ATOM      3  C   UNL     1       2.216   4.642  20.056  0.00  0.00    +0.000 A 
ATOM      4  C   UNL     1       1.138   3.784  19.825  0.00  0.00    +0.000 A 
ATOM      5  C   UNL     1       0.800   3.446  18.514  0.00  0.00    +0.000 A 
ATOM      6  C   UNL     1       1.646   3.812  17.464  0.00  0.00    +0.000 A 
ATOM      7  C   UNL     1       2.797   4.578  17.722  0.00  0.00    +0.000 A 
ATOM      8  C   UNL     1       2.861   5.235  18.958  0.00  0.00    +0.000 A 
ATOM      9  C   UNL     1       2.345   6.668  19.188  0.00  0.00    +0.000 C 
ATOM     10  O   UNL     1       2.358   7.541  18.337  0.00  0.00    +0.000 OA
ENDROOT
BRANCH   1  11
ATOM     11  C   UNL     1       1.797   7.980  21.512  0.00  0.00    +0.000 C 
BRANCH  11  15
ATOM     12  C   UNL     1      -1.172  11.157  21.733  0.00  0.00    +0.000 A 
ATOM     13  C   UNL     1      -0.780  10.467  22.881  0.00  0.00    +0.000 A 
ATOM     14  C   UNL     1       0.160   9.427  22.791  0.00  0.00    +0.000 A 
ATOM     15  C   UNL     1       0.691   9.031  21.557  0.00  0.00    +0.000 A 
ATOM     16  C   UNL     1       0.254   9.702  20.405  0.00  0.00    +0.000 A 
ATOM     17  C   UNL     1      -0.669  10.755  20.495  0.00  0.00    +0.000 A 
BRANCH  12  19
ATOM     18  C   UNL     1      -2.725  12.167  23.198  0.00  0.00    +0.000 C 
ATOM     19  O   UNL     1      -2.057  12.181  21.938  0.00  0.00    +0.000 OA
ENDBRANCH  12  19
ENDBRANCH  11  15
ENDBRANCH   1  11
BRANCH   7  20
ATOM     20  O   UNL     1       3.887   3.807  17.242  0.00  0.00    +0.000 OA
BRANCH  20  21
ATOM     21  C   UNL     1       5.136   3.898  17.918  0.00  0.00    +0.000 C 
BRANCH  21  22
ATOM     22  C   UNL     1       6.227   4.356  16.904  0.00  0.00    +0.000 C 
ATOM     23  C   UNL     1       5.795   5.598  16.091  0.00  0.00    +0.000 C 
ATOM     24  C   UNL     1       5.784   6.873  16.927  0.00  0.00    +0.000 C 
ATOM     25  C   UNL     1       7.147   7.134  17.569  0.00  0.00    +0.000 C 
ATOM     26  C   UNL     1       7.664   5.921  18.342  0.00  0.00    +0.000 C 
ATOM     27  C   UNL     1       7.614   4.634  17.522  0.00  0.00    +0.000 C 
ENDBRANCH  21  22
ENDBRANCH  20  21
ENDBRANCH   7  20
TORSDOF 6
ENDMDL
MODEL 2
REMARK VINA RESULT:      -8.2      3.957      7.349
REMARK  Name = 
REMARK  7 active torsions:
REMARK  status: ('A' for Active; 'I' for Inactive)
REMARK    1  A    between atoms: C_1  and  O_2
REMARK    2  A    between atoms: O_2  and  C_3
REMARK    3  A    between atoms: C_6  and  C_7
REMARK    4  A    between atoms: C_7  and  C_8
REMARK    5  A    between atoms: C_14  and  O_15
REMARK    6  A    between atoms: O_15  and  C_16
REMARK    7  A    between atoms: C_16  and  C_17
REMARK                            x       y       z     vdW  Elec       q    Type
REMARK                         _______ _______ _______ _____ _____    ______ ____
ROOT
ATOM      1  C   UNL     1       7.592   6.896  17.703  0.00  0.00    +0.000 C 
ATOM      2  C   UNL     1       6.143   7.379  17.799  0.00  0.00    +0.000 C 
ATOM      3  C   UNL     1       5.537   6.321  16.934  0.00  0.00    +0.000 A 
ATOM      4  C   UNL     1       5.360   6.487  15.558  0.00  0.00    +0.000 A 
ATOM      5  C   UNL     1       5.393   5.371  14.724  0.00  0.00    +0.000 A 
ATOM      6  C   UNL     1       5.416   4.089  15.281  0.00  0.00    +0.000 A 
ATOM      7  C   UNL     1       5.474   3.930  16.676  0.00  0.00    +0.000 A 
ATOM      8  C   UNL     1       5.860   5.047  17.430  0.00  0.00    +0.000 A 
ATOM      9  C   UNL     1       7.321   5.356  17.806  0.00  0.00    +0.000 C 
ATOM     10  O   UNL     1       8.168   4.502  18.005  0.00  0.00    +0.000 OA
ENDROOT
BRANCH   1  11
ATOM     11  C   UNL     1       8.442   7.665  18.720  0.00  0.00    +0.000 C 
BRANCH  11  15
ATOM     12  C   UNL     1       9.065  11.945  18.223  0.00  0.00    +0.000 A 
ATOM     13  C   UNL     1       9.636  11.263  19.298  0.00  0.00    +0.000 A 
ATOM     14  C   UNL     1       9.406   9.886  19.460  0.00  0.00    +0.000 A 
ATOM     15  C   UNL     1       8.573   9.180  18.584  0.00  0.00    +0.000 A 
ATOM     16  C   UNL     1       7.970   9.887  17.533  0.00  0.00    +0.000 A 
ATOM     17  C   UNL     1       8.215  11.257  17.357  0.00  0.00    +0.000 A 
BRANCH  12  19
ATOM     18  C   UNL     1      10.650  13.549  17.520  0.00  0.00    +0.000 C 
ATOM     19  O   UNL     1       9.391  13.272  18.131  0.00  0.00    +0.000 OA
ENDBRANCH  12  19
ENDBRANCH  11  15
ENDBRANCH   1  11
BRANCH   7  20
ATOM     20  O   UNL     1       4.329   3.168  17.024  0.00  0.00    +0.000 OA
BRANCH  20  21
ATOM     21  C   UNL     1       3.759   3.347  18.315  0.00  0.00    +0.000 C 
BRANCH  21  22
ATOM     22  C   UNL     1       2.336   3.962  18.160  0.00  0.00    +0.000 C 
ATOM     23  C   UNL     1       1.354   3.465  19.245  0.00  0.00    +0.000 C 
ATOM     24  C   UNL     1       1.651   4.054  20.620  0.00  0.00    +0.000 C 
ATOM     25  C   UNL     1       1.644   5.582  20.589  0.00  0.00    +0.000 C 
ATOM     26  C   UNL     1       2.550   6.143  19.493  0.00  0.00    +0.000 C 
ATOM     27  C   UNL     1       2.292   5.505  18.131  0.00  0.00    +0.000 C 
ENDBRANCH  21  22
ENDBRANCH  20  21
ENDBRANCH   7  20
TORSDOF 6
ENDMDL
MODEL 3
REMARK VINA RESULT:      -7.9      4.491      7.276
REMARK  Name = 
REMARK  7 active torsions:
REMARK  status: ('A' for Active; 'I' for Inactive)
REMARK    1  A    between atoms: C_1  and  O_2
REMARK    2  A    between atoms: O_2  and  C_3
REMARK    3  A    between atoms: C_6  and  C_7
REMARK    4  A    between atoms: C_7  and  C_8
REMARK    5  A    between atoms: C_14  and  O_15
REMARK    6  A    between atoms: O_15  and  C_16
REMARK    7  A    between atoms: C_16  and  C_17
REMARK                            x       y       z     vdW  Elec       q    Type
REMARK                         _______ _______ _______ _____ _____    ______ ____
ROOT
ATOM      1  C   UNL     1       7.611   6.920  17.702  0.00  0.00    +0.000 C 
ATOM      2  C   UNL     1       6.158   7.390  17.809  0.00  0.00    +0.000 C 
ATOM      3  C   UNL     1       5.557   6.337  16.933  0.00  0.00    +0.000 A 
ATOM      4  C   UNL     1       5.374   6.519  15.560  0.00  0.00    +0.000 A 
ATOM      5  C   UNL     1       5.414   5.413  14.711  0.00  0.00    +0.000 A 
ATOM      6  C   UNL     1       5.449   4.125  15.252  0.00  0.00    +0.000 A 
ATOM      7  C   UNL     1       5.514   3.949  16.645  0.00  0.00    +0.000 A 
ATOM      8  C   UNL     1       5.893   5.060  17.411  0.00  0.00    +0.000 A 
ATOM      9  C   UNL     1       7.352   5.377  17.787  0.00  0.00    +0.000 C 
ATOM     10  O   UNL     1       8.208   4.528  17.973  0.00  0.00    +0.000 OA
ENDROOT
BRANCH   1  11
ATOM     11  C   UNL     1       8.457   7.683  18.726  0.00  0.00    +0.000 C 
BRANCH  11  15
ATOM     12  C   UNL     1       9.061  11.971  18.270  0.00  0.00    +0.000 A 
ATOM     13  C   UNL     1       9.626  11.283  19.344  0.00  0.00    +0.000 A 
ATOM     14  C   UNL     1       9.402   9.904  19.493  0.00  0.00    +0.000 A 
ATOM     15  C   UNL     1       8.582   9.200  18.603  0.00  0.00    +0.000 A 
ATOM     16  C   UNL     1       7.984   9.913  17.553  0.00  0.00    +0.000 A 
ATOM     17  C   UNL     1       8.223  11.286  17.390  0.00  0.00    +0.000 A 
BRANCH  12  19
ATOM     18  C   UNL     1       8.270  14.190  18.098  0.00  0.00    +0.000 C 
ATOM     19  O   UNL     1       9.381  13.300  18.192  0.00  0.00    +0.000 OA
ENDBRANCH  12  19
ENDBRANCH  11  15
ENDBRANCH   1  11
BRANCH   7  20
ATOM     20  O   UNL     1       4.376   3.174  16.988  0.00  0.00    +0.000 OA
BRANCH  20  21
ATOM     21  C   UNL     1       3.934   3.174  18.341  0.00  0.00    +0.000 C 
BRANCH  21  22
ATOM     22  C   UNL     1       2.818   4.247  18.508  0.00  0.00    +0.000 C 
ATOM     23  C   UNL     1       1.413   3.699  18.168  0.00  0.00    +0.000 C 
ATOM     24  C   UNL     1       0.888   2.732  19.223  0.00  0.00    +0.000 C 
ATOM     25  C   UNL     1       0.861   3.376  20.609  0.00  0.00    +0.000 C 
ATOM     26  C   UNL     1       2.206   3.995  20.987  0.00  0.00    +0.000 C 
ATOM     27  C   UNL     1       2.758   4.914  19.900  0.00  0.00    +0.000 C 
ENDBRANCH  21  22
ENDBRANCH  20  21
ENDBRANCH   7  20
TORSDOF 6
ENDMDL
MODEL 4
REMARK VINA RESULT:      -7.9      4.417      9.623
REMARK  Name = 
REMARK  7 active torsions:
REMARK  status: ('A' for Active; 'I' for Inactive)
REMARK    1  A    between atoms: C_1  and  O_2
REMARK    2  A    between atoms: O_2  and  C_3
REMARK    3  A    between atoms: C_6  and  C_7
REMARK    4  A    between atoms: C_7  and  C_8
REMARK    5  A    between atoms: C_14  and  O_15
REMARK    6  A    between atoms: O_15  and  C_16
REMARK    7  A    between atoms: C_16  and  C_17
REMARK                            x       y       z     vdW  Elec       q    Type
REMARK                         _______ _______ _______ _____ _____    ______ ____
ROOT
ATOM      1  C   UNL     1       6.606   5.168  14.931  0.00  0.00    +0.000 C 
ATOM      2  C   UNL     1       6.202   3.760  15.373  0.00  0.00    +0.000 C 
ATOM      3  C   UNL     1       5.585   4.145  16.680  0.00  0.00    +0.000 A 
ATOM      4  C   UNL     1       6.310   4.167  17.874  0.00  0.00    +0.000 A 
ATOM      5  C   UNL     1       5.946   5.061  18.879  0.00  0.00    +0.000 A 
ATOM      6  C   UNL     1       4.759   5.790  18.763  0.00  0.00    +0.000 A 
ATOM      7  C   UNL     1       3.972   5.672  17.604  0.00  0.00    +0.000 A 
ATOM      8  C   UNL     1       4.580   5.105  16.476  0.00  0.00    +0.000 A 
ATOM      9  C   UNL     1       5.320   5.927  15.404  0.00  0.00    +0.000 C 
ATOM     10  O   UNL     1       5.019   7.067  15.092  0.00  0.00    +0.000 OA
ENDROOT
BRANCH   1  11
ATOM     11  C   UNL     1       7.057   5.120  13.467  0.00  0.00    +0.000 C 
BRANCH  11  15
ATOM     12  C   UNL     1       5.963   1.556  11.217  0.00  0.00    +0.000 A 
ATOM     13  C   UNL     1       7.300   1.930  11.352  0.00  0.00    +0.000 A 
ATOM     14  C   UNL     1       7.637   3.096  12.060  0.00  0.00    +0.000 A 
ATOM     15  C   UNL     1       6.651   3.927  12.604  0.00  0.00    +0.000 A 
ATOM     16  C   UNL     1       5.308   3.564  12.421  0.00  0.00    +0.000 A 
ATOM     17  C   UNL     1       4.970   2.388  11.734  0.00  0.00    +0.000 A 
BRANCH  12  19
ATOM     18  C   UNL     1       6.029  -0.804  11.296  0.00  0.00    +0.000 C 
ATOM     19  O   UNL     1       5.748   0.379  10.550  0.00  0.00    +0.000 OA
ENDBRANCH  12  19
ENDBRANCH  11  15
ENDBRANCH   1  11
BRANCH   7  20
ATOM     20  O   UNL     1       2.697   5.236  18.048  0.00  0.00    +0.000 OA
BRANCH  20  21
ATOM     21  C   UNL     1       2.053   4.182  17.342  0.00  0.00    +0.000 C 
BRANCH  21  22
ATOM     22  C   UNL     1       1.380   3.223  18.369  0.00  0.00    +0.000 C 
ATOM     23  C   UNL     1       2.162   1.901  18.545  0.00  0.00    +0.000 C 
ATOM     24  C   UNL     1       3.468   2.090  19.309  0.00  0.00    +0.000 C 
ATOM     25  C   UNL     1       3.230   2.726  20.678  0.00  0.00    +0.000 C 
ATOM     26  C   UNL     1       2.406   4.010  20.584  0.00  0.00    +0.000 C 
ATOM     27  C   UNL     1       1.130   3.833  19.765  0.00  0.00    +0.000 C 
ENDBRANCH  21  22
ENDBRANCH  20  21
ENDBRANCH   7  20
TORSDOF 6
ENDMDL
MODEL 5
REMARK VINA RESULT:      -7.8      2.274      7.159
REMARK  Name = 
REMARK  7 active torsions:
REMARK  status: ('A' for Active; 'I' for Inactive)
REMARK    1  A    between atoms: C_1  and  O_2
REMARK    2  A    between atoms: O_2  and  C_3
REMARK    3  A    between atoms: C_6  and  C_7
REMARK    4  A    between atoms: C_7  and  C_8
REMARK    5  A    between atoms: C_14  and  O_15
REMARK    6  A    between atoms: O_15  and  C_16
REMARK    7  A    between atoms: C_16  and  C_17
REMARK                            x       y       z     vdW  Elec       q    Type
REMARK                         _______ _______ _______ _____ _____    ______ ____
ROOT
ATOM      1  C   UNL     1       4.814   4.015  17.449  0.00  0.00    +0.000 C 
ATOM      2  C   UNL     1       3.899   5.185  17.080  0.00  0.00    +0.000 C 
ATOM      3  C   UNL     1       2.748   4.805  17.955  0.00  0.00    +0.000 A 
ATOM      4  C   UNL     1       1.692   4.011  17.502  0.00  0.00    +0.000 A 
ATOM      5  C   UNL     1       1.012   3.195  18.407  0.00  0.00    +0.000 A 
ATOM      6  C   UNL     1       1.267   3.315  19.776  0.00  0.00    +0.000 A 
ATOM      7  C   UNL     1       2.253   4.206  20.232  0.00  0.00    +0.000 A 
ATOM      8  C   UNL     1       3.176   4.675  19.287  0.00  0.00    +0.000 A 
ATOM      9  C   UNL     1       4.516   3.977  18.987  0.00  0.00    +0.000 C 
ATOM     10  O   UNL     1       5.161   3.358  19.816  0.00  0.00    +0.000 OA
ENDROOT
BRANCH   1  11
ATOM     11  C   UNL     1       6.211   4.274  16.876  0.00  0.00    +0.000 C 
BRANCH  11  15
ATOM     12  C   UNL     1       8.293   7.752  18.467  0.00  0.00    +0.000 A 
ATOM     13  C   UNL     1       7.656   7.809  17.227  0.00  0.00    +0.000 A 
ATOM     14  C   UNL     1       7.009   6.672  16.714  0.00  0.00    +0.000 A 
ATOM     15  C   UNL     1       7.023   5.454  17.405  0.00  0.00    +0.000 A 
ATOM     16  C   UNL     1       7.706   5.398  18.629  0.00  0.00    +0.000 A 
ATOM     17  C   UNL     1       8.334   6.538  19.153  0.00  0.00    +0.000 A 
BRANCH  12  19
ATOM     18  C   UNL     1       8.483  10.084  18.145  0.00  0.00    +0.000 C 
ATOM     19  O   UNL     1       8.850   8.927  18.894  0.00  0.00    +0.000 OA
ENDBRANCH  12  19
ENDBRANCH  11  15
ENDBRANCH   1  11
BRANCH   7  20
ATOM     20  O   UNL     1       1.588   5.098  21.113  0.00  0.00    +0.000 OA
BRANCH  20  21
ATOM     21  C   UNL     1       0.907   6.219  20.563  0.00  0.00    +0.000 C 
BRANCH  21  22
ATOM     22  C   UNL     1       1.796   7.486  20.736  0.00  0.00    +0.000 C 
ATOM     23  C   UNL     1       2.212   8.107  19.382  0.00  0.00    +0.000 C 
ATOM     24  C   UNL     1       1.053   8.799  18.673  0.00  0.00    +0.000 C 
ATOM     25  C   UNL     1       0.421   9.877  19.553  0.00  0.00    +0.000 C 
ATOM     26  C   UNL     1       0.040   9.345  20.934  0.00  0.00    +0.000 C 
ATOM     27  C   UNL     1       1.183   8.598  21.615  0.00  0.00    +0.000 C 
ENDBRANCH  21  22
ENDBRANCH  20  21
ENDBRANCH   7  20
TORSDOF 6
ENDMDL
MODEL 6
REMARK VINA RESULT:      -7.8      4.283      9.831
REMARK  Name = 
REMARK  7 active torsions:
REMARK  status: ('A' for Active; 'I' for Inactive)
REMARK    1  A    between atoms: C_1  and  O_2
REMARK    2  A    between atoms: O_2  and  C_3
REMARK    3  A    between atoms: C_6  and  C_7
REMARK    4  A    between atoms: C_7  and  C_8
REMARK    5  A    between atoms: C_14  and  O_15
REMARK    6  A    between atoms: O_15  and  C_16
REMARK    7  A    between atoms: C_16  and  C_17
REMARK                            x       y       z     vdW  Elec       q    Type
REMARK                         _______ _______ _______ _____ _____    ______ ____
ROOT
ATOM      1  C   UNL     1       6.833   5.236  14.604  0.00  0.00    +0.000 C 
ATOM      2  C   UNL     1       6.646   3.817  15.146  0.00  0.00    +0.000 C 
ATOM      3  C   UNL     1       6.151   4.199  16.504  0.00  0.00    +0.000 A 
ATOM      4  C   UNL     1       7.008   4.359  17.596  0.00  0.00    +0.000 A 
ATOM      5  C   UNL     1       6.668   5.259  18.605  0.00  0.00    +0.000 A 
ATOM      6  C   UNL     1       5.402   5.850  18.611  0.00  0.00    +0.000 A 
ATOM      7  C   UNL     1       4.500   5.590  17.566  0.00  0.00    +0.000 A 
ATOM      8  C   UNL     1       5.027   5.035  16.391  0.00  0.00    +0.000 A 
ATOM      9  C   UNL     1       5.535   5.876  15.206  0.00  0.00    +0.000 C 
ATOM     10  O   UNL     1       5.073   6.960  14.892  0.00  0.00    +0.000 OA
ENDROOT
BRANCH   1  11
ATOM     11  C   UNL     1       7.107   5.163  13.098  0.00  0.00    +0.000 C 
BRANCH  11  15
ATOM     12  C   UNL     1       6.053   1.424  11.131  0.00  0.00    +0.000 A 
ATOM     13  C   UNL     1       7.381   1.850  11.185  0.00  0.00    +0.000 A 
ATOM     14  C   UNL     1       7.703   3.071  11.801  0.00  0.00    +0.000 A 
ATOM     15  C   UNL     1       6.710   3.903  12.332  0.00  0.00    +0.000 A 
ATOM     16  C   UNL     1       5.375   3.484  12.230  0.00  0.00    +0.000 A 
ATOM     17  C   UNL     1       5.052   2.256  11.635  0.00  0.00    +0.000 A 
BRANCH  12  19
ATOM     18  C   UNL     1       6.012  -0.919  11.422  0.00  0.00    +0.000 C 
ATOM     19  O   UNL     1       5.854   0.200  10.551  0.00  0.00    +0.000 OA
ENDBRANCH  12  19
ENDBRANCH  11  15
ENDBRANCH   1  11
BRANCH   7  20
ATOM     20  O   UNL     1       3.344   5.043  18.181  0.00  0.00    +0.000 OA
BRANCH  20  21
ATOM     21  C   UNL     1       3.134   5.279  19.568  0.00  0.00    +0.000 C 
BRANCH  21  22
ATOM     22  C   UNL     1       3.025   3.910  20.304  0.00  0.00    +0.000 C 
ATOM     23  C   UNL     1       1.594   3.625  20.816  0.00  0.00    +0.000 C 
ATOM     24  C   UNL     1       0.622   3.297  19.687  0.00  0.00    +0.000 C 
ATOM     25  C   UNL     1       1.111   2.112  18.854  0.00  0.00    +0.000 C 
ATOM     26  C   UNL     1       2.546   2.301  18.365  0.00  0.00    +0.000 C 
ATOM     27  C   UNL     1       3.505   2.691  19.487  0.00  0.00    +0.000 C 
ENDBRANCH  21  22
ENDBRANCH  20  21
ENDBRANCH   7  20
TORSDOF 6
ENDMDL
MODEL 7
REMARK VINA RESULT:      -7.7      4.913      7.541
REMARK  Name = 
REMARK  7 active torsions:
REMARK  status: ('A' for Active; 'I' for Inactive)
REMARK    1  A    between atoms: C_1  and  O_2
REMARK    2  A    between atoms: O_2  and  C_3
REMARK    3  A    between atoms: C_6  and  C_7
REMARK    4  A    between atoms: C_7  and  C_8
REMARK    5  A    between atoms: C_14  and  O_15
REMARK    6  A    between atoms: O_15  and  C_16
REMARK    7  A    between atoms: C_16  and  C_17
REMARK                            x       y       z     vdW  Elec       q    Type
REMARK                         _______ _______ _______ _____ _____    ______ ____
ROOT
ATOM      1  C   UNL     1       7.591   6.885  17.724  0.00  0.00    +0.000 C 
ATOM      2  C   UNL     1       6.152   7.405  17.729  0.00  0.00    +0.000 C 
ATOM      3  C   UNL     1       5.565   6.341  16.858  0.00  0.00    +0.000 A 
ATOM      4  C   UNL     1       5.467   6.478  15.472  0.00  0.00    +0.000 A 
ATOM      5  C   UNL     1       5.515   5.340  14.667  0.00  0.00    +0.000 A 
ATOM      6  C   UNL     1       5.474   4.072  15.255  0.00  0.00    +0.000 A 
ATOM      7  C   UNL     1       5.455   3.947  16.655  0.00  0.00    +0.000 A 
ATOM      8  C   UNL     1       5.829   5.072  17.401  0.00  0.00    +0.000 A 
ATOM      9  C   UNL     1       7.274   5.355  17.849  0.00  0.00    +0.000 C 
ATOM     10  O   UNL     1       8.088   4.486  18.114  0.00  0.00    +0.000 OA
ENDROOT
BRANCH   1  11
ATOM     11  C   UNL     1       8.405   7.657  18.767  0.00  0.00    +0.000 C 
BRANCH  11  15
ATOM     12  C   UNL     1       9.110  11.919  18.216  0.00  0.00    +0.000 A 
ATOM     13  C   UNL     1       9.679  11.236  19.292  0.00  0.00    +0.000 A 
ATOM     14  C   UNL     1       9.423   9.867  19.472  0.00  0.00    +0.000 A 
ATOM     15  C   UNL     1       8.566   9.168  18.612  0.00  0.00    +0.000 A 
ATOM     16  C   UNL     1       7.964   9.877  17.562  0.00  0.00    +0.000 A 
ATOM     17  C   UNL     1       8.236  11.239  17.368  0.00  0.00    +0.000 A 
BRANCH  12  19
ATOM     18  C   UNL     1      10.666  13.489  17.386  0.00  0.00    +0.000 C 
ATOM     19  O   UNL     1       9.461  13.237  18.107  0.00  0.00    +0.000 OA
ENDBRANCH  12  19
ENDBRANCH  11  15
ENDBRANCH   1  11
BRANCH   7  20
ATOM     20  O   UNL     1       4.272   3.223  16.959  0.00  0.00    +0.000 OA
BRANCH  20  21
ATOM     21  C   UNL     1       3.485   3.640  18.068  0.00  0.00    +0.000 C 
BRANCH  21  22
ATOM     22  C   UNL     1       3.097   2.389  18.912  0.00  0.00    +0.000 C 
ATOM     23  C   UNL     1       3.507   2.526  20.396  0.00  0.00    +0.000 C 
ATOM     24  C   UNL     1       2.642   3.526  21.155  0.00  0.00    +0.000 C 
ATOM     25  C   UNL     1       1.159   3.164  21.068  0.00  0.00    +0.000 C 
ATOM     26  C   UNL     1       0.698   2.953  19.627  0.00  0.00    +0.000 C 
ATOM     27  C   UNL     1       1.604   1.999  18.851  0.00  0.00    +0.000 C 
ENDBRANCH  21  22
ENDBRANCH  20  21
ENDBRANCH   7  20
TORSDOF 6
ENDMDL
MODEL 8
REMARK VINA RESULT:      -7.6      1.243      1.614
REMARK  Name = 
REMARK  7 active torsions:
REMARK  status: ('A' for Active; 'I' for Inactive)
REMARK    1  A    between atoms: C_1  and  O_2
REMARK    2  A    between atoms: O_2  and  C_3
REMARK    3  A    between atoms: C_6  and  C_7
REMARK    4  A    between atoms: C_7  and  C_8
REMARK    5  A    between atoms: C_14  and  O_15
REMARK    6  A    between atoms: O_15  and  C_16
REMARK    7  A    between atoms: C_16  and  C_17
REMARK                            x       y       z     vdW  Elec       q    Type
REMARK                         _______ _______ _______ _____ _____    ______ ____
ROOT
ATOM      1  C   UNL     1       1.553   7.115  20.088  0.00  0.00    +0.000 C 
ATOM      2  C   UNL     1       2.096   6.012  20.999  0.00  0.00    +0.000 C 
ATOM      3  C   UNL     1       2.192   4.941  19.960  0.00  0.00    +0.000 A 
ATOM      4  C   UNL     1       1.154   4.040  19.713  0.00  0.00    +0.000 A 
ATOM      5  C   UNL     1       0.998   3.510  18.432  0.00  0.00    +0.000 A 
ATOM      6  C   UNL     1       1.980   3.736  17.464  0.00  0.00    +0.000 A 
ATOM      7  C   UNL     1       3.086   4.551  17.760  0.00  0.00    +0.000 A 
ATOM      8  C   UNL     1       2.982   5.382  18.884  0.00  0.00    +0.000 A 
ATOM      9  C   UNL     1       2.443   6.823  18.831  0.00  0.00    +0.000 C 
ATOM     10  O   UNL     1       2.573   7.564  17.872  0.00  0.00    +0.000 OA
ENDROOT
BRANCH   1  11
ATOM     11  C   UNL     1       1.586   8.447  20.844  0.00  0.00    +0.000 C 
BRANCH  11  15
ATOM     12  C   UNL     1      -0.462  12.013  19.413  0.00  0.00    +0.000 A 
ATOM     13  C   UNL     1      -1.021  11.228  20.422  0.00  0.00    +0.000 A 
ATOM     14  C   UNL     1      -0.361  10.066  20.856  0.00  0.00    +0.000 A 
ATOM     15  C   UNL     1       0.837   9.646  20.267  0.00  0.00    +0.000 A 
ATOM     16  C   UNL     1       1.365  10.421  19.222  0.00  0.00    +0.000 A 
ATOM     17  C   UNL     1       0.719  11.592  18.801  0.00  0.00    +0.000 A 
BRANCH  12  19
ATOM     18  C   UNL     1      -0.374  14.327  18.948  0.00  0.00    +0.000 C 
ATOM     19  O   UNL     1      -1.161  13.147  19.098  0.00  0.00    +0.000 OA
ENDBRANCH  12  19
ENDBRANCH  11  15
ENDBRANCH   1  11
BRANCH   7  20
ATOM     20  O   UNL     1       4.230   3.738  17.550  0.00  0.00    +0.000 OA
BRANCH  20  21
ATOM     21  C   UNL     1       5.410   4.018  18.293  0.00  0.00    +0.000 C 
BRANCH  21  22
ATOM     22  C   UNL     1       6.545   4.424  17.306  0.00  0.00    +0.000 C 
ATOM     23  C   UNL     1       6.120   5.562  16.350  0.00  0.00    +0.000 C 
ATOM     24  C   UNL     1       6.008   6.910  17.055  0.00  0.00    +0.000 C 
ATOM     25  C   UNL     1       7.317   7.289  17.749  0.00  0.00    +0.000 C 
ATOM     26  C   UNL     1       7.829   6.180  18.666  0.00  0.00    +0.000 C 
ATOM     27  C   UNL     1       7.880   4.820  17.975  0.00  0.00    +0.000 C 
ENDBRANCH  21  22
ENDBRANCH  20  21
ENDBRANCH   7  20
TORSDOF 6
ENDMDL
MODEL 9
REMARK VINA RESULT:      -7.6      1.742      2.281
REMARK  Name = 
REMARK  7 active torsions:
REMARK  status: ('A' for Active; 'I' for Inactive)
REMARK    1  A    between atoms: C_1  and  O_2
REMARK    2  A    between atoms: O_2  and  C_3
REMARK    3  A    between atoms: C_6  and  C_7
REMARK    4  A    between atoms: C_7  and  C_8
REMARK    5  A    between atoms: C_14  and  O_15
REMARK    6  A    between atoms: O_15  and  C_16
REMARK    7  A    between atoms: C_16  and  C_17
REMARK                            x       y       z     vdW  Elec       q    Type
REMARK                         _______ _______ _______ _____ _____    ______ ____
ROOT
ATOM      1  C   UNL     1       1.344   7.816  19.655  0.00  0.00    +0.000 C 
ATOM      2  C   UNL     1       1.887   7.143  20.918  0.00  0.00    +0.000 C 
ATOM      3  C   UNL     1       2.104   5.787  20.328  0.00  0.00    +0.000 A 
ATOM      4  C   UNL     1       1.132   4.785  20.373  0.00  0.00    +0.000 A 
ATOM      5  C   UNL     1       1.084   3.831  19.357  0.00  0.00    +0.000 A 
ATOM      6  C   UNL     1       2.112   3.773  18.411  0.00  0.00    +0.000 A 
ATOM      7  C   UNL     1       3.152   4.717  18.445  0.00  0.00    +0.000 A 
ATOM      8  C   UNL     1       2.936   5.879  19.199  0.00  0.00    +0.000 A 
ATOM      9  C   UNL     1       2.325   7.168  18.619  0.00  0.00    +0.000 C 
ATOM     10  O   UNL     1       2.476   7.534  17.466  0.00  0.00    +0.000 OA
ENDROOT
BRANCH   1  11
ATOM     11  C   UNL     1       1.260   9.328  19.893  0.00  0.00    +0.000 C 
BRANCH  11  15
ATOM     12  C   UNL     1      -2.352  11.288  18.454  0.00  0.00    +0.000 A 
ATOM     13  C   UNL     1      -1.641  10.414  17.632  0.00  0.00    +0.000 A 
ATOM     14  C   UNL     1      -0.463   9.808  18.100  0.00  0.00    +0.000 A 
ATOM     15  C   UNL     1       0.046  10.094  19.373  0.00  0.00    +0.000 A 
ATOM     16  C   UNL     1      -0.655  11.009  20.173  0.00  0.00    +0.000 A 
ATOM     17  C   UNL     1      -1.843  11.599  19.715  0.00  0.00    +0.000 A 
BRANCH  12  19
ATOM     18  C   UNL     1      -4.545  12.067  18.858  0.00  0.00    +0.000 C 
ATOM     19  O   UNL     1      -3.509  11.786  17.918  0.00  0.00    +0.000 OA
ENDBRANCH  12  19
ENDBRANCH  11  15
ENDBRANCH   1  11
BRANCH   7  20
ATOM     20  O   UNL     1       4.349   3.966  18.580  0.00  0.00    +0.000 OA
BRANCH  20  21
ATOM     21  C   UNL     1       5.508   4.616  19.089  0.00  0.00    +0.000 C 
BRANCH  21  22
ATOM     22  C   UNL     1       6.588   4.674  17.968  0.00  0.00    +0.000 C 
ATOM     23  C   UNL     1       6.142   5.530  16.760  0.00  0.00    +0.000 C 
ATOM     24  C   UNL     1       6.130   7.023  17.070  0.00  0.00    +0.000 C 
ATOM     25  C   UNL     1       7.495   7.505  17.559  0.00  0.00    +0.000 C 
ATOM     26  C   UNL     1       8.026   6.662  18.718  0.00  0.00    +0.000 C 
ATOM     27  C   UNL     1       7.979   5.164  18.427  0.00  0.00    +0.000 C 
ENDBRANCH  21  22
ENDBRANCH  20  21
ENDBRANCH   7  20
TORSDOF 6
ENDMDL
