MODEL 1
REMARK VINA RESULT:      -8.4      0.000      0.000
REMARK  Name = 
REMARK  4 active torsions:
REMARK  status: ('A' for Active; 'I' for Inactive)
REMARK    1  A    between atoms: C_1  and  C_2
REMARK    2  A    between atoms: C_5  and  O_6
REMARK    3  A    between atoms: C_7  and  C_8
REMARK    4  A    between atoms: C_12  and  C_13
REMARK                            x       y       z     vdW  Elec       q    Type
REMARK                         _______ _______ _______ _____ _____    ______ ____
ROOT
ATOM      1  C   UNL     1       5.050   4.395  16.067  0.00  0.00    +0.000 A 
ATOM      2  N   UNL     1       4.592   3.376  16.773  0.00  0.00    +0.000 NA
ATOM      3  C   UNL     1       3.942   3.917  17.858  0.00  0.00    +0.000 A 
ATOM      4  C   UNL     1       3.259   3.284  18.904  0.00  0.00    +0.000 A 
ATOM      5  C   UNL     1       2.658   4.083  19.892  0.00  0.00    +0.000 A 
ATOM      6  C   UNL     1       2.766   5.482  19.843  0.00  0.00    +0.000 A 
ATOM      7  C   UNL     1       3.444   6.126  18.802  0.00  0.00    +0.000 A 
ATOM      8  C   UNL     1       4.013   5.303  17.832  0.00  0.00    +0.000 A 
ATOM      9  N   UNL     1       4.722   5.577  16.697  0.00  0.00    +0.000 N 
ATOM     10  H   UNL     1       4.972   6.488  16.334  0.00  0.00    +0.000 HD
ENDROOT
BRANCH   1  16
ATOM     11  C   UNL     1       5.403   2.660  11.402  0.00  0.00    +0.000 C 
ATOM     12  C   UNL     1       5.971   3.492  12.514  0.00  0.00    +0.000 A 
ATOM     13  C   UNL     1       7.152   4.219  12.336  0.00  0.00    +0.000 A 
ATOM     14  C   UNL     1       7.659   5.006  13.369  0.00  0.00    +0.000 A 
ATOM     15  C   UNL     1       6.982   5.075  14.588  0.00  0.00    +0.000 A 
ATOM     16  C   UNL     1       5.797   4.347  14.804  0.00  0.00    +0.000 A 
ATOM     17  C   UNL     1       5.307   3.558  13.750  0.00  0.00    +0.000 A 
BRANCH  15  18
ATOM     18  O   UNL     1       7.488   5.879  15.580  0.00  0.00    +0.000 OA
ATOM     19  H   UNL     1       8.421   6.066  15.371  0.00  0.00    +0.000 HD
ENDBRANCH  15  18
ENDBRANCH   1  16
BRANCH   5  20
ATOM     20  C   UNL     1       1.904   3.426  21.001  0.00  0.00    +0.000 C 
ATOM     21  N   UNL     1       2.416   3.209  22.171  0.00  0.00    +0.000 NA
ATOM     22  N   UNL     1       0.616   3.014  20.822  0.00  0.00    +0.000 N 
ATOM     23  H   UNL     1       3.357   3.598  22.249  0.00  0.00    +0.000 HD
ATOM     24  H   UNL     1       0.333   2.732  19.893  0.00  0.00    +0.000 HD
ATOM     25  H   UNL     1       0.320   2.376  21.554  0.00  0.00    +0.000 HD
ENDBRANCH   5  20
TORSDOF 3
ENDMDL
MODEL 2
REMARK VINA RESULT:      -8.0      3.446      7.630
REMARK  Name = 
REMARK  4 active torsions:
REMARK  status: ('A' for Active; 'I' for Inactive)
REMARK    1  A    between atoms: C_1  and  C_2
REMARK    2  A    between atoms: C_5  and  O_6
REMARK    3  A    between atoms: C_7  and  C_8
REMARK    4  A    between atoms: C_12  and  C_13
REMARK                            x       y       z     vdW  Elec       q    Type
REMARK                         _______ _______ _______ _____ _____    ______ ____
ROOT
ATOM      1  C   UNL     1       2.835   7.159  18.396  0.00  0.00    +0.000 A 
ATOM      2  N   UNL     1       3.716   7.520  17.480  0.00  0.00    +0.000 NA
ATOM      3  C   UNL     1       4.254   6.357  16.981  0.00  0.00    +0.000 A 
ATOM      4  C   UNL     1       5.213   6.169  15.976  0.00  0.00    +0.000 A 
ATOM      5  C   UNL     1       5.579   4.855  15.636  0.00  0.00    +0.000 A 
ATOM      6  C   UNL     1       5.015   3.760  16.311  0.00  0.00    +0.000 A 
ATOM      7  C   UNL     1       4.056   3.935  17.314  0.00  0.00    +0.000 A 
ATOM      8  C   UNL     1       3.705   5.250  17.612  0.00  0.00    +0.000 A 
ATOM      9  N   UNL     1       2.819   5.784  18.504  0.00  0.00    +0.000 N 
ATOM     10  H   UNL     1       2.218   5.284  19.146  0.00  0.00    +0.000 HD
ENDROOT
BRANCH   1  16
ATOM     11  C   UNL     1       0.112  11.328  18.723  0.00  0.00    +0.000 C 
ATOM     12  C   UNL     1       0.641  10.079  19.368  0.00  0.00    +0.000 A 
ATOM     13  C   UNL     1       0.298   9.749  20.683  0.00  0.00    +0.000 A 
ATOM     14  C   UNL     1       0.778   8.576  21.263  0.00  0.00    +0.000 A 
ATOM     15  C   UNL     1       1.602   7.722  20.528  0.00  0.00    +0.000 A 
ATOM     16  C   UNL     1       1.976   8.031  19.207  0.00  0.00    +0.000 A 
ATOM     17  C   UNL     1       1.483   9.219  18.644  0.00  0.00    +0.000 A 
BRANCH  15  18
ATOM     18  O   UNL     1       2.040   6.560  21.116  0.00  0.00    +0.000 OA
ATOM     19  H   UNL     1       3.013   6.590  21.158  0.00  0.00    +0.000 HD
ENDBRANCH  15  18
ENDBRANCH   1  16
BRANCH   5  20
ATOM     20  C   UNL     1       6.580   4.635  14.551  0.00  0.00    +0.000 C 
ATOM     21  N   UNL     1       7.637   5.371  14.406  0.00  0.00    +0.000 NA
ATOM     22  N   UNL     1       6.418   3.630  13.644  0.00  0.00    +0.000 N 
ATOM     23  H   UNL     1       7.723   6.060  15.156  0.00  0.00    +0.000 HD
ATOM     24  H   UNL     1       5.475   3.348  13.413  0.00  0.00    +0.000 HD
ATOM     25  H   UNL     1       7.021   3.751  12.837  0.00  0.00    +0.000 HD
ENDBRANCH   5  20
TORSDOF 3
ENDMDL
MODEL 3
REMARK VINA RESULT:      -7.9      3.533      7.760
REMARK  Name = 
REMARK  4 active torsions:
REMARK  status: ('A' for Active; 'I' for Inactive)
REMARK    1  A    between atoms: C_1  and  C_2
REMARK    2  A    between atoms: C_5  and  O_6
REMARK    3  A    between atoms: C_7  and  C_8
REMARK    4  A    between atoms: C_12  and  C_13
REMARK                            x       y       z     vdW  Elec       q    Type
REMARK                         _______ _______ _______ _____ _____    ______ ____
ROOT
ATOM      1  C   UNL     1       2.595   7.630  18.462  0.00  0.00    +0.000 A 
ATOM      2  N   UNL     1       3.592   7.869  17.629  0.00  0.00    +0.000 NA
ATOM      3  C   UNL     1       4.057   6.641  17.220  0.00  0.00    +0.000 A 
ATOM      4  C   UNL     1       5.085   6.323  16.322  0.00  0.00    +0.000 A 
ATOM      5  C   UNL     1       5.351   4.968  16.059  0.00  0.00    +0.000 A 
ATOM      6  C   UNL     1       4.618   3.959  16.705  0.00  0.00    +0.000 A 
ATOM      7  C   UNL     1       3.588   4.264  17.602  0.00  0.00    +0.000 A 
ATOM      8  C   UNL     1       3.342   5.618  17.825  0.00  0.00    +0.000 A 
ATOM      9  N   UNL     1       2.431   6.268  18.607  0.00  0.00    +0.000 N 
ATOM     10  H   UNL     1       1.724   5.854  19.200  0.00  0.00    +0.000 HD
ENDROOT
BRANCH   1  16
ATOM     11  C   UNL     1       0.098   8.927  22.584  0.00  0.00    +0.000 C 
ATOM     12  C   UNL     1       0.524   9.246  21.180  0.00  0.00    +0.000 A 
ATOM     13  C   UNL     1       0.156  10.452  20.575  0.00  0.00    +0.000 A 
ATOM     14  C   UNL     1       0.576  10.747  19.279  0.00  0.00    +0.000 A 
ATOM     15  C   UNL     1       1.373   9.838  18.582  0.00  0.00    +0.000 A 
ATOM     16  C   UNL     1       1.752   8.611  19.157  0.00  0.00    +0.000 A 
ATOM     17  C   UNL     1       1.315   8.334  20.463  0.00  0.00    +0.000 A 
BRANCH  15  18
ATOM     18  O   UNL     1       1.796  10.166  17.316  0.00  0.00    +0.000 OA
ATOM     19  H   UNL     1       1.376   9.550  16.688  0.00  0.00    +0.000 HD
ENDBRANCH  15  18
ENDBRANCH   1  16
BRANCH   5  20
ATOM     20  C   UNL     1       6.425   4.612  15.087  0.00  0.00    +0.000 C 
ATOM     21  N   UNL     1       7.537   5.271  14.989  0.00  0.00    +0.000 NA
ATOM     22  N   UNL     1       6.278   3.554  14.238  0.00  0.00    +0.000 N 
ATOM     23  H   UNL     1       7.602   6.006  15.696  0.00  0.00    +0.000 HD
ATOM     24  H   UNL     1       5.342   3.312  13.942  0.00  0.00    +0.000 HD
ATOM     25  H   UNL     1       6.955   3.580  13.483  0.00  0.00    +0.000 HD
ENDBRANCH   5  20
TORSDOF 3
ENDMDL
MODEL 4
REMARK VINA RESULT:      -7.8      3.734      7.872
REMARK  Name = 
REMARK  4 active torsions:
REMARK  status: ('A' for Active; 'I' for Inactive)
REMARK    1  A    between atoms: C_1  and  C_2
REMARK    2  A    between atoms: C_5  and  O_6
REMARK    3  A    between atoms: C_7  and  C_8
REMARK    4  A    between atoms: C_12  and  C_13
REMARK                            x       y       z     vdW  Elec       q    Type
REMARK                         _______ _______ _______ _____ _____    ______ ____
ROOT
ATOM      1  C   UNL     1       2.439   7.726  18.992  0.00  0.00    +0.000 A 
ATOM      2  N   UNL     1       3.093   7.784  17.846  0.00  0.00    +0.000 NA
ATOM      3  C   UNL     1       3.877   6.656  17.791  0.00  0.00    +0.000 A 
ATOM      4  C   UNL     1       4.748   6.214  16.785  0.00  0.00    +0.000 A 
ATOM      5  C   UNL     1       5.425   4.997  16.972  0.00  0.00    +0.000 A 
ATOM      6  C   UNL     1       5.252   4.257  18.153  0.00  0.00    +0.000 A 
ATOM      7  C   UNL     1       4.384   4.687  19.163  0.00  0.00    +0.000 A 
ATOM      8  C   UNL     1       3.717   5.889  18.936  0.00  0.00    +0.000 A 
ATOM      9  N   UNL     1       2.811   6.590  19.679  0.00  0.00    +0.000 N 
ATOM     10  H   UNL     1       2.435   6.341  20.585  0.00  0.00    +0.000 HD
ENDROOT
BRANCH   1  16
ATOM     11  C   UNL     1      -0.289   9.347  22.844  0.00  0.00    +0.000 C 
ATOM     12  C   UNL     1       0.116   9.480  21.405  0.00  0.00    +0.000 A 
ATOM     13  C   UNL     1      -0.402  10.503  20.605  0.00  0.00    +0.000 A 
ATOM     14  C   UNL     1      -0.001  10.629  19.275  0.00  0.00    +0.000 A 
ATOM     15  C   UNL     1       0.926   9.734  18.739  0.00  0.00    +0.000 A 
ATOM     16  C   UNL     1       1.457   8.686  19.514  0.00  0.00    +0.000 A 
ATOM     17  C   UNL     1       1.037   8.577  20.850  0.00  0.00    +0.000 A 
BRANCH  15  18
ATOM     18  O   UNL     1       1.323   9.898  17.434  0.00  0.00    +0.000 OA
ATOM     19  H   UNL     1       0.527   9.889  16.872  0.00  0.00    +0.000 HD
ENDBRANCH  15  18
ENDBRANCH   1  16
BRANCH   5  20
ATOM     20  C   UNL     1       6.337   4.499  15.900  0.00  0.00    +0.000 C 
ATOM     21  N   UNL     1       6.253   3.307  15.399  0.00  0.00    +0.000 NA
ATOM     22  N   UNL     1       7.321   5.296  15.393  0.00  0.00    +0.000 N 
ATOM     23  H   UNL     1       5.457   2.792  15.781  0.00  0.00    +0.000 HD
ATOM     24  H   UNL     1       7.726   5.994  16.002  0.00  0.00    +0.000 HD
ATOM     25  H   UNL     1       8.005   4.761  14.867  0.00  0.00    +0.000 HD
ENDBRANCH   5  20
TORSDOF 3
ENDMDL
MODEL 5
REMARK VINA RESULT:      -7.5      4.327      5.695
REMARK  Name = 
REMARK  4 active torsions:
REMARK  status: ('A' for Active; 'I' for Inactive)
REMARK    1  A    between atoms: C_1  and  C_2
REMARK    2  A    between atoms: C_5  and  O_6
REMARK    3  A    between atoms: C_7  and  C_8
REMARK    4  A    between atoms: C_12  and  C_13
REMARK                            x       y       z     vdW  Elec       q    Type
REMARK                         _______ _______ _______ _____ _____    ______ ____
ROOT
ATOM      1  C   UNL     1       2.636   6.968  18.637  0.00  0.00    +0.000 A 
ATOM      2  N   UNL     1       2.256   6.946  19.902  0.00  0.00    +0.000 NA
ATOM      3  C   UNL     1       1.616   8.142  20.133  0.00  0.00    +0.000 A 
ATOM      4  C   UNL     1       1.002   8.622  21.298  0.00  0.00    +0.000 A 
ATOM      5  C   UNL     1       0.394   9.889  21.261  0.00  0.00    +0.000 A 
ATOM      6  C   UNL     1       0.428  10.664  20.091  0.00  0.00    +0.000 A 
ATOM      7  C   UNL     1       1.037  10.195  18.921  0.00  0.00    +0.000 A 
ATOM      8  C   UNL     1       1.614   8.928  18.989  0.00  0.00    +0.000 A 
ATOM      9  N   UNL     1       2.269   8.168  18.064  0.00  0.00    +0.000 N 
ATOM     10  H   UNL     1       2.460   8.404  17.099  0.00  0.00    +0.000 HD
ENDROOT
BRANCH   1  16
ATOM     11  C   UNL     1       6.631   5.585  15.984  0.00  0.00    +0.000 C 
ATOM     12  C   UNL     1       5.303   5.237  16.591  0.00  0.00    +0.000 A 
ATOM     13  C   UNL     1       4.778   3.946  16.478  0.00  0.00    +0.000 A 
ATOM     14  C   UNL     1       3.554   3.629  17.065  0.00  0.00    +0.000 A 
ATOM     15  C   UNL     1       2.849   4.603  17.774  0.00  0.00    +0.000 A 
ATOM     16  C   UNL     1       3.342   5.915  17.895  0.00  0.00    +0.000 A 
ATOM     17  C   UNL     1       4.576   6.212  17.294  0.00  0.00    +0.000 A 
BRANCH  15  18
ATOM     18  O   UNL     1       1.657   4.256  18.365  0.00  0.00    +0.000 OA
ATOM     19  H   UNL     1       1.693   4.528  19.300  0.00  0.00    +0.000 HD
ENDBRANCH  15  18
ENDBRANCH   1  16
BRANCH   5  20
ATOM     20  C   UNL     1      -0.288  10.405  22.485  0.00  0.00    +0.000 C 
ATOM     21  N   UNL     1      -0.439  11.669  22.729  0.00  0.00    +0.000 NA
ATOM     22  N   UNL     1      -0.787   9.549  23.421  0.00  0.00    +0.000 N 
ATOM     23  H   UNL     1      -0.098  12.246  21.957  0.00  0.00    +0.000 HD
ATOM     24  H   UNL     1      -0.330   8.655  23.537  0.00  0.00    +0.000 HD
ATOM     25  H   UNL     1      -0.992  10.023  24.295  0.00  0.00    +0.000 HD
ENDBRANCH   5  20
TORSDOF 3
ENDMDL
MODEL 6
REMARK VINA RESULT:      -7.5      3.818      7.284
REMARK  Name = 
REMARK  4 active torsions:
REMARK  status: ('A' for Active; 'I' for Inactive)
REMARK    1  A    between atoms: C_1  and  C_2
REMARK    2  A    between atoms: C_5  and  O_6
REMARK    3  A    between atoms: C_7  and  C_8
REMARK    4  A    between atoms: C_12  and  C_13
REMARK                            x       y       z     vdW  Elec       q    Type
REMARK                         _______ _______ _______ _____ _____    ______ ____
ROOT
ATOM      1  C   UNL     1       2.100   7.510  19.297  0.00  0.00    +0.000 A 
ATOM      2  N   UNL     1       2.050   6.398  20.009  0.00  0.00    +0.000 NA
ATOM      3  C   UNL     1       2.831   5.479  19.346  0.00  0.00    +0.000 A 
ATOM      4  C   UNL     1       3.138   4.153  19.681  0.00  0.00    +0.000 A 
ATOM      5  C   UNL     1       3.989   3.428  18.830  0.00  0.00    +0.000 A 
ATOM      6  C   UNL     1       4.495   4.012  17.657  0.00  0.00    +0.000 A 
ATOM      7  C   UNL     1       4.197   5.336  17.314  0.00  0.00    +0.000 A 
ATOM      8  C   UNL     1       3.364   6.030  18.190  0.00  0.00    +0.000 A 
ATOM      9  N   UNL     1       2.883   7.308  18.179  0.00  0.00    +0.000 N 
ATOM     10  H   UNL     1       3.061   8.026  17.489  0.00  0.00    +0.000 HD
ENDROOT
BRANCH   1  16
ATOM     11  C   UNL     1      -0.279  10.412  22.587  0.00  0.00    +0.000 C 
ATOM     12  C   UNL     1       0.280  10.217  21.207  0.00  0.00    +0.000 A 
ATOM     13  C   UNL     1       0.209  11.236  20.253  0.00  0.00    +0.000 A 
ATOM     14  C   UNL     1       0.751  11.051  18.982  0.00  0.00    +0.000 A 
ATOM     15  C   UNL     1       1.373   9.844  18.659  0.00  0.00    +0.000 A 
ATOM     16  C   UNL     1       1.450   8.793  19.592  0.00  0.00    +0.000 A 
ATOM     17  C   UNL     1       0.895   9.001  20.865  0.00  0.00    +0.000 A 
BRANCH  15  18
ATOM     18  O   UNL     1       1.922   9.698  17.408  0.00  0.00    +0.000 OA
ATOM     19  H   UNL     1       2.516  10.454  17.249  0.00  0.00    +0.000 HD
ENDBRANCH  15  18
ENDBRANCH   1  16
BRANCH   5  20
ATOM     20  C   UNL     1       4.347   2.022  19.183  0.00  0.00    +0.000 C 
ATOM     21  N   UNL     1       5.101   1.718  20.193  0.00  0.00    +0.000 NA
ATOM     22  N   UNL     1       3.887   0.975  18.440  0.00  0.00    +0.000 N 
ATOM     23  H   UNL     1       5.355   2.545  20.736  0.00  0.00    +0.000 HD
ATOM     24  H   UNL     1       3.714   1.133  17.457  0.00  0.00    +0.000 HD
ATOM     25  H   UNL     1       4.398   0.121  18.637  0.00  0.00    +0.000 HD
ENDBRANCH   5  20
TORSDOF 3
ENDMDL
MODEL 7
REMARK VINA RESULT:      -7.4      4.129      5.602
REMARK  Name = 
REMARK  4 active torsions:
REMARK  status: ('A' for Active; 'I' for Inactive)
REMARK    1  A    between atoms: C_1  and  C_2
REMARK    2  A    between atoms: C_5  and  O_6
REMARK    3  A    between atoms: C_7  and  C_8
REMARK    4  A    between atoms: C_12  and  C_13
REMARK                            x       y       z     vdW  Elec       q    Type
REMARK                         _______ _______ _______ _____ _____    ______ ____
ROOT
ATOM      1  C   UNL     1       2.611   6.844  18.764  0.00  0.00    +0.000 A 
ATOM      2  N   UNL     1       2.209   6.868  20.022  0.00  0.00    +0.000 NA
ATOM      3  C   UNL     1       1.600   8.087  20.210  0.00  0.00    +0.000 A 
ATOM      4  C   UNL     1       0.980   8.617  21.350  0.00  0.00    +0.000 A 
ATOM      5  C   UNL     1       0.410   9.898  21.269  0.00  0.00    +0.000 A 
ATOM      6  C   UNL     1       0.486  10.640  20.079  0.00  0.00    +0.000 A 
ATOM      7  C   UNL     1       1.101  10.122  18.934  0.00  0.00    +0.000 A 
ATOM      8  C   UNL     1       1.640   8.842  19.046  0.00  0.00    +0.000 A 
ATOM      9  N   UNL     1       2.289   8.038  18.153  0.00  0.00    +0.000 N 
ATOM     10  H   UNL     1       2.503   8.242  17.185  0.00  0.00    +0.000 HD
ENDROOT
BRANCH   1  16
ATOM     11  C   UNL     1       2.925   1.963  17.774  0.00  0.00    +0.000 C 
ATOM     12  C   UNL     1       3.454   3.355  17.580  0.00  0.00    +0.000 A 
ATOM     13  C   UNL     1       4.541   3.598  16.736  0.00  0.00    +0.000 A 
ATOM     14  C   UNL     1       5.010   4.897  16.546  0.00  0.00    +0.000 A 
ATOM     15  C   UNL     1       4.388   5.964  17.198  0.00  0.00    +0.000 A 
ATOM     16  C   UNL     1       3.299   5.752  18.064  0.00  0.00    +0.000 A 
ATOM     17  C   UNL     1       2.846   4.434  18.241  0.00  0.00    +0.000 A 
BRANCH  15  18
ATOM     18  O   UNL     1       4.853   7.237  16.973  0.00  0.00    +0.000 OA
ATOM     19  H   UNL     1       4.257   7.668  16.334  0.00  0.00    +0.000 HD
ENDBRANCH  15  18
ENDBRANCH   1  16
BRANCH   5  20
ATOM     20  C   UNL     1      -0.277  10.467  22.467  0.00  0.00    +0.000 C 
ATOM     21  N   UNL     1      -0.400  11.741  22.671  0.00  0.00    +0.000 NA
ATOM     22  N   UNL     1      -0.812   9.651  23.419  0.00  0.00    +0.000 N 
ATOM     23  H   UNL     1      -0.033  12.286  21.889  0.00  0.00    +0.000 HD
ATOM     24  H   UNL     1      -0.378   8.750  23.568  0.00  0.00    +0.000 HD
ATOM     25  H   UNL     1      -1.018  10.156  24.275  0.00  0.00    +0.000 HD
ENDBRANCH   5  20
TORSDOF 3
ENDMDL
MODEL 8
REMARK VINA RESULT:      -7.3      4.572      7.254
REMARK  Name = 
REMARK  4 active torsions:
REMARK  status: ('A' for Active; 'I' for Inactive)
REMARK    1  A    between atoms: C_1  and  C_2
REMARK    2  A    between atoms: C_5  and  O_6
REMARK    3  A    between atoms: C_7  and  C_8
REMARK    4  A    between atoms: C_12  and  C_13
REMARK                            x       y       z     vdW  Elec       q    Type
REMARK                         _______ _______ _______ _____ _____    ______ ____
ROOT
ATOM      1  C   UNL     1       1.960   7.249  19.864  0.00  0.00    +0.000 A 
ATOM      2  N   UNL     1       2.815   6.594  19.099  0.00  0.00    +0.000 NA
ATOM      3  C   UNL     1       2.904   5.323  19.618  0.00  0.00    +0.000 A 
ATOM      4  C   UNL     1       3.650   4.222  19.177  0.00  0.00    +0.000 A 
ATOM      5  C   UNL     1       3.545   3.013  19.887  0.00  0.00    +0.000 A 
ATOM      6  C   UNL     1       2.732   2.924  21.028  0.00  0.00    +0.000 A 
ATOM      7  C   UNL     1       1.981   4.016  21.478  0.00  0.00    +0.000 A 
ATOM      8  C   UNL     1       2.097   5.192  20.740  0.00  0.00    +0.000 A 
ATOM      9  N   UNL     1       1.518   6.422  20.876  0.00  0.00    +0.000 N 
ATOM     10  H   UNL     1       0.856   6.714  21.583  0.00  0.00    +0.000 HD
ENDROOT
BRANCH   1  16
ATOM     11  C   UNL     1      -0.207  11.253  21.908  0.00  0.00    +0.000 C 
ATOM     12  C   UNL     1       0.440  10.603  20.720  0.00  0.00    +0.000 A 
ATOM     13  C   UNL     1       0.630  11.310  19.529  0.00  0.00    +0.000 A 
ATOM     14  C   UNL     1       1.252  10.702  18.439  0.00  0.00    +0.000 A 
ATOM     15  C   UNL     1       1.693   9.381  18.536  0.00  0.00    +0.000 A 
ATOM     16  C   UNL     1       1.506   8.638  19.716  0.00  0.00    +0.000 A 
ATOM     17  C   UNL     1       0.875   9.269  20.800  0.00  0.00    +0.000 A 
BRANCH  15  18
ATOM     18  O   UNL     1       2.326   8.815  17.456  0.00  0.00    +0.000 OA
ATOM     19  H   UNL     1       3.237   8.596  17.721  0.00  0.00    +0.000 HD
ENDBRANCH  15  18
ENDBRANCH   1  16
BRANCH   5  20
ATOM     20  C   UNL     1       4.312   1.823  19.416  0.00  0.00    +0.000 C 
ATOM     21  N   UNL     1       4.099   1.252  18.272  0.00  0.00    +0.000 NA
ATOM     22  N   UNL     1       5.292   1.272  20.189  0.00  0.00    +0.000 N 
ATOM     23  H   UNL     1       3.398   1.755  17.725  0.00  0.00    +0.000 HD
ATOM     24  H   UNL     1       5.200   1.346  21.193  0.00  0.00    +0.000 HD
ATOM     25  H   UNL     1       5.549   0.344  19.866  0.00  0.00    +0.000 HD
ENDBRANCH   5  20
TORSDOF 3
ENDMDL
MODEL 9
REMARK VINA RESULT:      -7.3      4.145      7.878
REMARK  Name = 
REMARK  4 active torsions:
REMARK  status: ('A' for Active; 'I' for Inactive)
REMARK    1  A    between atoms: C_1  and  C_2
REMARK    2  A    between atoms: C_5  and  O_6
REMARK    3  A    between atoms: C_7  and  C_8
REMARK    4  A    between atoms: C_12  and  C_13
REMARK                            x       y       z     vdW  Elec       q    Type
REMARK                         _______ _______ _______ _____ _____    ______ ____
ROOT
ATOM      1  C   UNL     1       2.215   7.963  19.092  0.00  0.00    +0.000 A 
ATOM      2  N   UNL     1       2.921   8.022  17.976  0.00  0.00    +0.000 NA
ATOM      3  C   UNL     1       3.682   6.877  17.940  0.00  0.00    +0.000 A 
ATOM      4  C   UNL     1       4.587   6.431  16.967  0.00  0.00    +0.000 A 
ATOM      5  C   UNL     1       5.229   5.196  17.165  0.00  0.00    +0.000 A 
ATOM      6  C   UNL     1       4.988   4.444  18.327  0.00  0.00    +0.000 A 
ATOM      7  C   UNL     1       4.085   4.879  19.304  0.00  0.00    +0.000 A 
ATOM      8  C   UNL     1       3.455   6.099  19.066  0.00  0.00    +0.000 A 
ATOM      9  N   UNL     1       2.532   6.809  19.778  0.00  0.00    +0.000 N 
ATOM     10  H   UNL     1       2.111   6.555  20.663  0.00  0.00    +0.000 HD
ENDROOT
BRANCH   1  16
ATOM     11  C   UNL     1      -1.301  11.348  18.051  0.00  0.00    +0.000 C 
ATOM     12  C   UNL     1      -0.493  10.600  19.072  0.00  0.00    +0.000 A 
ATOM     13  C   UNL     1      -0.697  10.806  20.440  0.00  0.00    +0.000 A 
ATOM     14  C   UNL     1       0.045  10.090  21.378  0.00  0.00    +0.000 A 
ATOM     15  C   UNL     1       0.994   9.159  20.953  0.00  0.00    +0.000 A 
ATOM     16  C   UNL     1       1.232   8.937  19.584  0.00  0.00    +0.000 A 
ATOM     17  C   UNL     1       0.475   9.671  18.656  0.00  0.00    +0.000 A 
BRANCH  15  18
ATOM     18  O   UNL     1       1.692   8.447  21.899  0.00  0.00    +0.000 OA
ATOM     19  H   UNL     1       1.874   9.041  22.650  0.00  0.00    +0.000 HD
ENDBRANCH  15  18
ENDBRANCH   1  16
BRANCH   5  20
ATOM     20  C   UNL     1       6.177   4.693  16.128  0.00  0.00    +0.000 C 
ATOM     21  N   UNL     1       6.139   3.483  15.664  0.00  0.00    +0.000 NA
ATOM     22  N   UNL     1       7.146   5.503  15.615  0.00  0.00    +0.000 N 
ATOM     23  H   UNL     1       5.352   2.957  16.047  0.00  0.00    +0.000 HD
ATOM     24  H   UNL     1       7.518   6.232  16.209  0.00  0.00    +0.000 HD
ATOM     25  H   UNL     1       7.857   4.974  15.119  0.00  0.00    +0.000 HD
ENDBRANCH   5  20
TORSDOF 3
ENDMDL
