MODEL 1
REMARK VINA RESULT:      -8.7      0.000      0.000
REMARK  Name = 
REMARK  11 active torsions:
REMARK  status: ('A' for Active; 'I' for Inactive)
REMARK    1  A    between atoms: C_1  and  O_2
REMARK    2  A    between atoms: O_2  and  C_3
REMARK    3  A    between atoms: C_6  and  C_7
REMARK    4  A    between atoms: C_7  and  C_8
REMARK    5  A    between atoms: C_8  and  O_10
REMARK    6  A    between atoms: O_10  and  C_11
REMARK    7  A    between atoms: C_12  and  O_13
REMARK    8  A    between atoms: C_14  and  C_15
REMARK    9  A    between atoms: C_15  and  O_16
REMARK   10  A    between atoms: C_18  and  N_19
REMARK   11  A    between atoms: C_21  and  C_22
REMARK                            x       y       z     vdW  Elec       q    Type
REMARK                         _______ _______ _______ _____ _____    ______ ____
ROOT
ATOM      1  C   UNL     1       3.334   4.583  19.735  0.00  0.00    +0.000 C 
ATOM      2  C   UNL     1       2.394   3.447  20.126  0.00  0.00    +0.000 C 
ATOM      3  C   UNL     1       2.889   2.273  19.294  0.00  0.00    +0.000 C 
ATOM      4  O   UNL     1       4.322   2.428  19.257  0.00  0.00    +0.000 OA
ATOM      5  C   UNL     1       4.657   3.822  19.468  0.00  0.00    +0.000 C 
ENDROOT
BRANCH   5   6
ATOM      6  N   UNL     1       5.484   4.334  18.371  0.00  0.00    +0.000 N 
ATOM      7  C   UNL     1       5.178   4.046  17.053  0.00  0.00    +0.000 A 
ATOM      8  C   UNL     1       5.827   4.583  16.011  0.00  0.00    +0.000 A 
ATOM      9  C   UNL     1       7.012   5.435  16.321  0.00  0.00    +0.000 A 
ATOM     10  O   UNL     1       7.713   5.931  15.444  0.00  0.00    +0.000 OA
ATOM     11  N   UNL     1       7.284   5.630  17.646  0.00  0.00    +0.000 N 
ATOM     12  C   UNL     1       6.558   5.146  18.698  0.00  0.00    +0.000 A 
ATOM     13  O   UNL     1       6.861   5.440  19.858  0.00  0.00    +0.000 OA
ATOM     14  H   UNL     1       8.066   6.227  17.863  0.00  0.00    +0.000 HD
BRANCH   8  15
ATOM     15  C   UNL     1       5.437   4.363  14.629  0.00  0.00    +0.000 C 
ATOM     16  C   UNL     1       6.142   3.625  13.758  0.00  0.00    +0.000 C 
ATOM     17 BR   UNL     1       5.602   3.258  12.023  0.00  0.00    +0.000 Br
ENDBRANCH   8  15
ENDBRANCH   5   6
BRANCH   2  18
ATOM     18  O   UNL     1       2.563   3.154  21.524  0.00  0.00    +0.000 OA
ATOM     19  H   UNL     1       2.167   2.284  21.718  0.00  0.00    +0.000 HD
ENDBRANCH   2  18
BRANCH   1  20
ATOM     20  O   UNL     1       2.919   5.322  18.567  0.00  0.00    +0.000 OA
BRANCH  20  21
ATOM     21  C   UNL     1       3.130   6.664  18.666  0.00  0.00    +0.000 C 
ATOM     22  O   UNL     1       3.773   7.310  17.848  0.00  0.00    +0.000 OA
BRANCH  21  23
ATOM     23  C   UNL     1       2.325   7.295  19.771  0.00  0.00    +0.000 C 
BRANCH  23  27
ATOM     24  C   UNL     1      -0.189  10.726  18.992  0.00  0.00    +0.000 A 
ATOM     25  C   UNL     1       0.380  10.031  17.923  0.00  0.00    +0.000 A 
ATOM     26  C   UNL     1       1.198   8.916  18.143  0.00  0.00    +0.000 A 
ATOM     27  C   UNL     1       1.490   8.507  19.448  0.00  0.00    +0.000 A 
ATOM     28  C   UNL     1       0.900   9.201  20.515  0.00  0.00    +0.000 A 
ATOM     29  C   UNL     1       0.072  10.304  20.292  0.00  0.00    +0.000 A 
BRANCH  24  31
ATOM     30  C   UNL     1      -0.261  13.058  18.570  0.00  0.00    +0.000 C 
ATOM     31  O   UNL     1      -0.946  11.812  18.649  0.00  0.00    +0.000 OA
ENDBRANCH  24  31
ENDBRANCH  23  27
ENDBRANCH  21  23
ENDBRANCH  20  21
ENDBRANCH   1  20
BRANCH   3  32
ATOM     32  C   UNL     1       2.298   2.250  17.876  0.00  0.00    +0.000 C 
BRANCH  32  33
ATOM     33  O   UNL     1       1.183   3.136  17.769  0.00  0.00    +0.000 OA
ATOM     34  H   UNL     1       1.520   4.047  17.831  0.00  0.00    +0.000 HD
ENDBRANCH  32  33
ENDBRANCH   3  32
TORSDOF 10
ENDMDL
MODEL 2
REMARK VINA RESULT:      -8.5      0.959      1.230
REMARK  Name = 
REMARK  11 active torsions:
REMARK  status: ('A' for Active; 'I' for Inactive)
REMARK    1  A    between atoms: C_1  and  O_2
REMARK    2  A    between atoms: O_2  and  C_3
REMARK    3  A    between atoms: C_6  and  C_7
REMARK    4  A    between atoms: C_7  and  C_8
REMARK    5  A    between atoms: C_8  and  O_10
REMARK    6  A    between atoms: O_10  and  C_11
REMARK    7  A    between atoms: C_12  and  O_13
REMARK    8  A    between atoms: C_14  and  C_15
REMARK    9  A    between atoms: C_15  and  O_16
REMARK   10  A    between atoms: C_18  and  N_19
REMARK   11  A    between atoms: C_21  and  C_22
REMARK                            x       y       z     vdW  Elec       q    Type
REMARK                         _______ _______ _______ _____ _____    ______ ____
ROOT
ATOM      1  C   UNL     1       3.386   4.703  19.836  0.00  0.00    +0.000 C 
ATOM      2  C   UNL     1       2.337   3.645  20.165  0.00  0.00    +0.000 C 
ATOM      3  C   UNL     1       2.668   2.507  19.211  0.00  0.00    +0.000 C 
ATOM      4  O   UNL     1       4.108   2.505  19.127  0.00  0.00    +0.000 OA
ATOM      5  C   UNL     1       4.605   3.828  19.446  0.00  0.00    +0.000 C 
ENDROOT
BRANCH   5   6
ATOM      6  N   UNL     1       5.448   4.346  18.364  0.00  0.00    +0.000 N 
ATOM      7  C   UNL     1       5.157   4.074  17.040  0.00  0.00    +0.000 A 
ATOM      8  C   UNL     1       5.822   4.617  16.011  0.00  0.00    +0.000 A 
ATOM      9  C   UNL     1       7.008   5.458  16.344  0.00  0.00    +0.000 A 
ATOM     10  O   UNL     1       7.722   5.959  15.481  0.00  0.00    +0.000 OA
ATOM     11  N   UNL     1       7.266   5.638  17.674  0.00  0.00    +0.000 N 
ATOM     12  C   UNL     1       6.523   5.148  18.713  0.00  0.00    +0.000 A 
ATOM     13  O   UNL     1       6.815   5.428  19.879  0.00  0.00    +0.000 OA
ATOM     14  H   UNL     1       8.048   6.228  17.907  0.00  0.00    +0.000 HD
BRANCH   8  15
ATOM     15  C   UNL     1       5.447   4.413  14.622  0.00  0.00    +0.000 C 
ATOM     16  C   UNL     1       6.117   3.620  13.772  0.00  0.00    +0.000 C 
ATOM     17 BR   UNL     1       5.589   3.277  12.029  0.00  0.00    +0.000 Br
ENDBRANCH   8  15
ENDBRANCH   5   6
BRANCH   2  18
ATOM     18  O   UNL     1       2.517   3.206  21.523  0.00  0.00    +0.000 OA
ATOM     19  H   UNL     1       3.443   3.361  21.788  0.00  0.00    +0.000 HD
ENDBRANCH   2  18
BRANCH   1  20
ATOM     20  O   UNL     1       3.021   5.588  18.758  0.00  0.00    +0.000 OA
BRANCH  20  21
ATOM     21  C   UNL     1       2.433   6.744  19.175  0.00  0.00    +0.000 C 
ATOM     22  O   UNL     1       2.321   7.059  20.353  0.00  0.00    +0.000 OA
BRANCH  21  23
ATOM     23  C   UNL     1       2.118   7.676  18.035  0.00  0.00    +0.000 C 
BRANCH  23  27
ATOM     24  C   UNL     1       1.037  11.756  18.976  0.00  0.00    +0.000 A 
ATOM     25  C   UNL     1       0.260  10.705  19.469  0.00  0.00    +0.000 A 
ATOM     26  C   UNL     1       0.586   9.374  19.182  0.00  0.00    +0.000 A 
ATOM     27  C   UNL     1       1.676   9.079  18.358  0.00  0.00    +0.000 A 
ATOM     28  C   UNL     1       2.460  10.141  17.881  0.00  0.00    +0.000 A 
ATOM     29  C   UNL     1       2.142  11.468  18.181  0.00  0.00    +0.000 A 
BRANCH  24  31
ATOM     30  C   UNL     1      -0.380  13.580  18.444  0.00  0.00    +0.000 C 
ATOM     31  O   UNL     1       0.602  13.010  19.303  0.00  0.00    +0.000 OA
ENDBRANCH  24  31
ENDBRANCH  23  27
ENDBRANCH  21  23
ENDBRANCH  20  21
ENDBRANCH   1  20
BRANCH   3  32
ATOM     32  C   UNL     1       2.032   2.681  17.824  0.00  0.00    +0.000 C 
BRANCH  32  33
ATOM     33  O   UNL     1       0.974   3.640  17.860  0.00  0.00    +0.000 OA
ATOM     34  H   UNL     1       0.787   3.910  16.944  0.00  0.00    +0.000 HD
ENDBRANCH  32  33
ENDBRANCH   3  32
TORSDOF 10
ENDMDL
MODEL 3
REMARK VINA RESULT:      -8.5      1.320      1.733
REMARK  Name = 
REMARK  11 active torsions:
REMARK  status: ('A' for Active; 'I' for Inactive)
REMARK    1  A    between atoms: C_1  and  O_2
REMARK    2  A    between atoms: O_2  and  C_3
REMARK    3  A    between atoms: C_6  and  C_7
REMARK    4  A    between atoms: C_7  and  C_8
REMARK    5  A    between atoms: C_8  and  O_10
REMARK    6  A    between atoms: O_10  and  C_11
REMARK    7  A    between atoms: C_12  and  O_13
REMARK    8  A    between atoms: C_14  and  C_15
REMARK    9  A    between atoms: C_15  and  O_16
REMARK   10  A    between atoms: C_18  and  N_19
REMARK   11  A    between atoms: C_21  and  C_22
REMARK                            x       y       z     vdW  Elec       q    Type
REMARK                         _______ _______ _______ _____ _____    ______ ____
ROOT
ATOM      1  C   UNL     1       3.667   5.228  19.076  0.00  0.00    +0.000 C 
ATOM      2  C   UNL     1       2.611   4.292  19.657  0.00  0.00    +0.000 C 
ATOM      3  C   UNL     1       2.927   2.953  19.007  0.00  0.00    +0.000 C 
ATOM      4  O   UNL     1       4.366   2.918  18.919  0.00  0.00    +0.000 OA
ATOM      5  C   UNL     1       4.876   4.274  18.904  0.00  0.00    +0.000 C 
ENDROOT
BRANCH   5   6
ATOM      6  N   UNL     1       5.715   4.506  17.724  0.00  0.00    +0.000 N 
ATOM      7  C   UNL     1       5.483   3.831  16.540  0.00  0.00    +0.000 A 
ATOM      8  C   UNL     1       6.141   4.089  15.402  0.00  0.00    +0.000 A 
ATOM      9  C   UNL     1       7.259   5.074  15.478  0.00  0.00    +0.000 A 
ATOM     10  O   UNL     1       7.964   5.346  14.511  0.00  0.00    +0.000 OA
ATOM     11  N   UNL     1       7.463   5.661  16.696  0.00  0.00    +0.000 N 
ATOM     12  C   UNL     1       6.724   5.451  17.827  0.00  0.00    +0.000 A 
ATOM     13  O   UNL     1       6.960   6.086  18.858  0.00  0.00    +0.000 OA
ATOM     14  H   UNL     1       8.197   6.349  16.748  0.00  0.00    +0.000 HD
BRANCH   8  15
ATOM     15  C   UNL     1       5.824   3.454  14.134  0.00  0.00    +0.000 C 
ATOM     16  C   UNL     1       5.033   3.999  13.198  0.00  0.00    +0.000 C 
ATOM     17 BR   UNL     1       4.704   3.240  11.539  0.00  0.00    +0.000 Br
ENDBRANCH   8  15
ENDBRANCH   5   6
BRANCH   2  18
ATOM     18  O   UNL     1       2.798   4.195  21.080  0.00  0.00    +0.000 OA
ATOM     19  H   UNL     1       1.983   4.486  21.529  0.00  0.00    +0.000 HD
ENDBRANCH   2  18
BRANCH   1  20
ATOM     20  O   UNL     1       3.300   5.828  17.816  0.00  0.00    +0.000 OA
BRANCH  20  21
ATOM     21  C   UNL     1       3.355   7.189  17.822  0.00  0.00    +0.000 C 
ATOM     22  O   UNL     1       4.388   7.825  17.652  0.00  0.00    +0.000 OA
BRANCH  21  23
ATOM     23  C   UNL     1       1.990   7.822  17.857  0.00  0.00    +0.000 C 
BRANCH  23  27
ATOM     24  C   UNL     1       0.781   9.898  21.454  0.00  0.00    +0.000 A 
ATOM     25  C   UNL     1       0.697  10.549  20.220  0.00  0.00    +0.000 A 
ATOM     26  C   UNL     1       1.081   9.903  19.039  0.00  0.00    +0.000 A 
ATOM     27  C   UNL     1       1.595   8.603  19.084  0.00  0.00    +0.000 A 
ATOM     28  C   UNL     1       1.659   7.952  20.326  0.00  0.00    +0.000 A 
ATOM     29  C   UNL     1       1.262   8.594  21.501  0.00  0.00    +0.000 A 
BRANCH  24  31
ATOM     30  C   UNL     1      -0.870  10.339  23.097  0.00  0.00    +0.000 C 
ATOM     31  O   UNL     1       0.403  10.643  22.536  0.00  0.00    +0.000 OA
ENDBRANCH  24  31
ENDBRANCH  23  27
ENDBRANCH  21  23
ENDBRANCH  20  21
ENDBRANCH   1  20
BRANCH   3  32
ATOM     32  C   UNL     1       2.282   2.790  17.623  0.00  0.00    +0.000 C 
BRANCH  32  33
ATOM     33  O   UNL     1       1.208   3.714  17.443  0.00  0.00    +0.000 OA
ATOM     34  H   UNL     1       0.811   3.543  16.572  0.00  0.00    +0.000 HD
ENDBRANCH  32  33
ENDBRANCH   3  32
TORSDOF 10
ENDMDL
MODEL 4
REMARK VINA RESULT:      -8.4      0.824      1.293
REMARK  Name = 
REMARK  11 active torsions:
REMARK  status: ('A' for Active; 'I' for Inactive)
REMARK    1  A    between atoms: C_1  and  O_2
REMARK    2  A    between atoms: O_2  and  C_3
REMARK    3  A    between atoms: C_6  and  C_7
REMARK    4  A    between atoms: C_7  and  C_8
REMARK    5  A    between atoms: C_8  and  O_10
REMARK    6  A    between atoms: O_10  and  C_11
REMARK    7  A    between atoms: C_12  and  O_13
REMARK    8  A    between atoms: C_14  and  C_15
REMARK    9  A    between atoms: C_15  and  O_16
REMARK   10  A    between atoms: C_18  and  N_19
REMARK   11  A    between atoms: C_21  and  C_22
REMARK                            x       y       z     vdW  Elec       q    Type
REMARK                         _______ _______ _______ _____ _____    ______ ____
ROOT
ATOM      1  C   UNL     1       3.550   4.375  20.170  0.00  0.00    +0.000 C 
ATOM      2  C   UNL     1       2.547   3.270  20.488  0.00  0.00    +0.000 C 
ATOM      3  C   UNL     1       2.839   2.211  19.436  0.00  0.00    +0.000 C 
ATOM      4  O   UNL     1       4.270   2.252  19.259  0.00  0.00    +0.000 OA
ATOM      5  C   UNL     1       4.759   3.562  19.641  0.00  0.00    +0.000 C 
ENDROOT
BRANCH   5   6
ATOM      6  N   UNL     1       5.518   4.177  18.548  0.00  0.00    +0.000 N 
ATOM      7  C   UNL     1       5.203   3.918  17.227  0.00  0.00    +0.000 A 
ATOM      8  C   UNL     1       5.784   4.542  16.193  0.00  0.00    +0.000 A 
ATOM      9  C   UNL     1       6.910   5.468  16.511  0.00  0.00    +0.000 A 
ATOM     10  O   UNL     1       7.550   6.049  15.640  0.00  0.00    +0.000 OA
ATOM     11  N   UNL     1       7.199   5.631  17.837  0.00  0.00    +0.000 N 
ATOM     12  C   UNL     1       6.537   5.054  18.884  0.00  0.00    +0.000 A 
ATOM     13  O   UNL     1       6.846   5.324  20.048  0.00  0.00    +0.000 OA
ATOM     14  H   UNL     1       7.939   6.277  18.061  0.00  0.00    +0.000 HD
BRANCH   8  15
ATOM     15  C   UNL     1       5.377   4.347  14.812  0.00  0.00    +0.000 C 
ATOM     16  C   UNL     1       6.106   3.686  13.900  0.00  0.00    +0.000 C 
ATOM     17 BR   UNL     1       5.551   3.347  12.165  0.00  0.00    +0.000 Br
ENDBRANCH   8  15
ENDBRANCH   5   6
BRANCH   2  18
ATOM     18  O   UNL     1       2.826   2.741  21.796  0.00  0.00    +0.000 OA
ATOM     19  H   UNL     1       3.790   2.747  21.945  0.00  0.00    +0.000 HD
ENDBRANCH   2  18
BRANCH   1  20
ATOM     20  O   UNL     1       3.096   5.325  19.185  0.00  0.00    +0.000 OA
BRANCH  20  21
ATOM     21  C   UNL     1       2.300   6.305  19.696  0.00  0.00    +0.000 C 
ATOM     22  O   UNL     1       1.632   6.172  20.714  0.00  0.00    +0.000 OA
BRANCH  21  23
ATOM     23  C   UNL     1       2.484   7.623  18.993  0.00  0.00    +0.000 C 
BRANCH  23  27
ATOM     24  C   UNL     1      -0.477  10.755  19.347  0.00  0.00    +0.000 A 
ATOM     25  C   UNL     1       0.128  10.244  20.498  0.00  0.00    +0.000 A 
ATOM     26  C   UNL     1       1.091   9.231  20.415  0.00  0.00    +0.000 A 
ATOM     27  C   UNL     1       1.430   8.685  19.174  0.00  0.00    +0.000 A 
ATOM     28  C   UNL     1       0.829   9.216  18.022  0.00  0.00    +0.000 A 
ATOM     29  C   UNL     1      -0.120  10.237  18.106  0.00  0.00    +0.000 A 
BRANCH  24  31
ATOM     30  C   UNL     1      -2.536  11.720  18.677  0.00  0.00    +0.000 C 
ATOM     31  O   UNL     1      -1.420  11.722  19.560  0.00  0.00    +0.000 OA
ENDBRANCH  24  31
ENDBRANCH  23  27
ENDBRANCH  21  23
ENDBRANCH  20  21
ENDBRANCH   1  20
BRANCH   3  32
ATOM     32  C   UNL     1       2.109   2.466  18.108  0.00  0.00    +0.000 C 
BRANCH  32  33
ATOM     33  O   UNL     1       0.776   1.957  18.148  0.00  0.00    +0.000 OA
ATOM     34  H   UNL     1       0.785   1.139  18.674  0.00  0.00    +0.000 HD
ENDBRANCH  32  33
ENDBRANCH   3  32
TORSDOF 10
ENDMDL
MODEL 5
REMARK VINA RESULT:      -8.2      0.799      1.237
REMARK  Name = 
REMARK  11 active torsions:
REMARK  status: ('A' for Active; 'I' for Inactive)
REMARK    1  A    between atoms: C_1  and  O_2
REMARK    2  A    between atoms: O_2  and  C_3
REMARK    3  A    between atoms: C_6  and  C_7
REMARK    4  A    between atoms: C_7  and  C_8
REMARK    5  A    between atoms: C_8  and  O_10
REMARK    6  A    between atoms: O_10  and  C_11
REMARK    7  A    between atoms: C_12  and  O_13
REMARK    8  A    between atoms: C_14  and  C_15
REMARK    9  A    between atoms: C_15  and  O_16
REMARK   10  A    between atoms: C_18  and  N_19
REMARK   11  A    between atoms: C_21  and  C_22
REMARK                            x       y       z     vdW  Elec       q    Type
REMARK                         _______ _______ _______ _____ _____    ______ ____
ROOT
ATOM      1  C   UNL     1       3.340   4.609  19.847  0.00  0.00    +0.000 C 
ATOM      2  C   UNL     1       2.379   3.491  20.237  0.00  0.00    +0.000 C 
ATOM      3  C   UNL     1       2.822   2.322  19.370  0.00  0.00    +0.000 C 
ATOM      4  O   UNL     1       4.258   2.439  19.303  0.00  0.00    +0.000 OA
ATOM      5  C   UNL     1       4.636   3.818  19.534  0.00  0.00    +0.000 C 
ENDROOT
BRANCH   5   6
ATOM      6  N   UNL     1       5.450   4.331  18.429  0.00  0.00    +0.000 N 
ATOM      7  C   UNL     1       5.146   4.023  17.115  0.00  0.00    +0.000 A 
ATOM      8  C   UNL     1       5.782   4.559  16.065  0.00  0.00    +0.000 A 
ATOM      9  C   UNL     1       6.955   5.432  16.361  0.00  0.00    +0.000 A 
ATOM     10  O   UNL     1       7.645   5.930  15.477  0.00  0.00    +0.000 OA
ATOM     11  N   UNL     1       7.228   5.647  17.683  0.00  0.00    +0.000 N 
ATOM     12  C   UNL     1       6.512   5.164  18.743  0.00  0.00    +0.000 A 
ATOM     13  O   UNL     1       6.815   5.475  19.899  0.00  0.00    +0.000 OA
ATOM     14  H   UNL     1       8.000   6.259  17.891  0.00  0.00    +0.000 HD
BRANCH   8  15
ATOM     15  C   UNL     1       5.392   4.316  14.686  0.00  0.00    +0.000 C 
ATOM     16  C   UNL     1       6.164   3.691  13.786  0.00  0.00    +0.000 C 
ATOM     17 BR   UNL     1       5.635   3.290  12.055  0.00  0.00    +0.000 Br
ENDBRANCH   8  15
ENDBRANCH   5   6
BRANCH   2  18
ATOM     18  O   UNL     1       2.571   3.164  21.625  0.00  0.00    +0.000 OA
ATOM     19  H   UNL     1       1.943   2.463  21.878  0.00  0.00    +0.000 HD
ENDBRANCH   2  18
BRANCH   1  20
ATOM     20  O   UNL     1       2.919   5.384  18.705  0.00  0.00    +0.000 OA
BRANCH  20  21
ATOM     21  C   UNL     1       2.857   6.723  18.945  0.00  0.00    +0.000 C 
ATOM     22  O   UNL     1       3.176   7.573  18.123  0.00  0.00    +0.000 OA
BRANCH  21  23
ATOM     23  C   UNL     1       2.171   7.045  20.246  0.00  0.00    +0.000 C 
BRANCH  23  27
ATOM     24  C   UNL     1       0.131  10.854  20.425  0.00  0.00    +0.000 A 
ATOM     25  C   UNL     1       0.284  10.098  21.590  0.00  0.00    +0.000 A 
ATOM     26  C   UNL     1       0.941   8.862  21.563  0.00  0.00    +0.000 A 
ATOM     27  C   UNL     1       1.418   8.346  20.355  0.00  0.00    +0.000 A 
ATOM     28  C   UNL     1       1.273   9.120  19.193  0.00  0.00    +0.000 A 
ATOM     29  C   UNL     1       0.631  10.360  19.225  0.00  0.00    +0.000 A 
BRANCH  24  31
ATOM     30  C   UNL     1      -0.257  12.784  21.747  0.00  0.00    +0.000 C 
ATOM     31  O   UNL     1      -0.551  12.030  20.575  0.00  0.00    +0.000 OA
ENDBRANCH  24  31
ENDBRANCH  23  27
ENDBRANCH  21  23
ENDBRANCH  20  21
ENDBRANCH   1  20
BRANCH   3  32
ATOM     32  C   UNL     1       2.198   2.344  17.967  0.00  0.00    +0.000 C 
BRANCH  32  33
ATOM     33  O   UNL     1       0.785   2.541  18.035  0.00  0.00    +0.000 OA
ATOM     34  H   UNL     1       0.552   3.247  17.407  0.00  0.00    +0.000 HD
ENDBRANCH  32  33
ENDBRANCH   3  32
TORSDOF 10
ENDMDL
MODEL 6
REMARK VINA RESULT:      -8.2      1.393      1.878
REMARK  Name = 
REMARK  11 active torsions:
REMARK  status: ('A' for Active; 'I' for Inactive)
REMARK    1  A    between atoms: C_1  and  O_2
REMARK    2  A    between atoms: O_2  and  C_3
REMARK    3  A    between atoms: C_6  and  C_7
REMARK    4  A    between atoms: C_7  and  C_8
REMARK    5  A    between atoms: C_8  and  O_10
REMARK    6  A    between atoms: O_10  and  C_11
REMARK    7  A    between atoms: C_12  and  O_13
REMARK    8  A    between atoms: C_14  and  C_15
REMARK    9  A    between atoms: C_15  and  O_16
REMARK   10  A    between atoms: C_18  and  N_19
REMARK   11  A    between atoms: C_21  and  C_22
REMARK                            x       y       z     vdW  Elec       q    Type
REMARK                         _______ _______ _______ _____ _____    ______ ____
ROOT
ATOM      1  C   UNL     1       3.586   5.425  19.252  0.00  0.00    +0.000 C 
ATOM      2  C   UNL     1       2.543   4.538  19.925  0.00  0.00    +0.000 C 
ATOM      3  C   UNL     1       2.828   3.157  19.353  0.00  0.00    +0.000 C 
ATOM      4  O   UNL     1       4.263   3.102  19.222  0.00  0.00    +0.000 OA
ATOM      5  C   UNL     1       4.783   4.450  19.105  0.00  0.00    +0.000 C 
ENDROOT
BRANCH   5   6
ATOM      6  N   UNL     1       5.586   4.598  17.888  0.00  0.00    +0.000 N 
ATOM      7  C   UNL     1       5.291   3.876  16.746  0.00  0.00    +0.000 A 
ATOM      8  C   UNL     1       5.916   4.058  15.575  0.00  0.00    +0.000 A 
ATOM      9  C   UNL     1       7.066   5.008  15.566  0.00  0.00    +0.000 A 
ATOM     10  O   UNL     1       7.745   5.210  14.563  0.00  0.00    +0.000 OA
ATOM     11  N   UNL     1       7.332   5.645  16.746  0.00  0.00    +0.000 N 
ATOM     12  C   UNL     1       6.627   5.513  17.910  0.00  0.00    +0.000 A 
ATOM     13  O   UNL     1       6.920   6.188  18.901  0.00  0.00    +0.000 OA
ATOM     14  H   UNL     1       8.089   6.310  16.740  0.00  0.00    +0.000 HD
BRANCH   8  15
ATOM     15  C   UNL     1       5.534   3.375  14.351  0.00  0.00    +0.000 C 
ATOM     16  C   UNL     1       5.112   3.999  13.242  0.00  0.00    +0.000 C 
ATOM     17 BR   UNL     1       4.718   3.142  11.646  0.00  0.00    +0.000 Br
ENDBRANCH   8  15
ENDBRANCH   5   6
BRANCH   2  18
ATOM     18  O   UNL     1       2.773   4.530  21.344  0.00  0.00    +0.000 OA
ATOM     19  H   UNL     1       3.455   5.193  21.561  0.00  0.00    +0.000 HD
ENDBRANCH   2  18
BRANCH   1  20
ATOM     20  O   UNL     1       3.185   5.946  17.969  0.00  0.00    +0.000 OA
BRANCH  20  21
ATOM     21  C   UNL     1       3.252   7.304  17.885  0.00  0.00    +0.000 C 
ATOM     22  O   UNL     1       4.282   7.916  17.632  0.00  0.00    +0.000 OA
BRANCH  21  23
ATOM     23  C   UNL     1       1.894   7.953  17.938  0.00  0.00    +0.000 C 
BRANCH  23  27
ATOM     24  C   UNL     1       0.733  10.007  21.562  0.00  0.00    +0.000 A 
ATOM     25  C   UNL     1       1.178   8.684  21.631  0.00  0.00    +0.000 A 
ATOM     26  C   UNL     1       1.562   7.994  20.475  0.00  0.00    +0.000 A 
ATOM     27  C   UNL     1       1.464   8.610  19.224  0.00  0.00    +0.000 A 
ATOM     28  C   UNL     1       1.031   9.944  19.167  0.00  0.00    +0.000 A 
ATOM     29  C   UNL     1       0.663  10.636  20.323  0.00  0.00    +0.000 A 
BRANCH  24  31
ATOM     30  C   UNL     1      -0.976  10.318  23.175  0.00  0.00    +0.000 C 
ATOM     31  O   UNL     1       0.362  10.562  22.755  0.00  0.00    +0.000 OA
ENDBRANCH  24  31
ENDBRANCH  23  27
ENDBRANCH  21  23
ENDBRANCH  20  21
ENDBRANCH   1  20
BRANCH   3  32
ATOM     32  C   UNL     1       2.139   2.912  18.002  0.00  0.00    +0.000 C 
BRANCH  32  33
ATOM     33  O   UNL     1       2.468   1.623  17.483  0.00  0.00    +0.000 OA
ATOM     34  H   UNL     1       3.289   1.710  16.968  0.00  0.00    +0.000 HD
ENDBRANCH  32  33
ENDBRANCH   3  32
TORSDOF 10
ENDMDL
MODEL 7
REMARK VINA RESULT:      -8.1      1.180      1.413
REMARK  Name = 
REMARK  11 active torsions:
REMARK  status: ('A' for Active; 'I' for Inactive)
REMARK    1  A    between atoms: C_1  and  O_2
REMARK    2  A    between atoms: O_2  and  C_3
REMARK    3  A    between atoms: C_6  and  C_7
REMARK    4  A    between atoms: C_7  and  C_8
REMARK    5  A    between atoms: C_8  and  O_10
REMARK    6  A    between atoms: O_10  and  C_11
REMARK    7  A    between atoms: C_12  and  O_13
REMARK    8  A    between atoms: C_14  and  C_15
REMARK    9  A    between atoms: C_15  and  O_16
REMARK   10  A    between atoms: C_18  and  N_19
REMARK   11  A    between atoms: C_21  and  C_22
REMARK                            x       y       z     vdW  Elec       q    Type
REMARK                         _______ _______ _______ _____ _____    ______ ____
ROOT
ATOM      1  C   UNL     1       3.233   5.225  19.784  0.00  0.00    +0.000 C 
ATOM      2  C   UNL     1       2.139   4.265  20.240  0.00  0.00    +0.000 C 
ATOM      3  C   UNL     1       2.441   2.989  19.468  0.00  0.00    +0.000 C 
ATOM      4  O   UNL     1       3.881   2.924  19.415  0.00  0.00    +0.000 OA
ATOM      5  C   UNL     1       4.424   4.260  19.551  0.00  0.00    +0.000 C 
ENDROOT
BRANCH   5   6
ATOM      6  N   UNL     1       5.303   4.586  18.423  0.00  0.00    +0.000 N 
ATOM      7  C   UNL     1       4.937   4.288  17.124  0.00  0.00    +0.000 A 
ATOM      8  C   UNL     1       5.645   4.668  16.052  0.00  0.00    +0.000 A 
ATOM      9  C   UNL     1       6.952   5.338  16.310  0.00  0.00    +0.000 A 
ATOM     10  O   UNL     1       7.708   5.677  15.405  0.00  0.00    +0.000 OA
ATOM     11  N   UNL     1       7.272   5.550  17.622  0.00  0.00    +0.000 N 
ATOM     12  C   UNL     1       6.495   5.235  18.703  0.00  0.00    +0.000 A 
ATOM     13  O   UNL     1       6.858   5.532  19.844  0.00  0.00    +0.000 OA
ATOM     14  H   UNL     1       8.140   6.028  17.804  0.00  0.00    +0.000 HD
BRANCH   8  15
ATOM     15  C   UNL     1       5.205   4.445  14.685  0.00  0.00    +0.000 C 
ATOM     16  C   UNL     1       5.891   3.730  13.781  0.00  0.00    +0.000 C 
ATOM     17 BR   UNL     1       5.289   3.360  12.067  0.00  0.00    +0.000 Br
ENDBRANCH   8  15
ENDBRANCH   5   6
BRANCH   2  18
ATOM     18  O   UNL     1       2.281   4.022  21.650  0.00  0.00    +0.000 OA
ATOM     19  H   UNL     1       1.402   3.839  22.033  0.00  0.00    +0.000 HD
ENDBRANCH   2  18
BRANCH   1  20
ATOM     20  O   UNL     1       2.919   5.958  18.582  0.00  0.00    +0.000 OA
BRANCH  20  21
ATOM     21  C   UNL     1       2.443   7.212  18.815  0.00  0.00    +0.000 C 
ATOM     22  O   UNL     1       2.213   8.024  17.927  0.00  0.00    +0.000 OA
BRANCH  21  23
ATOM     23  C   UNL     1       2.044   7.422  20.251  0.00  0.00    +0.000 C 
BRANCH  23  27
ATOM     24  C   UNL     1      -0.529  10.723  21.340  0.00  0.00    +0.000 A 
ATOM     25  C   UNL     1      -0.039  10.631  20.035  0.00  0.00    +0.000 A 
ATOM     26  C   UNL     1       0.796   9.574  19.653  0.00  0.00    +0.000 A 
ATOM     27  C   UNL     1       1.185   8.612  20.590  0.00  0.00    +0.000 A 
ATOM     28  C   UNL     1       0.673   8.703  21.894  0.00  0.00    +0.000 A 
ATOM     29  C   UNL     1      -0.171   9.751  22.269  0.00  0.00    +0.000 A 
BRANCH  24  31
ATOM     30  C   UNL     1      -1.103  12.459  22.850  0.00  0.00    +0.000 C 
ATOM     31  O   UNL     1      -1.311  11.814  21.597  0.00  0.00    +0.000 OA
ENDBRANCH  24  31
ENDBRANCH  23  27
ENDBRANCH  21  23
ENDBRANCH  20  21
ENDBRANCH   1  20
BRANCH   3  32
ATOM     32  C   UNL     1       1.834   2.983  18.057  0.00  0.00    +0.000 C 
BRANCH  32  33
ATOM     33  O   UNL     1       2.117   1.758  17.381  0.00  0.00    +0.000 OA
ATOM     34  H   UNL     1       2.359   1.096  18.052  0.00  0.00    +0.000 HD
ENDBRANCH  32  33
ENDBRANCH   3  32
TORSDOF 10
ENDMDL
MODEL 8
REMARK VINA RESULT:      -8.0      0.880      1.318
REMARK  Name = 
REMARK  11 active torsions:
REMARK  status: ('A' for Active; 'I' for Inactive)
REMARK    1  A    between atoms: C_1  and  O_2
REMARK    2  A    between atoms: O_2  and  C_3
REMARK    3  A    between atoms: C_6  and  C_7
REMARK    4  A    between atoms: C_7  and  C_8
REMARK    5  A    between atoms: C_8  and  O_10
REMARK    6  A    between atoms: O_10  and  C_11
REMARK    7  A    between atoms: C_12  and  O_13
REMARK    8  A    between atoms: C_14  and  C_15
REMARK    9  A    between atoms: C_15  and  O_16
REMARK   10  A    between atoms: C_18  and  N_19
REMARK   11  A    between atoms: C_21  and  C_22
REMARK                            x       y       z     vdW  Elec       q    Type
REMARK                         _______ _______ _______ _____ _____    ______ ____
ROOT
ATOM      1  C   UNL     1       3.747   4.175  20.037  0.00  0.00    +0.000 C 
ATOM      2  C   UNL     1       2.837   2.991  20.345  0.00  0.00    +0.000 C 
ATOM      3  C   UNL     1       3.229   1.959  19.298  0.00  0.00    +0.000 C 
ATOM      4  O   UNL     1       4.654   2.120  19.139  0.00  0.00    +0.000 OA
ATOM      5  C   UNL     1       5.027   3.466  19.524  0.00  0.00    +0.000 C 
ENDROOT
BRANCH   5   6
ATOM      6  N   UNL     1       5.744   4.142  18.439  0.00  0.00    +0.000 N 
ATOM      7  C   UNL     1       5.423   3.905  17.115  0.00  0.00    +0.000 A 
ATOM      8  C   UNL     1       5.963   4.581  16.092  0.00  0.00    +0.000 A 
ATOM      9  C   UNL     1       7.053   5.545  16.421  0.00  0.00    +0.000 A 
ATOM     10  O   UNL     1       7.656   6.176  15.559  0.00  0.00    +0.000 OA
ATOM     11  N   UNL     1       7.352   5.686  17.747  0.00  0.00    +0.000 N 
ATOM     12  C   UNL     1       6.729   5.053  18.787  0.00  0.00    +0.000 A 
ATOM     13  O   UNL     1       7.042   5.306  19.954  0.00  0.00    +0.000 OA
ATOM     14  H   UNL     1       8.067   6.357  17.980  0.00  0.00    +0.000 HD
BRANCH   8  15
ATOM     15  C   UNL     1       5.548   4.404  14.710  0.00  0.00    +0.000 C 
ATOM     16  C   UNL     1       6.194   3.633  13.824  0.00  0.00    +0.000 C 
ATOM     17 BR   UNL     1       5.616   3.325  12.090  0.00  0.00    +0.000 Br
ENDBRANCH   8  15
ENDBRANCH   5   6
BRANCH   2  18
ATOM     18  O   UNL     1       3.143   2.488  21.658  0.00  0.00    +0.000 OA
ATOM     19  H   UNL     1       2.818   1.571  21.732  0.00  0.00    +0.000 HD
ENDBRANCH   2  18
BRANCH   1  20
ATOM     20  O   UNL     1       3.227   5.083  19.045  0.00  0.00    +0.000 OA
BRANCH  20  21
ATOM     21  C   UNL     1       1.981   5.552  19.332  0.00  0.00    +0.000 C 
ATOM     22  O   UNL     1       0.950   5.018  18.941  0.00  0.00    +0.000 OA
BRANCH  21  23
ATOM     23  C   UNL     1       2.003   6.671  20.339  0.00  0.00    +0.000 C 
BRANCH  23  27
ATOM     24  C   UNL     1       1.087  10.652  18.919  0.00  0.00    +0.000 A 
ATOM     25  C   UNL     1       0.733  10.285  20.220  0.00  0.00    +0.000 A 
ATOM     26  C   UNL     1       1.017   9.003  20.708  0.00  0.00    +0.000 A 
ATOM     27  C   UNL     1       1.625   8.055  19.880  0.00  0.00    +0.000 A 
ATOM     28  C   UNL     1       1.992   8.439  18.580  0.00  0.00    +0.000 A 
ATOM     29  C   UNL     1       1.721   9.722  18.101  0.00  0.00    +0.000 A 
BRANCH  24  31
ATOM     30  C   UNL     1      -0.310  12.527  19.307  0.00  0.00    +0.000 C 
ATOM     31  O   UNL     1       0.733  11.920  18.552  0.00  0.00    +0.000 OA
ENDBRANCH  24  31
ENDBRANCH  23  27
ENDBRANCH  21  23
ENDBRANCH  20  21
ENDBRANCH   1  20
BRANCH   3  32
ATOM     32  C   UNL     1       2.497   2.151  17.962  0.00  0.00    +0.000 C 
BRANCH  32  33
ATOM     33  O   UNL     1       1.081   2.123  18.142  0.00  0.00    +0.000 OA
ATOM     34  H   UNL     1       0.770   1.228  17.918  0.00  0.00    +0.000 HD
ENDBRANCH  32  33
ENDBRANCH   3  32
TORSDOF 10
ENDMDL
MODEL 9
REMARK VINA RESULT:      -7.9      1.203      1.278
REMARK  Name = 
REMARK  11 active torsions:
REMARK  status: ('A' for Active; 'I' for Inactive)
REMARK    1  A    between atoms: C_1  and  O_2
REMARK    2  A    between atoms: O_2  and  C_3
REMARK    3  A    between atoms: C_6  and  C_7
REMARK    4  A    between atoms: C_7  and  C_8
REMARK    5  A    between atoms: C_8  and  O_10
REMARK    6  A    between atoms: O_10  and  C_11
REMARK    7  A    between atoms: C_12  and  O_13
REMARK    8  A    between atoms: C_14  and  C_15
REMARK    9  A    between atoms: C_15  and  O_16
REMARK   10  A    between atoms: C_18  and  N_19
REMARK   11  A    between atoms: C_21  and  C_22
REMARK                            x       y       z     vdW  Elec       q    Type
REMARK                         _______ _______ _______ _____ _____    ______ ____
ROOT
ATOM      1  C   UNL     1       3.492   5.000  20.067  0.00  0.00    +0.000 C 
ATOM      2  C   UNL     1       2.226   4.192  20.339  0.00  0.00    +0.000 C 
ATOM      3  C   UNL     1       2.201   3.179  19.204  0.00  0.00    +0.000 C 
ATOM      4  O   UNL     1       3.585   2.840  18.983  0.00  0.00    +0.000 OA
ATOM      5  C   UNL     1       4.422   3.930  19.440  0.00  0.00    +0.000 C 
ENDROOT
BRANCH   5   6
ATOM      6  N   UNL     1       5.307   4.397  18.369  0.00  0.00    +0.000 N 
ATOM      7  C   UNL     1       5.013   4.147  17.041  0.00  0.00    +0.000 A 
ATOM      8  C   UNL     1       5.722   4.650  16.021  0.00  0.00    +0.000 A 
ATOM      9  C   UNL     1       6.956   5.412  16.369  0.00  0.00    +0.000 A 
ATOM     10  O   UNL     1       7.710   5.869  15.514  0.00  0.00    +0.000 OA
ATOM     11  N   UNL     1       7.211   5.572  17.702  0.00  0.00    +0.000 N 
ATOM     12  C   UNL     1       6.428   5.128  18.731  0.00  0.00    +0.000 A 
ATOM     13  O   UNL     1       6.724   5.385  19.901  0.00  0.00    +0.000 OA
ATOM     14  H   UNL     1       8.027   6.110  17.945  0.00  0.00    +0.000 HD
BRANCH   8  15
ATOM     15  C   UNL     1       5.350   4.474  14.627  0.00  0.00    +0.000 C 
ATOM     16  C   UNL     1       5.964   3.628  13.787  0.00  0.00    +0.000 C 
ATOM     17 BR   UNL     1       5.433   3.325  12.037  0.00  0.00    +0.000 Br
ENDBRANCH   8  15
ENDBRANCH   5   6
BRANCH   2  18
ATOM     18  O   UNL     1       2.364   3.507  21.596  0.00  0.00    +0.000 OA
ATOM     19  H   UNL     1       1.991   4.062  22.305  0.00  0.00    +0.000 HD
ENDBRANCH   2  18
BRANCH   1  20
ATOM     20  O   UNL     1       3.305   6.112  19.167  0.00  0.00    +0.000 OA
BRANCH  20  21
ATOM     21  C   UNL     1       2.312   6.963  19.548  0.00  0.00    +0.000 C 
ATOM     22  O   UNL     1       1.974   7.130  20.714  0.00  0.00    +0.000 OA
BRANCH  21  23
ATOM     23  C   UNL     1       1.816   7.818  18.412  0.00  0.00    +0.000 C 
BRANCH  23  27
ATOM     24  C   UNL     1       0.981  11.994  19.166  0.00  0.00    +0.000 A 
ATOM     25  C   UNL     1       1.935  11.643  18.208  0.00  0.00    +0.000 A 
ATOM     26  C   UNL     1       2.227  10.299  17.941  0.00  0.00    +0.000 A 
ATOM     27  C   UNL     1       1.592   9.286  18.665  0.00  0.00    +0.000 A 
ATOM     28  C   UNL     1       0.623   9.648  19.615  0.00  0.00    +0.000 A 
ATOM     29  C   UNL     1       0.323  10.989  19.868  0.00  0.00    +0.000 A 
BRANCH  24  31
ATOM     30  C   UNL     1       1.899  14.172  18.990  0.00  0.00    +0.000 C 
ATOM     31  O   UNL     1       0.806  13.336  19.354  0.00  0.00    +0.000 OA
ENDBRANCH  24  31
ENDBRANCH  23  27
ENDBRANCH  21  23
ENDBRANCH  20  21
ENDBRANCH   1  20
BRANCH   3  32
ATOM     32  C   UNL     1       1.553   3.727  17.923  0.00  0.00    +0.000 C 
BRANCH  32  33
ATOM     33  O   UNL     1       2.046   3.050  16.767  0.00  0.00    +0.000 OA
ATOM     34  H   UNL     1       2.237   3.720  16.088  0.00  0.00    +0.000 HD
ENDBRANCH  32  33
ENDBRANCH   3  32
TORSDOF 10
ENDMDL
