MODEL 1
REMARK VINA RESULT:      -7.3      0.000      0.000
REMARK  Name = 
REMARK  7 active torsions:
REMARK  status: ('A' for Active; 'I' for Inactive)
REMARK    1  A    between atoms: C_1  and  C_2
REMARK    2  A    between atoms: C_2  and  C_3
REMARK    3  A    between atoms: C_8  and  C_9
REMARK    4  A    between atoms: C_12  and  C_13
REMARK    5  A    between atoms: C_13  and  C_14
REMARK    6  A    between atoms: C_13  and  C_15
REMARK    7  A    between atoms: C_13  and  C_16
REMARK                            x       y       z     vdW  Elec       q    Type
REMARK                         _______ _______ _______ _____ _____    ______ ____
ROOT
ATOM      1  C   UNL     1       4.953   4.331  19.184  0.00  0.00    +0.000 A 
ATOM      2  N   UNL     1       5.063   2.992  19.135  0.00  0.00    +0.000 NA
ATOM      3  O   UNL     1       3.812   2.531  19.543  0.00  0.00    +0.000 OA
ATOM      4  C   UNL     1       3.059   3.638  19.806  0.00  0.00    +0.000 A 
ATOM      5  N   UNL     1       3.712   4.757  19.609  0.00  0.00    +0.000 NA
ENDROOT
BRANCH   1  11
ATOM      6  C   UNL     1       6.005   6.039  17.660  0.00  0.00    +0.000 A 
ATOM      7  C   UNL     1       7.092   6.897  17.428  0.00  0.00    +0.000 A 
ATOM      8  C   UNL     1       8.119   6.995  18.358  0.00  0.00    +0.000 A 
ATOM      9  C   UNL     1       8.035   6.228  19.504  0.00  0.00    +0.000 A 
ATOM     10  N   UNL     1       7.028   5.369  19.757  0.00  0.00    +0.000 NA
ATOM     11  C   UNL     1       6.024   5.273  18.839  0.00  0.00    +0.000 A 
BRANCH   6  13
ATOM     12  C   UNL     1       5.209   5.150  15.446  0.00  0.00    +0.000 C 
ATOM     13  C   UNL     1       4.878   6.022  16.654  0.00  0.00    +0.000 C 
ENDBRANCH   6  13
ENDBRANCH   1  11
BRANCH   4  14
ATOM     14  C   UNL     1       1.665   3.452  20.302  0.00  0.00    +0.000 C 
ATOM     15  C   UNL     1       1.673   2.683  21.632  0.00  0.00    +0.000 C 
ATOM     16  C   UNL     1       1.000   4.825  20.519  0.00  0.00    +0.000 C 
BRANCH  14  17
ATOM     17  C   UNL     1       0.896   2.701  19.294  0.00  0.00    +0.000 C 
ATOM     18  N   UNL     1       0.307   2.091  18.498  0.00  0.00    +0.000 NA
ENDBRANCH  14  17
ENDBRANCH   4  14
TORSDOF 4
ENDMDL
MODEL 2
REMARK VINA RESULT:      -7.2      1.151      1.530
REMARK  Name = 
REMARK  7 active torsions:
REMARK  status: ('A' for Active; 'I' for Inactive)
REMARK    1  A    between atoms: C_1  and  C_2
REMARK    2  A    between atoms: C_2  and  C_3
REMARK    3  A    between atoms: C_8  and  C_9
REMARK    4  A    between atoms: C_12  and  C_13
REMARK    5  A    between atoms: C_13  and  C_14
REMARK    6  A    between atoms: C_13  and  C_15
REMARK    7  A    between atoms: C_13  and  C_16
REMARK                            x       y       z     vdW  Elec       q    Type
REMARK                         _______ _______ _______ _____ _____    ______ ____
ROOT
ATOM      1  C   UNL     1       4.642   4.491  18.642  0.00  0.00    +0.000 A 
ATOM      2  N   UNL     1       4.393   3.423  17.863  0.00  0.00    +0.000 NA
ATOM      3  O   UNL     1       3.152   2.964  18.301  0.00  0.00    +0.000 OA
ATOM      4  C   UNL     1       2.765   3.796  19.310  0.00  0.00    +0.000 A 
ATOM      5  N   UNL     1       3.642   4.737  19.559  0.00  0.00    +0.000 NA
ENDROOT
BRANCH   1  11
ATOM      6  C   UNL     1       6.069   6.229  17.506  0.00  0.00    +0.000 A 
ATOM      7  C   UNL     1       7.264   6.964  17.525  0.00  0.00    +0.000 A 
ATOM      8  C   UNL     1       8.164   6.813  18.573  0.00  0.00    +0.000 A 
ATOM      9  C   UNL     1       7.845   5.925  19.582  0.00  0.00    +0.000 A 
ATOM     10  N   UNL     1       6.724   5.176  19.593  0.00  0.00    +0.000 NA
ATOM     11  C   UNL     1       5.847   5.325  18.559  0.00  0.00    +0.000 A 
BRANCH   6  13
ATOM     12  C   UNL     1       5.411   5.642  15.151  0.00  0.00    +0.000 C 
ATOM     13  C   UNL     1       5.089   6.482  16.383  0.00  0.00    +0.000 C 
ENDBRANCH   6  13
ENDBRANCH   1  11
BRANCH   4  14
ATOM     14  C   UNL     1       1.472   3.524  20.004  0.00  0.00    +0.000 C 
ATOM     15  C   UNL     1       0.751   4.843  20.320  0.00  0.00    +0.000 C 
ATOM     16  C   UNL     1       0.569   2.659  19.106  0.00  0.00    +0.000 C 
BRANCH  14  17
ATOM     17  C   UNL     1       1.747   2.792  21.253  0.00  0.00    +0.000 C 
ATOM     18  N   UNL     1       1.953   2.232  22.252  0.00  0.00    +0.000 NA
ENDBRANCH  14  17
ENDBRANCH   4  14
TORSDOF 4
ENDMDL
MODEL 3
REMARK VINA RESULT:      -6.7      1.446      2.654
REMARK  Name = 
REMARK  7 active torsions:
REMARK  status: ('A' for Active; 'I' for Inactive)
REMARK    1  A    between atoms: C_1  and  C_2
REMARK    2  A    between atoms: C_2  and  C_3
REMARK    3  A    between atoms: C_8  and  C_9
REMARK    4  A    between atoms: C_12  and  C_13
REMARK    5  A    between atoms: C_13  and  C_14
REMARK    6  A    between atoms: C_13  and  C_15
REMARK    7  A    between atoms: C_13  and  C_16
REMARK                            x       y       z     vdW  Elec       q    Type
REMARK                         _______ _______ _______ _____ _____    ______ ____
ROOT
ATOM      1  C   UNL     1       4.841   3.926  18.164  0.00  0.00    +0.000 A 
ATOM      2  N   UNL     1       5.429   3.539  19.311  0.00  0.00    +0.000 NA
ATOM      3  O   UNL     1       4.364   3.323  20.184  0.00  0.00    +0.000 OA
ATOM      4  C   UNL     1       3.226   3.605  19.484  0.00  0.00    +0.000 A 
ATOM      5  N   UNL     1       3.466   3.982  18.253  0.00  0.00    +0.000 NA
ENDROOT
BRANCH   1  11
ATOM      6  C   UNL     1       6.854   4.816  16.938  0.00  0.00    +0.000 A 
ATOM      7  C   UNL     1       7.435   5.118  15.696  0.00  0.00    +0.000 A 
ATOM      8  C   UNL     1       6.751   4.849  14.517  0.00  0.00    +0.000 A 
ATOM      9  C   UNL     1       5.494   4.282  14.608  0.00  0.00    +0.000 A 
ATOM     10  N   UNL     1       4.884   4.001  15.777  0.00  0.00    +0.000 NA
ATOM     11  C   UNL     1       5.558   4.270  16.931  0.00  0.00    +0.000 A 
BRANCH   6  13
ATOM     12  C   UNL     1       7.790   6.546  18.503  0.00  0.00    +0.000 C 
ATOM     13  C   UNL     1       7.667   5.059  18.188  0.00  0.00    +0.000 C 
ENDBRANCH   6  13
ENDBRANCH   1  11
BRANCH   4  14
ATOM     14  C   UNL     1       1.913   3.496  20.183  0.00  0.00    +0.000 C 
ATOM     15  C   UNL     1       2.075   2.729  21.503  0.00  0.00    +0.000 C 
ATOM     16  C   UNL     1       1.362   4.903  20.482  0.00  0.00    +0.000 C 
BRANCH  14  17
ATOM     17  C   UNL     1       0.964   2.787  19.306  0.00  0.00    +0.000 C 
ATOM     18  N   UNL     1       0.233   2.225  18.596  0.00  0.00    +0.000 NA
ENDBRANCH  14  17
ENDBRANCH   4  14
TORSDOF 4
ENDMDL
MODEL 4
REMARK VINA RESULT:      -6.7      1.236      1.670
REMARK  Name = 
REMARK  7 active torsions:
REMARK  status: ('A' for Active; 'I' for Inactive)
REMARK    1  A    between atoms: C_1  and  C_2
REMARK    2  A    between atoms: C_2  and  C_3
REMARK    3  A    between atoms: C_8  and  C_9
REMARK    4  A    between atoms: C_12  and  C_13
REMARK    5  A    between atoms: C_13  and  C_14
REMARK    6  A    between atoms: C_13  and  C_15
REMARK    7  A    between atoms: C_13  and  C_16
REMARK                            x       y       z     vdW  Elec       q    Type
REMARK                         _______ _______ _______ _____ _____    ______ ____
ROOT
ATOM      1  C   UNL     1       4.739   4.092  18.907  0.00  0.00    +0.000 A 
ATOM      2  N   UNL     1       4.948   2.858  19.400  0.00  0.00    +0.000 NA
ATOM      3  O   UNL     1       3.704   2.475  19.899  0.00  0.00    +0.000 OA
ATOM      4  C   UNL     1       2.855   3.518  19.665  0.00  0.00    +0.000 A 
ATOM      5  N   UNL     1       3.441   4.528  19.070  0.00  0.00    +0.000 NA
ENDROOT
BRANCH   1  11
ATOM      6  C   UNL     1       5.930   4.974  16.870  0.00  0.00    +0.000 A 
ATOM      7  C   UNL     1       6.955   5.794  16.370  0.00  0.00    +0.000 A 
ATOM      8  C   UNL     1       7.741   6.542  17.237  0.00  0.00    +0.000 A 
ATOM      9  C   UNL     1       7.483   6.452  18.591  0.00  0.00    +0.000 A 
ATOM     10  N   UNL     1       6.531   5.658  19.120  0.00  0.00    +0.000 NA
ATOM     11  C   UNL     1       5.765   4.923  18.265  0.00  0.00    +0.000 A 
BRANCH   6  13
ATOM     12  C   UNL     1       5.571   4.378  14.454  0.00  0.00    +0.000 C 
ATOM     13  C   UNL     1       5.055   4.237  15.883  0.00  0.00    +0.000 C 
ENDBRANCH   6  13
ENDBRANCH   1  11
BRANCH   4  14
ATOM     14  C   UNL     1       1.442   3.407  20.131  0.00  0.00    +0.000 C 
ATOM     15  C   UNL     1       0.829   4.804  20.304  0.00  0.00    +0.000 C 
ATOM     16  C   UNL     1       0.614   2.618  19.099  0.00  0.00    +0.000 C 
BRANCH  14  17
ATOM     17  C   UNL     1       1.419   2.686  21.416  0.00  0.00    +0.000 C 
ATOM     18  N   UNL     1       1.393   2.138  22.441  0.00  0.00    +0.000 NA
ENDBRANCH  14  17
ENDBRANCH   4  14
TORSDOF 4
ENDMDL
MODEL 5
REMARK VINA RESULT:      -6.7      1.733      2.972
REMARK  Name = 
REMARK  7 active torsions:
REMARK  status: ('A' for Active; 'I' for Inactive)
REMARK    1  A    between atoms: C_1  and  C_2
REMARK    2  A    between atoms: C_2  and  C_3
REMARK    3  A    between atoms: C_8  and  C_9
REMARK    4  A    between atoms: C_12  and  C_13
REMARK    5  A    between atoms: C_13  and  C_14
REMARK    6  A    between atoms: C_13  and  C_15
REMARK    7  A    between atoms: C_13  and  C_16
REMARK                            x       y       z     vdW  Elec       q    Type
REMARK                         _______ _______ _______ _____ _____    ______ ____
ROOT
ATOM      1  C   UNL     1       4.758   3.987  18.118  0.00  0.00    +0.000 A 
ATOM      2  N   UNL     1       5.266   3.430  19.232  0.00  0.00    +0.000 NA
ATOM      3  O   UNL     1       4.172   3.328  20.090  0.00  0.00    +0.000 OA
ATOM      4  C   UNL     1       3.102   3.838  19.416  0.00  0.00    +0.000 A 
ATOM      5  N   UNL     1       3.410   4.258  18.214  0.00  0.00    +0.000 NA
ENDROOT
BRANCH   1  11
ATOM      6  C   UNL     1       6.815   4.869  16.961  0.00  0.00    +0.000 A 
ATOM      7  C   UNL     1       7.454   5.135  15.739  0.00  0.00    +0.000 A 
ATOM      8  C   UNL     1       6.837   4.806  14.538  0.00  0.00    +0.000 A 
ATOM      9  C   UNL     1       5.588   4.216  14.589  0.00  0.00    +0.000 A 
ATOM     10  N   UNL     1       4.923   3.968  15.734  0.00  0.00    +0.000 NA
ATOM     11  C   UNL     1       5.532   4.297  16.909  0.00  0.00    +0.000 A 
BRANCH   6  13
ATOM     12  C   UNL     1       7.790   6.676  18.412  0.00  0.00    +0.000 C 
ATOM     13  C   UNL     1       7.557   5.178  18.240  0.00  0.00    +0.000 C 
ENDBRANCH   6  13
ENDBRANCH   1  11
BRANCH   4  14
ATOM     14  C   UNL     1       1.781   3.894  20.109  0.00  0.00    +0.000 C 
ATOM     15  C   UNL     1       1.447   5.340  20.500  0.00  0.00    +0.000 C 
ATOM     16  C   UNL     1       0.680   3.356  19.177  0.00  0.00    +0.000 C 
BRANCH  14  17
ATOM     17  C   UNL     1       1.841   3.050  21.316  0.00  0.00    +0.000 C 
ATOM     18  N   UNL     1       1.874   2.367  22.257  0.00  0.00    +0.000 NA
ENDBRANCH  14  17
ENDBRANCH   4  14
TORSDOF 4
ENDMDL
MODEL 6
REMARK VINA RESULT:      -6.6      1.787      6.006
REMARK  Name = 
REMARK  7 active torsions:
REMARK  status: ('A' for Active; 'I' for Inactive)
REMARK    1  A    between atoms: C_1  and  C_2
REMARK    2  A    between atoms: C_2  and  C_3
REMARK    3  A    between atoms: C_8  and  C_9
REMARK    4  A    between atoms: C_12  and  C_13
REMARK    5  A    between atoms: C_13  and  C_14
REMARK    6  A    between atoms: C_13  and  C_15
REMARK    7  A    between atoms: C_13  and  C_16
REMARK                            x       y       z     vdW  Elec       q    Type
REMARK                         _______ _______ _______ _____ _____    ______ ____
ROOT
ATOM      1  C   UNL     1       4.316   4.098  18.932  0.00  0.00    +0.000 A 
ATOM      2  N   UNL     1       5.424   3.623  19.528  0.00  0.00    +0.000 NA
ATOM      3  O   UNL     1       6.447   4.435  19.042  0.00  0.00    +0.000 OA
ATOM      4  C   UNL     1       5.862   5.327  18.191  0.00  0.00    +0.000 A 
ATOM      5  N   UNL     1       4.567   5.158  18.086  0.00  0.00    +0.000 NA
ENDROOT
BRANCH   1  11
ATOM      6  C   UNL     1       2.059   4.121  20.052  0.00  0.00    +0.000 A 
ATOM      7  C   UNL     1       0.797   3.516  20.165  0.00  0.00    +0.000 A 
ATOM      8  C   UNL     1       0.464   2.430  19.365  0.00  0.00    +0.000 A 
ATOM      9  C   UNL     1       1.407   1.972  18.465  0.00  0.00    +0.000 A 
ATOM     10  N   UNL     1       2.641   2.501  18.340  0.00  0.00    +0.000 NA
ATOM     11  C   UNL     1       2.963   3.563  19.131  0.00  0.00    +0.000 A 
BRANCH   6  13
ATOM     12  C   UNL     1       1.962   6.630  20.168  0.00  0.00    +0.000 C 
ATOM     13  C   UNL     1       2.347   5.343  20.891  0.00  0.00    +0.000 C 
ENDBRANCH   6  13
ENDBRANCH   1  11
BRANCH   4  14
ATOM     14  C   UNL     1       6.730   6.314  17.483  0.00  0.00    +0.000 C 
ATOM     15  C   UNL     1       5.932   7.584  17.155  0.00  0.00    +0.000 C 
ATOM     16  C   UNL     1       7.929   6.688  18.374  0.00  0.00    +0.000 C 
BRANCH  14  17
ATOM     17  C   UNL     1       7.230   5.702  16.239  0.00  0.00    +0.000 C 
ATOM     18  N   UNL     1       7.610   5.200  15.261  0.00  0.00    +0.000 NA
ENDBRANCH  14  17
ENDBRANCH   4  14
TORSDOF 4
ENDMDL
MODEL 7
REMARK VINA RESULT:      -6.6      1.571      2.975
REMARK  Name = 
REMARK  7 active torsions:
REMARK  status: ('A' for Active; 'I' for Inactive)
REMARK    1  A    between atoms: C_1  and  C_2
REMARK    2  A    between atoms: C_2  and  C_3
REMARK    3  A    between atoms: C_8  and  C_9
REMARK    4  A    between atoms: C_12  and  C_13
REMARK    5  A    between atoms: C_13  and  C_14
REMARK    6  A    between atoms: C_13  and  C_15
REMARK    7  A    between atoms: C_13  and  C_16
REMARK                            x       y       z     vdW  Elec       q    Type
REMARK                         _______ _______ _______ _____ _____    ______ ____
ROOT
ATOM      1  C   UNL     1       4.878   3.997  18.286  0.00  0.00    +0.000 A 
ATOM      2  N   UNL     1       5.342   3.264  19.314  0.00  0.00    +0.000 NA
ATOM      3  O   UNL     1       4.272   3.212  20.205  0.00  0.00    +0.000 OA
ATOM      4  C   UNL     1       3.258   3.924  19.635  0.00  0.00    +0.000 A 
ATOM      5  N   UNL     1       3.581   4.428  18.470  0.00  0.00    +0.000 NA
ENDROOT
BRANCH   1  11
ATOM      6  C   UNL     1       6.687   5.280  17.090  0.00  0.00    +0.000 A 
ATOM      7  C   UNL     1       7.344   5.530  15.875  0.00  0.00    +0.000 A 
ATOM      8  C   UNL     1       6.986   4.832  14.727  0.00  0.00    +0.000 A 
ATOM      9  C   UNL     1       5.974   3.897  14.824  0.00  0.00    +0.000 A 
ATOM     10  N   UNL     1       5.295   3.643  15.960  0.00  0.00    +0.000 NA
ATOM     11  C   UNL     1       5.648   4.334  17.082  0.00  0.00    +0.000 A 
BRANCH   6  13
ATOM     12  C   UNL     1       7.773   7.365  17.981  0.00  0.00    +0.000 C 
ATOM     13  C   UNL     1       7.161   6.010  18.325  0.00  0.00    +0.000 C 
ENDBRANCH   6  13
ENDBRANCH   1  11
BRANCH   4  14
ATOM     14  C   UNL     1       1.979   4.074  20.389  0.00  0.00    +0.000 C 
ATOM     15  C   UNL     1       0.818   3.463  19.591  0.00  0.00    +0.000 C 
ATOM     16  C   UNL     1       2.087   3.358  21.749  0.00  0.00    +0.000 C 
BRANCH  14  17
ATOM     17  C   UNL     1       1.727   5.507  20.621  0.00  0.00    +0.000 C 
ATOM     18  N   UNL     1       1.509   6.633  20.818  0.00  0.00    +0.000 NA
ENDBRANCH  14  17
ENDBRANCH   4  14
TORSDOF 4
ENDMDL
MODEL 8
REMARK VINA RESULT:      -6.6      2.140      5.927
REMARK  Name = 
REMARK  7 active torsions:
REMARK  status: ('A' for Active; 'I' for Inactive)
REMARK    1  A    between atoms: C_1  and  C_2
REMARK    2  A    between atoms: C_2  and  C_3
REMARK    3  A    between atoms: C_8  and  C_9
REMARK    4  A    between atoms: C_12  and  C_13
REMARK    5  A    between atoms: C_13  and  C_14
REMARK    6  A    between atoms: C_13  and  C_15
REMARK    7  A    between atoms: C_13  and  C_16
REMARK                            x       y       z     vdW  Elec       q    Type
REMARK                         _______ _______ _______ _____ _____    ______ ____
ROOT
ATOM      1  C   UNL     1       3.775   5.193  18.743  0.00  0.00    +0.000 A 
ATOM      2  N   UNL     1       3.399   6.244  17.993  0.00  0.00    +0.000 NA
ATOM      3  O   UNL     1       4.592   6.727  17.459  0.00  0.00    +0.000 OA
ATOM      4  C   UNL     1       5.585   5.923  17.941  0.00  0.00    +0.000 A 
ATOM      5  N   UNL     1       5.137   4.980  18.732  0.00  0.00    +0.000 NA
ENDROOT
BRANCH   1  11
ATOM      6  C   UNL     1       2.347   3.135  19.013  0.00  0.00    +0.000 A 
ATOM      7  C   UNL     1       1.468   2.414  19.837  0.00  0.00    +0.000 A 
ATOM      8  C   UNL     1       1.157   2.878  21.109  0.00  0.00    +0.000 A 
ATOM      9  C   UNL     1       1.736   4.061  21.528  0.00  0.00    +0.000 A 
ATOM     10  N   UNL     1       2.561   4.803  20.764  0.00  0.00    +0.000 NA
ATOM     11  C   UNL     1       2.859   4.344  19.515  0.00  0.00    +0.000 A 
BRANCH   6  13
ATOM     12  C   UNL     1       3.758   1.449  17.793  0.00  0.00    +0.000 C 
ATOM     13  C   UNL     1       2.710   2.552  17.667  0.00  0.00    +0.000 C 
ENDBRANCH   6  13
ENDBRANCH   1  11
BRANCH   4  14
ATOM     14  C   UNL     1       6.996   6.226  17.563  0.00  0.00    +0.000 C 
ATOM     15  C   UNL     1       7.217   7.745  17.508  0.00  0.00    +0.000 C 
ATOM     16  C   UNL     1       7.957   5.615  18.599  0.00  0.00    +0.000 C 
BRANCH  14  17
ATOM     17  C   UNL     1       7.274   5.632  16.243  0.00  0.00    +0.000 C 
ATOM     18  N   UNL     1       7.511   5.180  15.198  0.00  0.00    +0.000 NA
ENDBRANCH  14  17
ENDBRANCH   4  14
TORSDOF 4
ENDMDL
MODEL 9
REMARK VINA RESULT:      -6.6      2.246      6.226
REMARK  Name = 
REMARK  7 active torsions:
REMARK  status: ('A' for Active; 'I' for Inactive)
REMARK    1  A    between atoms: C_1  and  C_2
REMARK    2  A    between atoms: C_2  and  C_3
REMARK    3  A    between atoms: C_8  and  C_9
REMARK    4  A    between atoms: C_12  and  C_13
REMARK    5  A    between atoms: C_13  and  C_14
REMARK    6  A    between atoms: C_13  and  C_15
REMARK    7  A    between atoms: C_13  and  C_16
REMARK                            x       y       z     vdW  Elec       q    Type
REMARK                         _______ _______ _______ _____ _____    ______ ____
ROOT
ATOM      1  C   UNL     1       3.607   5.053  18.145  0.00  0.00    +0.000 A 
ATOM      2  N   UNL     1       3.427   6.259  17.576  0.00  0.00    +0.000 NA
ATOM      3  O   UNL     1       4.699   6.622  17.137  0.00  0.00    +0.000 OA
ATOM      4  C   UNL     1       5.535   5.602  17.486  0.00  0.00    +0.000 A 
ATOM      5  N   UNL     1       4.918   4.627  18.107  0.00  0.00    +0.000 NA
ENDROOT
BRANCH   1  11
ATOM      6  C   UNL     1       2.004   4.553  20.022  0.00  0.00    +0.000 A 
ATOM      7  C   UNL     1       0.999   3.705  20.517  0.00  0.00    +0.000 A 
ATOM      8  C   UNL     1       0.549   2.634  19.756  0.00  0.00    +0.000 A 
ATOM      9  C   UNL     1       1.117   2.434  18.512  0.00  0.00    +0.000 A 
ATOM     10  N   UNL     1       2.103   3.202  18.008  0.00  0.00    +0.000 NA
ATOM     11  C   UNL     1       2.544   4.250  18.760  0.00  0.00    +0.000 A 
BRANCH   6  13
ATOM     12  C   UNL     1       1.492   6.943  20.612  0.00  0.00    +0.000 C 
ATOM     13  C   UNL     1       2.408   5.747  20.855  0.00  0.00    +0.000 C 
ENDBRANCH   6  13
ENDBRANCH   1  11
BRANCH   4  14
ATOM     14  C   UNL     1       6.988   5.729  17.171  0.00  0.00    +0.000 C 
ATOM     15  C   UNL     1       7.481   7.144  17.506  0.00  0.00    +0.000 C 
ATOM     16  C   UNL     1       7.793   4.707  17.996  0.00  0.00    +0.000 C 
BRANCH  14  17
ATOM     17  C   UNL     1       7.191   5.455  15.738  0.00  0.00    +0.000 C 
ATOM     18  N   UNL     1       7.376   5.231  14.611  0.00  0.00    +0.000 NA
ENDBRANCH  14  17
ENDBRANCH   4  14
TORSDOF 4
ENDMDL
