MODEL 1
REMARK VINA RESULT:      -6.8      0.000      0.000
REMARK  Name = 
REMARK  8 active torsions:
REMARK  status: ('A' for Active; 'I' for Inactive)
REMARK    1  A    between atoms: C_1  and  C_2
REMARK    2  A    between atoms: C_7  and  N_8
REMARK    3  A    between atoms: C_9  and  S_10
REMARK    4  A    between atoms: N_11  and  C_12
REMARK    5  A    between atoms: C_12  and  N_13
REMARK    6  A    between atoms: C_12  and  C_23
REMARK    7  A    between atoms: C_14  and  C_16
REMARK    8  A    between atoms: C_21  and  C_22
REMARK                            x       y       z     vdW  Elec       q    Type
REMARK                         _______ _______ _______ _____ _____    ______ ____
ROOT
ATOM      1  C   UNL     1       3.140   3.944  18.931  0.00  0.00    +0.000 C 
ENDROOT
BRANCH   1   4
ATOM      2  N   UNL     1       5.401   5.414  18.246  0.00  0.00    +0.000 NA
ATOM      3  C   UNL     1       5.106   4.448  17.452  0.00  0.00    +0.000 C 
ATOM      4  N   UNL     1       3.997   3.634  17.777  0.00  0.00    +0.000 N 
ATOM      5  H   UNL     1       3.784   2.788  17.257  0.00  0.00    +0.000 HD
BRANCH   2  12
ATOM      6  C   UNL     1       8.035   5.272  19.804  0.00  0.00    +0.000 C 
ATOM      7  C   UNL     1       7.633   6.356  18.845  0.00  0.00    +0.000 A 
ATOM      8  C   UNL     1       8.515   7.452  18.726  0.00  0.00    +0.000 A 
ATOM      9  C   UNL     1       8.213   8.536  17.906  0.00  0.00    +0.000 A 
ATOM     10  C   UNL     1       7.047   8.521  17.154  0.00  0.00    +0.000 A 
ATOM     11  C   UNL     1       6.184   7.423  17.233  0.00  0.00    +0.000 A 
ATOM     12  C   UNL     1       6.451   6.332  18.078  0.00  0.00    +0.000 A 
ENDBRANCH   2  12
BRANCH   3  13
ATOM     13  S   UNL     1       5.853   3.936  15.985  0.00  0.00    +0.000 S 
ATOM     14  H   UNL     1       7.015   3.572  16.548  0.00  0.00    +0.000 HD
ENDBRANCH   3  13
ENDBRANCH   1   4
BRANCH   1  15
ATOM     15  N   UNL     1       2.628   5.298  18.753  0.00  0.00    +0.000 N 
ATOM     16  C   UNL     1       2.455   6.176  19.800  0.00  0.00    +0.000 C 
ATOM     17  O   UNL     1       2.563   5.802  20.957  0.00  0.00    +0.000 OA
ATOM     18  H   UNL     1       2.440   5.611  17.810  0.00  0.00    +0.000 HD
BRANCH  16  19
ATOM     19  C   UNL     1       2.051   7.557  19.393  0.00  0.00    +0.000 A 
ATOM     20  C   UNL     1       2.425   8.016  18.117  0.00  0.00    +0.000 A 
ATOM     21  C   UNL     1       1.952   9.237  17.635  0.00  0.00    +0.000 A 
ATOM     22  C   UNL     1       1.116  10.015  18.426  0.00  0.00    +0.000 A 
ATOM     23  C   UNL     1       0.790   9.598  19.718  0.00  0.00    +0.000 A 
ATOM     24  C   UNL     1       1.262   8.374  20.227  0.00  0.00    +0.000 A 
ATOM     25  C   UNL     1       0.929   8.007  21.644  0.00  0.00    +0.000 C 
ENDBRANCH  16  19
ENDBRANCH   1  15
BRANCH   1  26
ATOM     26  C   UNL     1       2.086   2.796  19.296  0.00  0.00    +0.000 C 
ATOM     27 CL   UNL     1       0.462   3.053  18.559  0.00  0.00    +0.000 Cl
ATOM     28 CL   UNL     1       2.707   1.198  18.698  0.00  0.00    +0.000 Cl
ATOM     29 CL   UNL     1       1.841   2.580  21.073  0.00  0.00    +0.000 Cl
ENDBRANCH   1  26
TORSDOF 6
ENDMDL
MODEL 2
REMARK VINA RESULT:      -6.6      6.847      9.196
REMARK  Name = 
REMARK  8 active torsions:
REMARK  status: ('A' for Active; 'I' for Inactive)
REMARK    1  A    between atoms: C_1  and  C_2
REMARK    2  A    between atoms: C_7  and  N_8
REMARK    3  A    between atoms: C_9  and  S_10
REMARK    4  A    between atoms: N_11  and  C_12
REMARK    5  A    between atoms: C_12  and  N_13
REMARK    6  A    between atoms: C_12  and  C_23
REMARK    7  A    between atoms: C_14  and  C_16
REMARK    8  A    between atoms: C_21  and  C_22
REMARK                            x       y       z     vdW  Elec       q    Type
REMARK                         _______ _______ _______ _____ _____    ______ ____
ROOT
ATOM      1  C   UNL     1      -1.875  13.459  20.108  0.00  0.00    +0.000 C 
ENDROOT
BRANCH   1   4
ATOM      2  N   UNL     1      -0.643  11.028  19.550  0.00  0.00    +0.000 NA
ATOM      3  C   UNL     1      -1.732  11.257  18.908  0.00  0.00    +0.000 C 
ATOM      4  N   UNL     1      -2.431  12.453  19.189  0.00  0.00    +0.000 N 
ATOM      5  H   UNL     1      -3.352  12.637  18.805  0.00  0.00    +0.000 HD
BRANCH   2  12
ATOM      6  C   UNL     1       0.054   9.106  21.832  0.00  0.00    +0.000 C 
ATOM      7  C   UNL     1       0.610   9.060  20.438  0.00  0.00    +0.000 A 
ATOM      8  C   UNL     1       1.613   8.098  20.189  0.00  0.00    +0.000 A 
ATOM      9  C   UNL     1       2.234   8.005  18.946  0.00  0.00    +0.000 A 
ATOM     10  C   UNL     1       1.829   8.841  17.916  0.00  0.00    +0.000 A 
ATOM     11  C   UNL     1       0.808   9.772  18.138  0.00  0.00    +0.000 A 
ATOM     12  C   UNL     1       0.189   9.906  19.392  0.00  0.00    +0.000 A 
ENDBRANCH   2  12
BRANCH   3  13
ATOM     13  S   UNL     1      -2.541  10.325  17.705  0.00  0.00    +0.000 S 
ATOM     14  H   UNL     1      -3.781  10.590  18.142  0.00  0.00    +0.000 HD
ENDBRANCH   3  13
ENDBRANCH   1   4
BRANCH   1  15
ATOM     15  N   UNL     1      -0.882  14.232  19.373  0.00  0.00    +0.000 N 
ATOM     16  C   UNL     1       0.362  14.531  19.885  0.00  0.00    +0.000 C 
ATOM     17  O   UNL     1       0.629  14.306  21.055  0.00  0.00    +0.000 OA
ATOM     18  H   UNL     1      -1.108  14.515  18.429  0.00  0.00    +0.000 HD
BRANCH  16  19
ATOM     19  C   UNL     1       1.281  15.214  18.924  0.00  0.00    +0.000 A 
ATOM     20  C   UNL     1       1.071  16.578  18.649  0.00  0.00    +0.000 A 
ATOM     21  C   UNL     1       1.983  17.295  17.875  0.00  0.00    +0.000 A 
ATOM     22  C   UNL     1       3.103  16.655  17.357  0.00  0.00    +0.000 A 
ATOM     23  C   UNL     1       3.287  15.287  17.571  0.00  0.00    +0.000 A 
ATOM     24  C   UNL     1       2.376  14.544  18.344  0.00  0.00    +0.000 A 
ATOM     25  C   UNL     1       2.594  13.066  18.489  0.00  0.00    +0.000 C 
ENDBRANCH  16  19
ENDBRANCH   1  15
BRANCH   1  26
ATOM     26  C   UNL     1      -2.977  14.268  20.942  0.00  0.00    +0.000 C 
ATOM     27 CL   UNL     1      -4.661  13.705  20.637  0.00  0.00    +0.000 Cl
ATOM     28 CL   UNL     1      -2.652  14.073  22.717  0.00  0.00    +0.000 Cl
ATOM     29 CL   UNL     1      -2.943  16.049  20.640  0.00  0.00    +0.000 Cl
ENDBRANCH   1  26
TORSDOF 6
ENDMDL
MODEL 3
REMARK VINA RESULT:      -6.6      6.720      9.030
REMARK  Name = 
REMARK  8 active torsions:
REMARK  status: ('A' for Active; 'I' for Inactive)
REMARK    1  A    between atoms: C_1  and  C_2
REMARK    2  A    between atoms: C_7  and  N_8
REMARK    3  A    between atoms: C_9  and  S_10
REMARK    4  A    between atoms: N_11  and  C_12
REMARK    5  A    between atoms: C_12  and  N_13
REMARK    6  A    between atoms: C_12  and  C_23
REMARK    7  A    between atoms: C_14  and  C_16
REMARK    8  A    between atoms: C_21  and  C_22
REMARK                            x       y       z     vdW  Elec       q    Type
REMARK                         _______ _______ _______ _____ _____    ______ ____
ROOT
ATOM      1  C   UNL     1      -1.820  13.263  20.043  0.00  0.00    +0.000 C 
ENDROOT
BRANCH   1   4
ATOM      2  N   UNL     1      -0.538  10.862  19.467  0.00  0.00    +0.000 NA
ATOM      3  C   UNL     1      -1.626  11.079  18.819  0.00  0.00    +0.000 C 
ATOM      4  N   UNL     1      -2.349  12.259  19.107  0.00  0.00    +0.000 N 
ATOM      5  H   UNL     1      -3.270  12.430  18.717  0.00  0.00    +0.000 HD
BRANCH   2  12
ATOM      6  C   UNL     1       0.114   8.883  21.714  0.00  0.00    +0.000 C 
ATOM      7  C   UNL     1       0.715   8.886  20.338  0.00  0.00    +0.000 A 
ATOM      8  C   UNL     1       1.740   7.946  20.094  0.00  0.00    +0.000 A 
ATOM      9  C   UNL     1       2.401   7.899  18.870  0.00  0.00    +0.000 A 
ATOM     10  C   UNL     1       2.017   8.759  17.852  0.00  0.00    +0.000 A 
ATOM     11  C   UNL     1       0.976   9.669  18.067  0.00  0.00    +0.000 A 
ATOM     12  C   UNL     1       0.315   9.757  19.304  0.00  0.00    +0.000 A 
ENDBRANCH   2  12
BRANCH   3  13
ATOM     13  S   UNL     1      -2.407  10.147  17.597  0.00  0.00    +0.000 S 
ATOM     14  H   UNL     1      -2.773   9.143  18.408  0.00  0.00    +0.000 HD
ENDBRANCH   3  13
ENDBRANCH   1   4
BRANCH   1  15
ATOM     15  N   UNL     1      -0.846  14.073  19.322  0.00  0.00    +0.000 N 
ATOM     16  C   UNL     1       0.365  14.446  19.863  0.00  0.00    +0.000 C 
ATOM     17  O   UNL     1       0.610  14.255  21.044  0.00  0.00    +0.000 OA
ATOM     18  H   UNL     1      -1.059  14.328  18.367  0.00  0.00    +0.000 HD
BRANCH  16  19
ATOM     19  C   UNL     1       1.277  15.158  18.915  0.00  0.00    +0.000 A 
ATOM     20  C   UNL     1       1.046  16.522  18.661  0.00  0.00    +0.000 A 
ATOM     21  C   UNL     1       1.948  17.266  17.901  0.00  0.00    +0.000 A 
ATOM     22  C   UNL     1       3.080  16.652  17.376  0.00  0.00    +0.000 A 
ATOM     23  C   UNL     1       3.284  15.284  17.570  0.00  0.00    +0.000 A 
ATOM     24  C   UNL     1       2.383  14.515  18.328  0.00  0.00    +0.000 A 
ATOM     25  C   UNL     1       2.624  13.038  18.450  0.00  0.00    +0.000 C 
ENDBRANCH  16  19
ENDBRANCH   1  15
BRANCH   1  26
ATOM     26  C   UNL     1      -2.943  14.030  20.888  0.00  0.00    +0.000 C 
ATOM     27 CL   UNL     1      -2.936  15.814  20.634  0.00  0.00    +0.000 Cl
ATOM     28 CL   UNL     1      -4.582  13.419  20.404  0.00  0.00    +0.000 Cl
ATOM     29 CL   UNL     1      -2.829  13.740  22.667  0.00  0.00    +0.000 Cl
ENDBRANCH   1  26
TORSDOF 6
ENDMDL
MODEL 4
REMARK VINA RESULT:      -6.6      0.280      1.076
REMARK  Name = 
REMARK  8 active torsions:
REMARK  status: ('A' for Active; 'I' for Inactive)
REMARK    1  A    between atoms: C_1  and  C_2
REMARK    2  A    between atoms: C_7  and  N_8
REMARK    3  A    between atoms: C_9  and  S_10
REMARK    4  A    between atoms: N_11  and  C_12
REMARK    5  A    between atoms: C_12  and  N_13
REMARK    6  A    between atoms: C_12  and  C_23
REMARK    7  A    between atoms: C_14  and  C_16
REMARK    8  A    between atoms: C_21  and  C_22
REMARK                            x       y       z     vdW  Elec       q    Type
REMARK                         _______ _______ _______ _____ _____    ______ ____
ROOT
ATOM      1  C   UNL     1       3.088   4.028  19.201  0.00  0.00    +0.000 C 
ENDROOT
BRANCH   1   4
ATOM      2  N   UNL     1       5.353   5.431  18.398  0.00  0.00    +0.000 NA
ATOM      3  C   UNL     1       5.028   4.432  17.658  0.00  0.00    +0.000 C 
ATOM      4  N   UNL     1       3.917   3.649  18.046  0.00  0.00    +0.000 N 
ATOM      5  H   UNL     1       3.682   2.783  17.573  0.00  0.00    +0.000 HD
BRANCH   2  12
ATOM      6  C   UNL     1       8.044   5.284  19.855  0.00  0.00    +0.000 C 
ATOM      7  C   UNL     1       7.622   6.349  18.882  0.00  0.00    +0.000 A 
ATOM      8  C   UNL     1       8.517   7.425  18.698  0.00  0.00    +0.000 A 
ATOM      9  C   UNL     1       8.202   8.491  17.859  0.00  0.00    +0.000 A 
ATOM     10  C   UNL     1       7.007   8.476  17.154  0.00  0.00    +0.000 A 
ATOM     11  C   UNL     1       6.130   7.397  17.298  0.00  0.00    +0.000 A 
ATOM     12  C   UNL     1       6.411   6.324  18.162  0.00  0.00    +0.000 A 
ENDBRANCH   2  12
BRANCH   3  13
ATOM     13  S   UNL     1       5.737   3.838  16.203  0.00  0.00    +0.000 S 
ATOM     14  H   UNL     1       5.130   2.643  16.237  0.00  0.00    +0.000 HD
ENDBRANCH   3  13
ENDBRANCH   1   4
BRANCH   1  15
ATOM     15  N   UNL     1       2.580   5.373  18.961  0.00  0.00    +0.000 N 
ATOM     16  C   UNL     1       2.358   6.281  19.973  0.00  0.00    +0.000 C 
ATOM     17  O   UNL     1       2.417   5.941  21.144  0.00  0.00    +0.000 OA
ATOM     18  H   UNL     1       2.431   5.657  18.002  0.00  0.00    +0.000 HD
BRANCH  16  19
ATOM     19  C   UNL     1       1.966   7.647  19.508  0.00  0.00    +0.000 A 
ATOM     20  C   UNL     1       2.294   8.028  18.194  0.00  0.00    +0.000 A 
ATOM     21  C   UNL     1       1.827   9.231  17.666  0.00  0.00    +0.000 A 
ATOM     22  C   UNL     1       1.042  10.071  18.448  0.00  0.00    +0.000 A 
ATOM     23  C   UNL     1       0.765   9.732  19.773  0.00  0.00    +0.000 A 
ATOM     24  C   UNL     1       1.232   8.526  20.328  0.00  0.00    +0.000 A 
ATOM     25  C   UNL     1       0.953   8.244  21.776  0.00  0.00    +0.000 C 
ENDBRANCH  16  19
ENDBRANCH   1  15
BRANCH   1  26
ATOM     26  C   UNL     1       2.037   2.908  19.653  0.00  0.00    +0.000 C 
ATOM     27 CL   UNL     1       2.105   2.531  21.413  0.00  0.00    +0.000 Cl
ATOM     28 CL   UNL     1       0.354   3.479  19.284  0.00  0.00    +0.000 Cl
ATOM     29 CL   UNL     1       2.220   1.348  18.761  0.00  0.00    +0.000 Cl
ENDBRANCH   1  26
TORSDOF 6
ENDMDL
MODEL 5
REMARK VINA RESULT:      -6.5      6.355      8.484
REMARK  Name = 
REMARK  8 active torsions:
REMARK  status: ('A' for Active; 'I' for Inactive)
REMARK    1  A    between atoms: C_1  and  C_2
REMARK    2  A    between atoms: C_7  and  N_8
REMARK    3  A    between atoms: C_9  and  S_10
REMARK    4  A    between atoms: N_11  and  C_12
REMARK    5  A    between atoms: C_12  and  N_13
REMARK    6  A    between atoms: C_12  and  C_23
REMARK    7  A    between atoms: C_14  and  C_16
REMARK    8  A    between atoms: C_21  and  C_22
REMARK                            x       y       z     vdW  Elec       q    Type
REMARK                         _______ _______ _______ _____ _____    ______ ____
ROOT
ATOM      1  C   UNL     1      -0.908  12.787  20.955  0.00  0.00    +0.000 C 
ENDROOT
BRANCH   1   4
ATOM      2  N   UNL     1       0.142  10.470  19.828  0.00  0.00    +0.000 NA
ATOM      3  C   UNL     1      -1.012  10.825  19.390  0.00  0.00    +0.000 C 
ATOM      4  N   UNL     1      -1.619  11.966  19.963  0.00  0.00    +0.000 N 
ATOM      5  H   UNL     1      -2.575  12.229  19.745  0.00  0.00    +0.000 HD
BRANCH   2  12
ATOM      6  C   UNL     1       0.916   8.089  21.594  0.00  0.00    +0.000 C 
ATOM      7  C   UNL     1       1.358   8.318  20.177  0.00  0.00    +0.000 A 
ATOM      8  C   UNL     1       2.287   7.396  19.648  0.00  0.00    +0.000 A 
ATOM      9  C   UNL     1       2.802   7.545  18.363  0.00  0.00    +0.000 A 
ATOM     10  C   UNL     1       2.360   8.592  17.567  0.00  0.00    +0.000 A 
ATOM     11  C   UNL     1       1.410   9.490  18.065  0.00  0.00    +0.000 A 
ATOM     12  C   UNL     1       0.899   9.378  19.370  0.00  0.00    +0.000 A 
ENDBRANCH   2  12
BRANCH   3  13
ATOM     13  S   UNL     1      -2.010  10.131  18.167  0.00  0.00    +0.000 S 
ATOM     14  H   UNL     1      -2.738   9.376  19.003  0.00  0.00    +0.000 HD
ENDBRANCH   3  13
ENDBRANCH   1   4
BRANCH   1  15
ATOM     15  N   UNL     1      -0.069  13.733  20.230  0.00  0.00    +0.000 N 
ATOM     16  C   UNL     1       1.286  13.852  20.448  0.00  0.00    +0.000 C 
ATOM     17  O   UNL     1       1.822  13.284  21.387  0.00  0.00    +0.000 OA
ATOM     18  H   UNL     1      -0.502  14.288  19.503  0.00  0.00    +0.000 HD
BRANCH  16  19
ATOM     19  C   UNL     1       1.988  14.780  19.509  0.00  0.00    +0.000 A 
ATOM     20  C   UNL     1       1.954  16.160  19.780  0.00  0.00    +0.000 A 
ATOM     21  C   UNL     1       2.710  17.052  19.020  0.00  0.00    +0.000 A 
ATOM     22  C   UNL     1       3.494  16.577  17.975  0.00  0.00    +0.000 A 
ATOM     23  C   UNL     1       3.485  15.217  17.658  0.00  0.00    +0.000 A 
ATOM     24  C   UNL     1       2.725  14.302  18.408  0.00  0.00    +0.000 A 
ATOM     25  C   UNL     1       2.707  12.862  17.982  0.00  0.00    +0.000 C 
ENDBRANCH  16  19
ENDBRANCH   1  15
BRANCH   1  26
ATOM     26  C   UNL     1      -1.840  13.365  22.121  0.00  0.00    +0.000 C 
ATOM     27 CL   UNL     1      -3.247  14.310  21.510  0.00  0.00    +0.000 Cl
ATOM     28 CL   UNL     1      -2.497  11.988  23.104  0.00  0.00    +0.000 Cl
ATOM     29 CL   UNL     1      -0.956  14.415  23.296  0.00  0.00    +0.000 Cl
ENDBRANCH   1  26
TORSDOF 6
ENDMDL
MODEL 6
REMARK VINA RESULT:      -6.4      6.011      9.605
REMARK  Name = 
REMARK  8 active torsions:
REMARK  status: ('A' for Active; 'I' for Inactive)
REMARK    1  A    between atoms: C_1  and  C_2
REMARK    2  A    between atoms: C_7  and  N_8
REMARK    3  A    between atoms: C_9  and  S_10
REMARK    4  A    between atoms: N_11  and  C_12
REMARK    5  A    between atoms: C_12  and  N_13
REMARK    6  A    between atoms: C_12  and  C_23
REMARK    7  A    between atoms: C_14  and  C_16
REMARK    8  A    between atoms: C_21  and  C_22
REMARK                            x       y       z     vdW  Elec       q    Type
REMARK                         _______ _______ _______ _____ _____    ______ ____
ROOT
ATOM      1  C   UNL     1      -0.271  10.712  18.519  0.00  0.00    +0.000 C 
ENDROOT
BRANCH   1   4
ATOM      2  N   UNL     1      -2.987  11.315  18.524  0.00  0.00    +0.000 NA
ATOM      3  C   UNL     1      -2.481  11.046  17.374  0.00  0.00    +0.000 C 
ATOM      4  N   UNL     1      -1.094  10.783  17.302  0.00  0.00    +0.000 N 
ATOM      5  H   UNL     1      -0.615  10.681  16.413  0.00  0.00    +0.000 HD
BRANCH   2  12
ATOM      6  C   UNL     1      -3.927  13.428  20.534  0.00  0.00    +0.000 C 
ATOM      7  C   UNL     1      -4.808  12.476  19.775  0.00  0.00    +0.000 A 
ATOM      8  C   UNL     1      -6.183  12.502  20.090  0.00  0.00    +0.000 A 
ATOM      9  C   UNL     1      -7.080  11.625  19.485  0.00  0.00    +0.000 A 
ATOM     10  C   UNL     1      -6.624  10.740  18.519  0.00  0.00    +0.000 A 
ATOM     11  C   UNL     1      -5.269  10.732  18.169  0.00  0.00    +0.000 A 
ATOM     12  C   UNL     1      -4.340  11.585  18.788  0.00  0.00    +0.000 A 
ENDBRANCH   2  12
BRANCH   3  13
ATOM     13  S   UNL     1      -3.221  10.942  15.820  0.00  0.00    +0.000 S 
ATOM     14  H   UNL     1      -2.457  11.883  15.246  0.00  0.00    +0.000 HD
ENDBRANCH   3  13
ENDBRANCH   1   4
BRANCH   1  15
ATOM     15  N   UNL     1       0.752   9.696  18.304  0.00  0.00    +0.000 N 
ATOM     16  C   UNL     1       1.274   8.933  19.326  0.00  0.00    +0.000 C 
ATOM     17  O   UNL     1       1.025   9.191  20.493  0.00  0.00    +0.000 OA
ATOM     18  H   UNL     1       1.050   9.518  17.354  0.00  0.00    +0.000 HD
BRANCH  16  19
ATOM     19  C   UNL     1       2.210   7.855  18.881  0.00  0.00    +0.000 A 
ATOM     20  C   UNL     1       2.989   8.075  17.730  0.00  0.00    +0.000 A 
ATOM     21  C   UNL     1       3.977   7.166  17.355  0.00  0.00    +0.000 A 
ATOM     22  C   UNL     1       4.188   6.022  18.117  0.00  0.00    +0.000 A 
ATOM     23  C   UNL     1       3.378   5.762  19.224  0.00  0.00    +0.000 A 
ATOM     24  C   UNL     1       2.371   6.664  19.615  0.00  0.00    +0.000 A 
ATOM     25  C   UNL     1       1.492   6.301  20.778  0.00  0.00    +0.000 C 
ENDBRANCH  16  19
ENDBRANCH   1  15
BRANCH   1  26
ATOM     26  C   UNL     1       0.204  12.136  19.076  0.00  0.00    +0.000 C 
ATOM     27 CL   UNL     1      -0.203  12.397  20.812  0.00  0.00    +0.000 Cl
ATOM     28 CL   UNL     1       2.007  12.273  18.914  0.00  0.00    +0.000 Cl
ATOM     29 CL   UNL     1      -0.469  13.533  18.150  0.00  0.00    +0.000 Cl
ENDBRANCH   1  26
TORSDOF 6
ENDMDL
MODEL 7
REMARK VINA RESULT:      -6.3      6.040      8.746
REMARK  Name = 
REMARK  8 active torsions:
REMARK  status: ('A' for Active; 'I' for Inactive)
REMARK    1  A    between atoms: C_1  and  C_2
REMARK    2  A    between atoms: C_7  and  N_8
REMARK    3  A    between atoms: C_9  and  S_10
REMARK    4  A    between atoms: N_11  and  C_12
REMARK    5  A    between atoms: C_12  and  N_13
REMARK    6  A    between atoms: C_12  and  C_23
REMARK    7  A    between atoms: C_14  and  C_16
REMARK    8  A    between atoms: C_21  and  C_22
REMARK                            x       y       z     vdW  Elec       q    Type
REMARK                         _______ _______ _______ _____ _____    ______ ____
ROOT
ATOM      1  C   UNL     1      -1.176  11.224  18.407  0.00  0.00    +0.000 C 
ENDROOT
BRANCH   1   4
ATOM      2  N   UNL     1      -0.327  13.844  18.796  0.00  0.00    +0.000 NA
ATOM      3  C   UNL     1      -0.628  13.195  19.863  0.00  0.00    +0.000 C 
ATOM      4  N   UNL     1      -1.116  11.875  19.724  0.00  0.00    +0.000 N 
ATOM      5  H   UNL     1      -1.481  11.354  20.515  0.00  0.00    +0.000 HD
BRANCH   2  12
ATOM      6  C   UNL     1       2.662  14.483  18.584  0.00  0.00    +0.000 C 
ATOM      7  C   UNL     1       1.553  15.485  18.745  0.00  0.00    +0.000 A 
ATOM      8  C   UNL     1       1.939  16.833  18.903  0.00  0.00    +0.000 A 
ATOM      9  C   UNL     1       0.995  17.835  19.112  0.00  0.00    +0.000 A 
ATOM     10  C   UNL     1      -0.355  17.512  19.118  0.00  0.00    +0.000 A 
ATOM     11  C   UNL     1      -0.751  16.185  18.922  0.00  0.00    +0.000 A 
ATOM     12  C   UNL     1       0.184  15.152  18.741  0.00  0.00    +0.000 A 
ENDBRANCH   2  12
BRANCH   3  13
ATOM     13  S   UNL     1      -0.543  13.661  21.521  0.00  0.00    +0.000 S 
ATOM     14  H   UNL     1       0.792  13.791  21.553  0.00  0.00    +0.000 HD
ENDBRANCH   3  13
ENDBRANCH   1   4
BRANCH   1  15
ATOM     15  N   UNL     1      -0.356  10.020  18.469  0.00  0.00    +0.000 N 
ATOM     16  C   UNL     1       1.008  10.054  18.665  0.00  0.00    +0.000 C 
ATOM     17  O   UNL     1       1.621  11.109  18.626  0.00  0.00    +0.000 OA
ATOM     18  H   UNL     1      -0.824   9.126  18.411  0.00  0.00    +0.000 HD
BRANCH  16  19
ATOM     19  C   UNL     1       1.645   8.712  18.834  0.00  0.00    +0.000 A 
ATOM     20  C   UNL     1       2.362   8.169  17.752  0.00  0.00    +0.000 A 
ATOM     21  C   UNL     1       3.093   6.991  17.904  0.00  0.00    +0.000 A 
ATOM     22  C   UNL     1       3.103   6.338  19.131  0.00  0.00    +0.000 A 
ATOM     23  C   UNL     1       2.344   6.834  20.192  0.00  0.00    +0.000 A 
ATOM     24  C   UNL     1       1.594   8.017  20.058  0.00  0.00    +0.000 A 
ATOM     25  C   UNL     1       0.749   8.469  21.214  0.00  0.00    +0.000 C 
ENDBRANCH  16  19
ENDBRANCH   1  15
BRANCH   1  26
ATOM     26  C   UNL     1      -2.655  11.082  17.809  0.00  0.00    +0.000 C 
ATOM     27 CL   UNL     1      -3.870  12.110  18.654  0.00  0.00    +0.000 Cl
ATOM     28 CL   UNL     1      -2.647  11.575  16.062  0.00  0.00    +0.000 Cl
ATOM     29 CL   UNL     1      -3.280   9.387  17.828  0.00  0.00    +0.000 Cl
ENDBRANCH   1  26
TORSDOF 6
ENDMDL
MODEL 8
REMARK VINA RESULT:      -6.3      8.628     12.202
REMARK  Name = 
REMARK  8 active torsions:
REMARK  status: ('A' for Active; 'I' for Inactive)
REMARK    1  A    between atoms: C_1  and  C_2
REMARK    2  A    between atoms: C_7  and  N_8
REMARK    3  A    between atoms: C_9  and  S_10
REMARK    4  A    between atoms: N_11  and  C_12
REMARK    5  A    between atoms: C_12  and  N_13
REMARK    6  A    between atoms: C_12  and  C_23
REMARK    7  A    between atoms: C_14  and  C_16
REMARK    8  A    between atoms: C_21  and  C_22
REMARK                            x       y       z     vdW  Elec       q    Type
REMARK                         _______ _______ _______ _____ _____    ______ ____
ROOT
ATOM      1  C   UNL     1      -1.787  14.370  20.518  0.00  0.00    +0.000 C 
ENDROOT
BRANCH   1   4
ATOM      2  N   UNL     1      -4.263  13.688  21.587  0.00  0.00    +0.000 NA
ATOM      3  C   UNL     1      -4.183  14.867  21.083  0.00  0.00    +0.000 C 
ATOM      4  N   UNL     1      -2.935  15.289  20.571  0.00  0.00    +0.000 N 
ATOM      5  H   UNL     1      -2.777  16.244  20.269  0.00  0.00    +0.000 HD
BRANCH   2  12
ATOM      6  C   UNL     1      -6.332  12.182  19.903  0.00  0.00    +0.000 C 
ATOM      7  C   UNL     1      -6.439  12.484  21.371  0.00  0.00    +0.000 A 
ATOM      8  C   UNL     1      -7.646  12.118  22.004  0.00  0.00    +0.000 A 
ATOM      9  C   UNL     1      -7.870  12.400  23.349  0.00  0.00    +0.000 A 
ATOM     10  C   UNL     1      -6.872  13.010  24.096  0.00  0.00    +0.000 A 
ATOM     11  C   UNL     1      -5.656  13.341  23.489  0.00  0.00    +0.000 A 
ATOM     12  C   UNL     1      -5.418  13.096  22.126  0.00  0.00    +0.000 A 
ENDBRANCH   2  12
BRANCH   3  13
ATOM     13  S   UNL     1      -5.382  16.094  20.906  0.00  0.00    +0.000 S 
ATOM     14  H   UNL     1      -5.407  16.062  19.566  0.00  0.00    +0.000 HD
ENDBRANCH   3  13
ENDBRANCH   1   4
BRANCH   1  15
ATOM     15  N   UNL     1      -2.027  13.422  19.437  0.00  0.00    +0.000 N 
ATOM     16  C   UNL     1      -1.949  12.057  19.608  0.00  0.00    +0.000 C 
ATOM     17  O   UNL     1      -1.505  11.579  20.640  0.00  0.00    +0.000 OA
ATOM     18  H   UNL     1      -2.310  13.791  18.539  0.00  0.00    +0.000 HD
BRANCH  16  19
ATOM     19  C   UNL     1      -2.363  11.256  18.416  0.00  0.00    +0.000 A 
ATOM     20  C   UNL     1      -3.658  11.443  17.899  0.00  0.00    +0.000 A 
ATOM     21  C   UNL     1      -4.043  10.830  16.707  0.00  0.00    +0.000 A 
ATOM     22  C   UNL     1      -3.145  10.014  16.029  0.00  0.00    +0.000 A 
ATOM     23  C   UNL     1      -1.880   9.770  16.566  0.00  0.00    +0.000 A 
ATOM     24  C   UNL     1      -1.474  10.374  17.771  0.00  0.00    +0.000 A 
ATOM     25  C   UNL     1      -0.125  10.027  18.331  0.00  0.00    +0.000 C 
ENDBRANCH  16  19
ENDBRANCH   1  15
BRANCH   1  26
ATOM     26  C   UNL     1      -0.361  15.096  20.563  0.00  0.00    +0.000 C 
ATOM     27 CL   UNL     1       0.945  14.066  21.257  0.00  0.00    +0.000 Cl
ATOM     28 CL   UNL     1       0.139  15.545  18.877  0.00  0.00    +0.000 Cl
ATOM     29 CL   UNL     1      -0.372  16.647  21.490  0.00  0.00    +0.000 Cl
ENDBRANCH   1  26
TORSDOF 6
ENDMDL
MODEL 9
REMARK VINA RESULT:      -6.3      5.990      8.653
REMARK  Name = 
REMARK  8 active torsions:
REMARK  status: ('A' for Active; 'I' for Inactive)
REMARK    1  A    between atoms: C_1  and  C_2
REMARK    2  A    between atoms: C_7  and  N_8
REMARK    3  A    between atoms: C_9  and  S_10
REMARK    4  A    between atoms: N_11  and  C_12
REMARK    5  A    between atoms: C_12  and  N_13
REMARK    6  A    between atoms: C_12  and  C_23
REMARK    7  A    between atoms: C_14  and  C_16
REMARK    8  A    between atoms: C_21  and  C_22
REMARK                            x       y       z     vdW  Elec       q    Type
REMARK                         _______ _______ _______ _____ _____    ______ ____
ROOT
ATOM      1  C   UNL     1      -1.055  11.205  18.370  0.00  0.00    +0.000 C 
ENDROOT
BRANCH   1   4
ATOM      2  N   UNL     1      -0.177  13.815  18.768  0.00  0.00    +0.000 NA
ATOM      3  C   UNL     1      -0.491  13.167  19.832  0.00  0.00    +0.000 C 
ATOM      4  N   UNL     1      -0.993  11.854  19.689  0.00  0.00    +0.000 N 
ATOM      5  H   UNL     1      -1.367  11.335  20.477  0.00  0.00    +0.000 HD
BRANCH   2  12
ATOM      6  C   UNL     1       2.825  14.427  18.797  0.00  0.00    +0.000 C 
ATOM      7  C   UNL     1       1.716  15.440  18.830  0.00  0.00    +0.000 A 
ATOM      8  C   UNL     1       2.099  16.790  18.980  0.00  0.00    +0.000 A 
ATOM      9  C   UNL     1       1.150  17.805  19.075  0.00  0.00    +0.000 A 
ATOM     10  C   UNL     1      -0.197  17.491  18.974  0.00  0.00    +0.000 A 
ATOM     11  C   UNL     1      -0.589  16.162  18.786  0.00  0.00    +0.000 A 
ATOM     12  C   UNL     1       0.349  15.117  18.718  0.00  0.00    +0.000 A 
ENDBRANCH   2  12
BRANCH   3  13
ATOM     13  S   UNL     1      -0.407  13.630  21.491  0.00  0.00    +0.000 S 
ATOM     14  H   UNL     1      -1.099  12.579  21.957  0.00  0.00    +0.000 HD
ENDBRANCH   3  13
ENDBRANCH   1   4
BRANCH   1  15
ATOM     15  N   UNL     1      -0.256   9.988  18.435  0.00  0.00    +0.000 N 
ATOM     16  C   UNL     1       1.109   9.998  18.628  0.00  0.00    +0.000 C 
ATOM     17  O   UNL     1       1.740  11.042  18.582  0.00  0.00    +0.000 OA
ATOM     18  H   UNL     1      -0.740   9.101  18.384  0.00  0.00    +0.000 HD
BRANCH  16  19
ATOM     19  C   UNL     1       1.722   8.646  18.802  0.00  0.00    +0.000 A 
ATOM     20  C   UNL     1       2.412   8.077  17.716  0.00  0.00    +0.000 A 
ATOM     21  C   UNL     1       3.123   6.887  17.869  0.00  0.00    +0.000 A 
ATOM     22  C   UNL     1       3.139   6.247  19.103  0.00  0.00    +0.000 A 
ATOM     23  C   UNL     1       2.405   6.769  20.170  0.00  0.00    +0.000 A 
ATOM     24  C   UNL     1       1.676   7.965  20.034  0.00  0.00    +0.000 A 
ATOM     25  C   UNL     1       0.858   8.445  21.198  0.00  0.00    +0.000 C 
ENDBRANCH  16  19
ENDBRANCH   1  15
BRANCH   1  26
ATOM     26  C   UNL     1      -2.532  11.090  17.762  0.00  0.00    +0.000 C 
ATOM     27 CL   UNL     1      -2.623  11.524  16.016  0.00  0.00    +0.000 Cl
ATOM     28 CL   UNL     1      -3.118   9.380  17.928  0.00  0.00    +0.000 Cl
ATOM     29 CL   UNL     1      -3.749  12.102  18.632  0.00  0.00    +0.000 Cl
ENDBRANCH   1  26
TORSDOF 6
ENDMDL
