MODEL 1
REMARK VINA RESULT:      -8.4      0.000      0.000
REMARK  Name = 
REMARK  6 active torsions:
REMARK  status: ('A' for Active; 'I' for Inactive)
REMARK    1  A    between atoms: C_1  and  C_2
REMARK    2  A    between atoms: C_5  and  C_6
REMARK    3  A    between atoms: C_6  and  C_7
REMARK    4  A    between atoms: C_6  and  C_18
REMARK    5  A    between atoms: C_7  and  N_8
REMARK    6  A    between atoms: C_9  and  C_11
REMARK                            x       y       z     vdW  Elec       q    Type
REMARK                         _______ _______ _______ _____ _____    ______ ____
ROOT
ATOM      1  C   UNL     1       3.449   6.295  18.660  0.00  0.00    +0.000 C 
ENDROOT
BRANCH   1   6
ATOM      2  C   UNL     1       7.042   4.753  14.470  0.00  0.00    +0.000 C 
ATOM      3  C   UNL     1       6.116   5.152  15.574  0.00  0.00    +0.000 A 
ATOM      4  N   UNL     1       5.504   6.345  15.482  0.00  0.00    +0.000 NA
ATOM      5  C   UNL     1       4.673   6.673  16.490  0.00  0.00    +0.000 A 
ATOM      6  C   UNL     1       4.421   5.864  17.583  0.00  0.00    +0.000 A 
ATOM      7  C   UNL     1       5.129   4.678  17.583  0.00  0.00    +0.000 A 
ATOM      8  N   UNL     1       5.972   4.299  16.604  0.00  0.00    +0.000 NA
ENDBRANCH   1   6
BRANCH   1   9
ATOM      9  C   UNL     1       2.593   5.139  19.164  0.00  0.00    +0.000 A 
ATOM     10  C   UNL     1       1.822   4.400  18.256  0.00  0.00    +0.000 A 
ATOM     11  C   UNL     1       1.003   3.389  18.732  0.00  0.00    +0.000 A 
ATOM     12  N   UNL     1       0.906   3.055  20.036  0.00  0.00    +0.000 NA
ATOM     13  C   UNL     1       1.667   3.764  20.898  0.00  0.00    +0.000 A 
ATOM     14  C   UNL     1       2.517   4.793  20.518  0.00  0.00    +0.000 A 
ENDBRANCH   1   9
BRANCH   1  15
ATOM     15  C   UNL     1       2.585   7.529  18.292  0.00  0.00    +0.000 C 
BRANCH  15  16
ATOM     16  N   UNL     1       1.885   8.109  19.431  0.00  0.00    +0.000 N 
ATOM     17  C   UNL     1       1.100   9.237  19.316  0.00  0.00    +0.000 C 
ATOM     18  O   UNL     1       0.875   9.780  18.240  0.00  0.00    +0.000 OA
ATOM     19  H   UNL     1       2.052   7.723  20.353  0.00  0.00    +0.000 HD
BRANCH  17  20
ATOM     20  C   UNL     1       0.459   9.753  20.558  0.00  0.00    +0.000 A 
ATOM     21  C   UNL     1       0.074   8.794  21.511  0.00  0.00    +0.000 A 
ATOM     22  C   UNL     1      -0.520   9.178  22.714  0.00  0.00    +0.000 A 
ATOM     23  C   UNL     1      -0.742  10.525  22.979  0.00  0.00    +0.000 A 
ATOM     24  C   UNL     1      -0.382  11.487  22.033  0.00  0.00    +0.000 A 
ATOM     25  C   UNL     1       0.210  11.108  20.821  0.00  0.00    +0.000 A 
ATOM     26 CL   UNL     1       0.550  12.378  19.700  0.00  0.00    +0.000 Cl
ENDBRANCH  17  20
ENDBRANCH  15  16
ENDBRANCH   1  15
TORSDOF 5
ENDMDL
MODEL 2
REMARK VINA RESULT:      -8.3      0.200      1.337
REMARK  Name = 
REMARK  6 active torsions:
REMARK  status: ('A' for Active; 'I' for Inactive)
REMARK    1  A    between atoms: C_1  and  C_2
REMARK    2  A    between atoms: C_5  and  C_6
REMARK    3  A    between atoms: C_6  and  C_7
REMARK    4  A    between atoms: C_6  and  C_18
REMARK    5  A    between atoms: C_7  and  N_8
REMARK    6  A    between atoms: C_9  and  C_11
REMARK                            x       y       z     vdW  Elec       q    Type
REMARK                         _______ _______ _______ _____ _____    ______ ____
ROOT
ATOM      1  C   UNL     1       3.414   6.392  18.494  0.00  0.00    +0.000 C 
ENDROOT
BRANCH   1   6
ATOM      2  C   UNL     1       6.969   4.570  14.385  0.00  0.00    +0.000 C 
ATOM      3  C   UNL     1       6.032   5.051  15.446  0.00  0.00    +0.000 A 
ATOM      4  N   UNL     1       5.646   4.175  16.389  0.00  0.00    +0.000 NA
ATOM      5  C   UNL     1       4.805   4.641  17.333  0.00  0.00    +0.000 A 
ATOM      6  C   UNL     1       4.336   5.941  17.381  0.00  0.00    +0.000 A 
ATOM      7  C   UNL     1       4.775   6.740  16.344  0.00  0.00    +0.000 A 
ATOM      8  N   UNL     1       5.615   6.328  15.374  0.00  0.00    +0.000 NA
ENDBRANCH   1   6
BRANCH   1   9
ATOM      9  C   UNL     1       2.507   5.270  18.985  0.00  0.00    +0.000 A 
ATOM     10  C   UNL     1       2.435   4.987  20.356  0.00  0.00    +0.000 A 
ATOM     11  C   UNL     1       1.651   3.928  20.785  0.00  0.00    +0.000 A 
ATOM     12  N   UNL     1       0.932   3.144  19.956  0.00  0.00    +0.000 NA
ATOM     13  C   UNL     1       0.997   3.438  18.640  0.00  0.00    +0.000 A 
ATOM     14  C   UNL     1       1.752   4.477  18.113  0.00  0.00    +0.000 A 
ENDBRANCH   1   9
BRANCH   1  15
ATOM     15  C   UNL     1       2.611   7.682  18.183  0.00  0.00    +0.000 C 
BRANCH  15  16
ATOM     16  N   UNL     1       1.944   8.247  19.350  0.00  0.00    +0.000 N 
ATOM     17  C   UNL     1       0.991   9.237  19.245  0.00  0.00    +0.000 C 
ATOM     18  O   UNL     1       0.585   9.654  18.166  0.00  0.00    +0.000 OA
ATOM     19  H   UNL     1       2.255   7.964  20.273  0.00  0.00    +0.000 HD
BRANCH  17  20
ATOM     20  C   UNL     1       0.402   9.755  20.511  0.00  0.00    +0.000 A 
ATOM     21  C   UNL     1       0.020   8.796  21.465  0.00  0.00    +0.000 A 
ATOM     22  C   UNL     1      -0.527   9.181  22.690  0.00  0.00    +0.000 A 
ATOM     23  C   UNL     1      -0.706  10.530  22.976  0.00  0.00    +0.000 A 
ATOM     24  C   UNL     1      -0.350  11.494  22.030  0.00  0.00    +0.000 A 
ATOM     25  C   UNL     1       0.195  11.113  20.796  0.00  0.00    +0.000 A 
ATOM     26 CL   UNL     1       0.533  12.387  19.679  0.00  0.00    +0.000 Cl
ENDBRANCH  17  20
ENDBRANCH  15  16
ENDBRANCH   1  15
TORSDOF 5
ENDMDL
MODEL 3
REMARK VINA RESULT:      -8.2      1.809      4.565
REMARK  Name = 
REMARK  6 active torsions:
REMARK  status: ('A' for Active; 'I' for Inactive)
REMARK    1  A    between atoms: C_1  and  C_2
REMARK    2  A    between atoms: C_5  and  C_6
REMARK    3  A    between atoms: C_6  and  C_7
REMARK    4  A    between atoms: C_6  and  C_18
REMARK    5  A    between atoms: C_7  and  N_8
REMARK    6  A    between atoms: C_9  and  C_11
REMARK                            x       y       z     vdW  Elec       q    Type
REMARK                         _______ _______ _______ _____ _____    ______ ____
ROOT
ATOM      1  C   UNL     1       3.378   6.263  17.449  0.00  0.00    +0.000 C 
ENDROOT
BRANCH   1   6
ATOM      2  C   UNL     1       1.262   2.737  21.441  0.00  0.00    +0.000 C 
ATOM      3  C   UNL     1       1.799   3.662  20.395  0.00  0.00    +0.000 A 
ATOM      4  N   UNL     1       2.729   4.558  20.766  0.00  0.00    +0.000 NA
ATOM      5  C   UNL     1       3.196   5.372  19.799  0.00  0.00    +0.000 A 
ATOM      6  C   UNL     1       2.781   5.330  18.481  0.00  0.00    +0.000 A 
ATOM      7  C   UNL     1       1.802   4.390  18.226  0.00  0.00    +0.000 A 
ATOM      8  N   UNL     1       1.298   3.551  19.152  0.00  0.00    +0.000 NA
ENDBRANCH   1   6
BRANCH   1   9
ATOM      9  C   UNL     1       4.770   5.824  17.009  0.00  0.00    +0.000 A 
ATOM     10  C   UNL     1       4.923   4.643  16.270  0.00  0.00    +0.000 A 
ATOM     11  C   UNL     1       6.198   4.224  15.923  0.00  0.00    +0.000 A 
ATOM     12  N   UNL     1       7.321   4.896  16.249  0.00  0.00    +0.000 NA
ATOM     13  C   UNL     1       7.159   6.040  16.947  0.00  0.00    +0.000 A 
ATOM     14  C   UNL     1       5.925   6.542  17.338  0.00  0.00    +0.000 A 
ENDBRANCH   1   9
BRANCH   1  15
ATOM     15  C   UNL     1       3.349   7.763  17.843  0.00  0.00    +0.000 C 
BRANCH  15  16
ATOM     16  N   UNL     1       2.004   8.282  18.056  0.00  0.00    +0.000 N 
ATOM     17  C   UNL     1       1.711   9.626  17.963  0.00  0.00    +0.000 C 
ATOM     18  O   UNL     1       2.540  10.462  17.621  0.00  0.00    +0.000 OA
ATOM     19  H   UNL     1       1.280   7.645  18.369  0.00  0.00    +0.000 HD
BRANCH  17  20
ATOM     20  C   UNL     1       0.305  10.039  18.231  0.00  0.00    +0.000 A 
ATOM     21  C   UNL     1      -0.659   9.629  17.294  0.00  0.00    +0.000 A 
ATOM     22  C   UNL     1      -2.006   9.951  17.465  0.00  0.00    +0.000 A 
ATOM     23  C   UNL     1      -2.408  10.693  18.571  0.00  0.00    +0.000 A 
ATOM     24  C   UNL     1      -1.458  11.124  19.499  0.00  0.00    +0.000 A 
ATOM     25  C   UNL     1      -0.103  10.808  19.331  0.00  0.00    +0.000 A 
ATOM     26 CL   UNL     1       0.989  11.452  20.506  0.00  0.00    +0.000 Cl
ENDBRANCH  17  20
ENDBRANCH  15  16
ENDBRANCH   1  15
TORSDOF 5
ENDMDL
MODEL 4
REMARK VINA RESULT:      -8.2      0.508      1.067
REMARK  Name = 
REMARK  6 active torsions:
REMARK  status: ('A' for Active; 'I' for Inactive)
REMARK    1  A    between atoms: C_1  and  C_2
REMARK    2  A    between atoms: C_5  and  C_6
REMARK    3  A    between atoms: C_6  and  C_7
REMARK    4  A    between atoms: C_6  and  C_18
REMARK    5  A    between atoms: C_7  and  N_8
REMARK    6  A    between atoms: C_9  and  C_11
REMARK                            x       y       z     vdW  Elec       q    Type
REMARK                         _______ _______ _______ _____ _____    ______ ____
ROOT
ATOM      1  C   UNL     1       3.409   6.244  18.571  0.00  0.00    +0.000 C 
ENDROOT
BRANCH   1   6
ATOM      2  C   UNL     1       6.835   4.602  14.280  0.00  0.00    +0.000 C 
ATOM      3  C   UNL     1       5.951   5.025  15.410  0.00  0.00    +0.000 A 
ATOM      4  N   UNL     1       5.548   6.306  15.448  0.00  0.00    +0.000 NA
ATOM      5  C   UNL     1       4.749   6.652  16.476  0.00  0.00    +0.000 A 
ATOM      6  C   UNL     1       4.332   5.780  17.465  0.00  0.00    +0.000 A 
ATOM      7  C   UNL     1       4.835   4.500  17.338  0.00  0.00    +0.000 A 
ATOM      8  N   UNL     1       5.636   4.097  16.332  0.00  0.00    +0.000 NA
ENDBRANCH   1   6
BRANCH   1   9
ATOM      9  C   UNL     1       2.527   5.118  19.100  0.00  0.00    +0.000 A 
ATOM     10  C   UNL     1       2.530   4.821  20.470  0.00  0.00    +0.000 A 
ATOM     11  C   UNL     1       1.769   3.759  20.932  0.00  0.00    +0.000 A 
ATOM     12  N   UNL     1       1.003   2.986  20.136  0.00  0.00    +0.000 NA
ATOM     13  C   UNL     1       0.996   3.293  18.821  0.00  0.00    +0.000 A 
ATOM     14  C   UNL     1       1.723   4.336  18.264  0.00  0.00    +0.000 A 
ENDBRANCH   1   9
BRANCH   1  15
ATOM     15  C   UNL     1       2.579   7.509  18.230  0.00  0.00    +0.000 C 
BRANCH  15  16
ATOM     16  N   UNL     1       1.902   8.088  19.384  0.00  0.00    +0.000 N 
ATOM     17  C   UNL     1       1.014   9.135  19.267  0.00  0.00    +0.000 C 
ATOM     18  O   UNL     1       0.675   9.598  18.183  0.00  0.00    +0.000 OA
ATOM     19  H   UNL     1       2.160   7.769  20.311  0.00  0.00    +0.000 HD
BRANCH  17  20
ATOM     20  C   UNL     1       0.408   9.662  20.521  0.00  0.00    +0.000 A 
ATOM     21  C   UNL     1       0.738   8.987  21.709  0.00  0.00    +0.000 A 
ATOM     22  C   UNL     1       0.234   9.413  22.939  0.00  0.00    +0.000 A 
ATOM     23  C   UNL     1      -0.612  10.516  22.998  0.00  0.00    +0.000 A 
ATOM     24  C   UNL     1      -0.965  11.183  21.824  0.00  0.00    +0.000 A 
ATOM     25  C   UNL     1      -0.465  10.757  20.585  0.00  0.00    +0.000 A 
ATOM     26 CL   UNL     1      -1.024  11.618  19.194  0.00  0.00    +0.000 Cl
ENDBRANCH  17  20
ENDBRANCH  15  16
ENDBRANCH   1  15
TORSDOF 5
ENDMDL
MODEL 5
REMARK VINA RESULT:      -8.1      1.776      4.656
REMARK  Name = 
REMARK  6 active torsions:
REMARK  status: ('A' for Active; 'I' for Inactive)
REMARK    1  A    between atoms: C_1  and  C_2
REMARK    2  A    between atoms: C_5  and  C_6
REMARK    3  A    between atoms: C_6  and  C_7
REMARK    4  A    between atoms: C_6  and  C_18
REMARK    5  A    between atoms: C_7  and  N_8
REMARK    6  A    between atoms: C_9  and  C_11
REMARK                            x       y       z     vdW  Elec       q    Type
REMARK                         _______ _______ _______ _____ _____    ______ ____
ROOT
ATOM      1  C   UNL     1       3.390   6.174  17.542  0.00  0.00    +0.000 C 
ENDROOT
BRANCH   1   6
ATOM      2  C   UNL     1       1.151   2.770  21.572  0.00  0.00    +0.000 C 
ATOM      3  C   UNL     1       1.750   3.652  20.524  0.00  0.00    +0.000 A 
ATOM      4  N   UNL     1       1.230   3.601  19.286  0.00  0.00    +0.000 NA
ATOM      5  C   UNL     1       1.789   4.412  18.367  0.00  0.00    +0.000 A 
ATOM      6  C   UNL     1       2.839   5.274  18.627  0.00  0.00    +0.000 A 
ATOM      7  C   UNL     1       3.308   5.217  19.924  0.00  0.00    +0.000 A 
ATOM      8  N   UNL     1       2.789   4.427  20.884  0.00  0.00    +0.000 NA
ENDBRANCH   1   6
BRANCH   1   9
ATOM      9  C   UNL     1       4.767   5.726  17.064  0.00  0.00    +0.000 A 
ATOM     10  C   UNL     1       5.888   6.523  17.335  0.00  0.00    +0.000 A 
ATOM     11  C   UNL     1       7.126   6.136  16.846  0.00  0.00    +0.000 A 
ATOM     12  N   UNL     1       7.327   5.015  16.122  0.00  0.00    +0.000 NA
ATOM     13  C   UNL     1       6.242   4.248  15.882  0.00  0.00    +0.000 A 
ATOM     14  C   UNL     1       4.964   4.551  16.329  0.00  0.00    +0.000 A 
ENDBRANCH   1   9
BRANCH   1  15
ATOM     15  C   UNL     1       3.368   7.686  17.885  0.00  0.00    +0.000 C 
BRANCH  15  16
ATOM     16  N   UNL     1       2.026   8.212  18.102  0.00  0.00    +0.000 N 
ATOM     17  C   UNL     1       1.730   9.552  17.964  0.00  0.00    +0.000 C 
ATOM     18  O   UNL     1       2.552  10.375  17.577  0.00  0.00    +0.000 OA
ATOM     19  H   UNL     1       1.308   7.588  18.451  0.00  0.00    +0.000 HD
BRANCH  17  20
ATOM     20  C   UNL     1       0.329   9.974  18.241  0.00  0.00    +0.000 A 
ATOM     21  C   UNL     1      -0.641   9.588  17.300  0.00  0.00    +0.000 A 
ATOM     22  C   UNL     1      -1.984   9.921  17.477  0.00  0.00    +0.000 A 
ATOM     23  C   UNL     1      -2.377  10.650  18.595  0.00  0.00    +0.000 A 
ATOM     24  C   UNL     1      -1.421  11.058  19.528  0.00  0.00    +0.000 A 
ATOM     25  C   UNL     1      -0.070  10.731  19.353  0.00  0.00    +0.000 A 
ATOM     26 CL   UNL     1       1.030  11.347  20.535  0.00  0.00    +0.000 Cl
ENDBRANCH  17  20
ENDBRANCH  15  16
ENDBRANCH   1  15
TORSDOF 5
ENDMDL
MODEL 6
REMARK VINA RESULT:      -7.9      1.112      1.509
REMARK  Name = 
REMARK  6 active torsions:
REMARK  status: ('A' for Active; 'I' for Inactive)
REMARK    1  A    between atoms: C_1  and  C_2
REMARK    2  A    between atoms: C_5  and  C_6
REMARK    3  A    between atoms: C_6  and  C_7
REMARK    4  A    between atoms: C_6  and  C_18
REMARK    5  A    between atoms: C_7  and  N_8
REMARK    6  A    between atoms: C_9  and  C_11
REMARK                            x       y       z     vdW  Elec       q    Type
REMARK                         _______ _______ _______ _____ _____    ______ ____
ROOT
ATOM      1  C   UNL     1       3.271   6.502  18.619  0.00  0.00    +0.000 C 
ENDROOT
BRANCH   1   6
ATOM      2  C   UNL     1       7.273   4.888  14.849  0.00  0.00    +0.000 C 
ATOM      3  C   UNL     1       6.240   5.309  15.844  0.00  0.00    +0.000 A 
ATOM      4  N   UNL     1       5.520   6.411  15.576  0.00  0.00    +0.000 NA
ATOM      5  C   UNL     1       4.594   6.759  16.490  0.00  0.00    +0.000 A 
ATOM      6  C   UNL     1       4.351   6.058  17.657  0.00  0.00    +0.000 A 
ATOM      7  C   UNL     1       5.173   4.963  17.839  0.00  0.00    +0.000 A 
ATOM      8  N   UNL     1       6.114   4.567  16.959  0.00  0.00    +0.000 NA
ENDBRANCH   1   6
BRANCH   1   9
ATOM      9  C   UNL     1       2.428   5.336  19.122  0.00  0.00    +0.000 A 
ATOM     10  C   UNL     1       1.834   4.463  18.201  0.00  0.00    +0.000 A 
ATOM     11  C   UNL     1       1.022   3.440  18.667  0.00  0.00    +0.000 A 
ATOM     12  N   UNL     1       0.772   3.220  19.974  0.00  0.00    +0.000 NA
ATOM     13  C   UNL     1       1.364   4.058  20.851  0.00  0.00    +0.000 A 
ATOM     14  C   UNL     1       2.192   5.109  20.483  0.00  0.00    +0.000 A 
ENDBRANCH   1   9
BRANCH   1  15
ATOM     15  C   UNL     1       2.387   7.667  18.103  0.00  0.00    +0.000 C 
BRANCH  15  16
ATOM     16  N   UNL     1       1.847   8.503  19.168  0.00  0.00    +0.000 N 
ATOM     17  C   UNL     1       0.902   9.478  18.930  0.00  0.00    +0.000 C 
ATOM     18  O   UNL     1       0.396   9.655  17.827  0.00  0.00    +0.000 OA
ATOM     19  H   UNL     1       2.245   8.425  20.097  0.00  0.00    +0.000 HD
BRANCH  17  20
ATOM     20  C   UNL     1       0.449  10.289  20.095  0.00  0.00    +0.000 A 
ATOM     21  C   UNL     1       0.672  11.675  20.021  0.00  0.00    +0.000 A 
ATOM     22  C   UNL     1       0.269  12.522  21.054  0.00  0.00    +0.000 A 
ATOM     23  C   UNL     1      -0.359  11.995  22.178  0.00  0.00    +0.000 A 
ATOM     24  C   UNL     1      -0.569  10.618  22.274  0.00  0.00    +0.000 A 
ATOM     25  C   UNL     1      -0.162   9.762  21.242  0.00  0.00    +0.000 A 
ATOM     26 CL   UNL     1      -0.413   8.071  21.502  0.00  0.00    +0.000 Cl
ENDBRANCH  17  20
ENDBRANCH  15  16
ENDBRANCH   1  15
TORSDOF 5
ENDMDL
MODEL 7
REMARK VINA RESULT:      -7.9      1.402      4.408
REMARK  Name = 
REMARK  6 active torsions:
REMARK  status: ('A' for Active; 'I' for Inactive)
REMARK    1  A    between atoms: C_1  and  C_2
REMARK    2  A    between atoms: C_5  and  C_6
REMARK    3  A    between atoms: C_6  and  C_7
REMARK    4  A    between atoms: C_6  and  C_18
REMARK    5  A    between atoms: C_7  and  N_8
REMARK    6  A    between atoms: C_9  and  C_11
REMARK                            x       y       z     vdW  Elec       q    Type
REMARK                         _______ _______ _______ _____ _____    ______ ____
ROOT
ATOM      1  C   UNL     1       3.722   5.651  17.340  0.00  0.00    +0.000 C 
ENDROOT
BRANCH   1   6
ATOM      2  C   UNL     1       1.424   2.635  21.637  0.00  0.00    +0.000 C 
ATOM      3  C   UNL     1       2.038   3.423  20.524  0.00  0.00    +0.000 A 
ATOM      4  N   UNL     1       1.953   2.924  19.279  0.00  0.00    +0.000 NA
ATOM      5  C   UNL     1       2.511   3.660  18.299  0.00  0.00    +0.000 A 
ATOM      6  C   UNL     1       3.146   4.872  18.502  0.00  0.00    +0.000 A 
ATOM      7  C   UNL     1       3.198   5.267  19.824  0.00  0.00    +0.000 A 
ATOM      8  N   UNL     1       2.657   4.573  20.845  0.00  0.00    +0.000 NA
ENDBRANCH   1   6
BRANCH   1   9
ATOM      9  C   UNL     1       5.136   5.200  16.986  0.00  0.00    +0.000 A 
ATOM     10  C   UNL     1       6.100   5.086  17.996  0.00  0.00    +0.000 A 
ATOM     11  C   UNL     1       7.396   4.731  17.655  0.00  0.00    +0.000 A 
ATOM     12  N   UNL     1       7.794   4.474  16.392  0.00  0.00    +0.000 NA
ATOM     13  C   UNL     1       6.851   4.573  15.430  0.00  0.00    +0.000 A 
ATOM     14  C   UNL     1       5.529   4.920  15.672  0.00  0.00    +0.000 A 
ENDBRANCH   1   9
BRANCH   1  15
ATOM     15  C   UNL     1       3.633   7.192  17.489  0.00  0.00    +0.000 C 
BRANCH  15  16
ATOM     16  N   UNL     1       2.751   7.621  18.566  0.00  0.00    +0.000 N 
ATOM     17  C   UNL     1       1.989   8.767  18.481  0.00  0.00    +0.000 C 
ATOM     18  O   UNL     1       1.941   9.456  17.468  0.00  0.00    +0.000 OA
ATOM     19  H   UNL     1       2.766   7.110  19.441  0.00  0.00    +0.000 HD
BRANCH  17  20
ATOM     20  C   UNL     1       1.149   9.119  19.659  0.00  0.00    +0.000 A 
ATOM     21  C   UNL     1       1.514   8.539  20.886  0.00  0.00    +0.000 A 
ATOM     22  C   UNL     1       0.799   8.819  22.052  0.00  0.00    +0.000 A 
ATOM     23  C   UNL     1      -0.294   9.678  22.006  0.00  0.00    +0.000 A 
ATOM     24  C   UNL     1      -0.681  10.245  20.790  0.00  0.00    +0.000 A 
ATOM     25  C   UNL     1       0.030   9.964  19.615  0.00  0.00    +0.000 A 
ATOM     26 CL   UNL     1      -0.580  10.668  18.160  0.00  0.00    +0.000 Cl
ENDBRANCH  17  20
ENDBRANCH  15  16
ENDBRANCH   1  15
TORSDOF 5
ENDMDL
MODEL 8
REMARK VINA RESULT:      -7.9      1.373      4.246
REMARK  Name = 
REMARK  6 active torsions:
REMARK  status: ('A' for Active; 'I' for Inactive)
REMARK    1  A    between atoms: C_1  and  C_2
REMARK    2  A    between atoms: C_5  and  C_6
REMARK    3  A    between atoms: C_6  and  C_7
REMARK    4  A    between atoms: C_6  and  C_18
REMARK    5  A    between atoms: C_7  and  N_8
REMARK    6  A    between atoms: C_9  and  C_11
REMARK                            x       y       z     vdW  Elec       q    Type
REMARK                         _______ _______ _______ _____ _____    ______ ____
ROOT
ATOM      1  C   UNL     1       3.620   5.883  17.278  0.00  0.00    +0.000 C 
ENDROOT
BRANCH   1   6
ATOM      2  C   UNL     1       1.283   2.745  21.465  0.00  0.00    +0.000 C 
ATOM      3  C   UNL     1       1.879   3.571  20.371  0.00  0.00    +0.000 A 
ATOM      4  N   UNL     1       3.017   4.237  20.633  0.00  0.00    +0.000 NA
ATOM      5  C   UNL     1       3.530   4.967  19.624  0.00  0.00    +0.000 A 
ATOM      6  C   UNL     1       2.963   5.061  18.366  0.00  0.00    +0.000 A 
ATOM      7  C   UNL     1       1.782   4.361  18.225  0.00  0.00    +0.000 A 
ATOM      8  N   UNL     1       1.223   3.614  19.197  0.00  0.00    +0.000 NA
ENDBRANCH   1   6
BRANCH   1   9
ATOM      9  C   UNL     1       5.063   5.459  17.024  0.00  0.00    +0.000 A 
ATOM     10  C   UNL     1       5.332   4.433  16.108  0.00  0.00    +0.000 A 
ATOM     11  C   UNL     1       6.642   4.016  15.927  0.00  0.00    +0.000 A 
ATOM     12  N   UNL     1       7.694   4.552  16.579  0.00  0.00    +0.000 NA
ATOM     13  C   UNL     1       7.422   5.551  17.446  0.00  0.00    +0.000 A 
ATOM     14  C   UNL     1       6.147   6.037  17.695  0.00  0.00    +0.000 A 
ENDBRANCH   1   9
BRANCH   1  15
ATOM     15  C   UNL     1       3.500   7.418  17.467  0.00  0.00    +0.000 C 
BRANCH  15  16
ATOM     16  N   UNL     1       2.627   7.800  18.570  0.00  0.00    +0.000 N 
ATOM     17  C   UNL     1       1.890   8.965  18.555  0.00  0.00    +0.000 C 
ATOM     18  O   UNL     1       1.857   9.715  17.585  0.00  0.00    +0.000 OA
ATOM     19  H   UNL     1       2.632   7.237  19.413  0.00  0.00    +0.000 HD
BRANCH  17  20
ATOM     20  C   UNL     1       1.057   9.263  19.753  0.00  0.00    +0.000 A 
ATOM     21  C   UNL     1       1.465   8.675  20.963  0.00  0.00    +0.000 A 
ATOM     22  C   UNL     1       0.760   8.906  22.145  0.00  0.00    +0.000 A 
ATOM     23  C   UNL     1      -0.365   9.724  22.134  0.00  0.00    +0.000 A 
ATOM     24  C   UNL     1      -0.793  10.299  20.936  0.00  0.00    +0.000 A 
ATOM     25  C   UNL     1      -0.092  10.066  19.744  0.00  0.00    +0.000 A 
ATOM     26 CL   UNL     1      -0.754  10.774  18.312  0.00  0.00    +0.000 Cl
ENDBRANCH  17  20
ENDBRANCH  15  16
ENDBRANCH   1  15
TORSDOF 5
ENDMDL
MODEL 9
REMARK VINA RESULT:      -7.9      2.025      4.682
REMARK  Name = 
REMARK  6 active torsions:
REMARK  status: ('A' for Active; 'I' for Inactive)
REMARK    1  A    between atoms: C_1  and  C_2
REMARK    2  A    between atoms: C_5  and  C_6
REMARK    3  A    between atoms: C_6  and  C_7
REMARK    4  A    between atoms: C_6  and  C_18
REMARK    5  A    between atoms: C_7  and  N_8
REMARK    6  A    between atoms: C_9  and  C_11
REMARK                            x       y       z     vdW  Elec       q    Type
REMARK                         _______ _______ _______ _____ _____    ______ ____
ROOT
ATOM      1  C   UNL     1       3.323   6.933  17.425  0.00  0.00    +0.000 C 
ENDROOT
BRANCH   1   6
ATOM      2  C   UNL     1       1.122   2.950  20.908  0.00  0.00    +0.000 C 
ATOM      3  C   UNL     1       1.682   3.991  19.992  0.00  0.00    +0.000 A 
ATOM      4  N   UNL     1       2.316   5.040  20.544  0.00  0.00    +0.000 NA
ATOM      5  C   UNL     1       2.813   5.956  19.691  0.00  0.00    +0.000 A 
ATOM      6  C   UNL     1       2.711   5.873  18.314  0.00  0.00    +0.000 A 
ATOM      7  C   UNL     1       2.012   4.769  17.866  0.00  0.00    +0.000 A 
ATOM      8  N   UNL     1       1.494   3.821  18.671  0.00  0.00    +0.000 NA
ENDBRANCH   1   6
BRANCH   1   9
ATOM      9  C   UNL     1       4.720   6.552  16.947  0.00  0.00    +0.000 A 
ATOM     10  C   UNL     1       4.867   5.681  15.859  0.00  0.00    +0.000 A 
ATOM     11  C   UNL     1       6.140   5.296  15.470  0.00  0.00    +0.000 A 
ATOM     12  N   UNL     1       7.268   5.722  16.075  0.00  0.00    +0.000 NA
ATOM     13  C   UNL     1       7.113   6.573  17.111  0.00  0.00    +0.000 A 
ATOM     14  C   UNL     1       5.882   7.017  17.574  0.00  0.00    +0.000 A 
ENDBRANCH   1   9
BRANCH   1  15
ATOM     15  C   UNL     1       3.292   8.367  18.016  0.00  0.00    +0.000 C 
BRANCH  15  16
ATOM     16  N   UNL     1       2.063   9.092  17.716  0.00  0.00    +0.000 N 
ATOM     17  C   UNL     1       1.137   9.404  18.689  0.00  0.00    +0.000 C 
ATOM     18  O   UNL     1       1.319   9.163  19.877  0.00  0.00    +0.000 OA
ATOM     19  H   UNL     1       1.842   9.295  16.748  0.00  0.00    +0.000 HD
BRANCH  17  20
ATOM     20  C   UNL     1      -0.094  10.122  18.255  0.00  0.00    +0.000 A 
ATOM     21  C   UNL     1      -0.935   9.440  17.359  0.00  0.00    +0.000 A 
ATOM     22  C   UNL     1      -2.121  10.022  16.906  0.00  0.00    +0.000 A 
ATOM     23  C   UNL     1      -2.479  11.294  17.339  0.00  0.00    +0.000 A 
ATOM     24  C   UNL     1      -1.642  11.991  18.214  0.00  0.00    +0.000 A 
ATOM     25  C   UNL     1      -0.448  11.414  18.668  0.00  0.00    +0.000 A 
ATOM     26 CL   UNL     1       0.539  12.396  19.693  0.00  0.00    +0.000 Cl
ENDBRANCH  17  20
ENDBRANCH  15  16
ENDBRANCH   1  15
TORSDOF 5
ENDMDL
