MODEL 1
REMARK VINA RESULT:      -8.7      0.000      0.000
REMARK  Name = 
REMARK  7 active torsions:
REMARK  status: ('A' for Active; 'I' for Inactive)
REMARK    1  A    between atoms: C_8  and  O_9
REMARK    2  A    between atoms: O_9  and  C_10
REMARK    3  A    between atoms: C_10  and  C_11
REMARK    4  A    between atoms: C_11  and  C_12
REMARK    5  A    between atoms: C_19  and  C_20
REMARK    6  A    between atoms: C_20  and  C_21
REMARK    7  A    between atoms: C_26  and  O_27
REMARK                            x       y       z     vdW  Elec       q    Type
REMARK                         _______ _______ _______ _____ _____    ______ ____
ROOT
ATOM      1  O   UNL     1       4.651   5.687  19.529  0.00  0.00    +0.000 OA
ATOM      2  C   UNL     1       3.476   5.389  19.665  0.00  0.00    +0.000 C 
ATOM      3  C   UNL     1       2.842   4.162  19.139  0.00  0.00    +0.000 A 
ATOM      4  C   UNL     1       1.548   4.151  19.686  0.00  0.00    +0.000 A 
ATOM      5  C   UNL     1       0.654   3.127  19.423  0.00  0.00    +0.000 A 
ATOM      6  C   UNL     1       1.057   2.098  18.594  0.00  0.00    +0.000 A 
ATOM      7  C   UNL     1       2.344   2.105  18.039  0.00  0.00    +0.000 A 
ATOM      8  C   UNL     1       3.279   3.136  18.286  0.00  0.00    +0.000 A 
ATOM      9  C   UNL     1       1.246   5.302  20.592  0.00  0.00    +0.000 C 
ATOM     10  C   UNL     1       2.446   6.241  20.428  0.00  0.00    +0.000 C 
ENDROOT
BRANCH   8  11
ATOM     11  O   UNL     1       4.541   3.132  17.706  0.00  0.00    +0.000 OA
BRANCH  11  12
ATOM     12  C   UNL     1       4.614   3.880  16.466  0.00  0.00    +0.000 C 
BRANCH  12  13
ATOM     13  C   UNL     1       6.013   4.229  15.941  0.00  0.00    +0.000 C 
BRANCH  13  14
ATOM     14  C   UNL     1       6.698   5.198  16.904  0.00  0.00    +0.000 A 
ATOM     15  C   UNL     1       6.664   6.586  16.684  0.00  0.00    +0.000 A 
ATOM     16  C   UNL     1       7.354   7.465  17.530  0.00  0.00    +0.000 A 
ATOM     17  C   UNL     1       8.084   6.974  18.604  0.00  0.00    +0.000 A 
ATOM     18  C   UNL     1       8.134   5.602  18.837  0.00  0.00    +0.000 A 
ATOM     19  C   UNL     1       7.448   4.719  17.993  0.00  0.00    +0.000 A 
ENDBRANCH  13  14
ENDBRANCH  12  13
ENDBRANCH  11  12
ENDBRANCH   8  11
BRANCH  10  20
ATOM     20  C   UNL     1       2.102   7.529  19.657  0.00  0.00    +0.000 C 
BRANCH  20  21
ATOM     21  C   UNL     1       1.275   8.564  20.410  0.00  0.00    +0.000 A 
ATOM     22  C   UNL     1       1.170   8.522  21.810  0.00  0.00    +0.000 A 
ATOM     23  C   UNL     1       0.444   9.497  22.510  0.00  0.00    +0.000 A 
ATOM     24  C   UNL     1      -0.190  10.532  21.823  0.00  0.00    +0.000 A 
ATOM     25  C   UNL     1      -0.096  10.594  20.436  0.00  0.00    +0.000 A 
ATOM     26  C   UNL     1       0.634   9.621  19.744  0.00  0.00    +0.000 A 
BRANCH  26  27
ATOM     27  O   UNL     1       0.726   9.701  18.381  0.00  0.00    +0.000 OA
ATOM     28  H   UNL     1      -0.168   9.642  18.007  0.00  0.00    +0.000 HD
ENDBRANCH  26  27
ENDBRANCH  20  21
ENDBRANCH  10  20
TORSDOF 7
ENDMDL
MODEL 2
REMARK VINA RESULT:      -8.7      2.484      7.396
REMARK  Name = 
REMARK  7 active torsions:
REMARK  status: ('A' for Active; 'I' for Inactive)
REMARK    1  A    between atoms: C_8  and  O_9
REMARK    2  A    between atoms: O_9  and  C_10
REMARK    3  A    between atoms: C_10  and  C_11
REMARK    4  A    between atoms: C_11  and  C_12
REMARK    5  A    between atoms: C_19  and  C_20
REMARK    6  A    between atoms: C_20  and  C_21
REMARK    7  A    between atoms: C_26  and  O_27
REMARK                            x       y       z     vdW  Elec       q    Type
REMARK                         _______ _______ _______ _____ _____    ______ ____
ROOT
ATOM      1  O   UNL     1       5.630   4.230  18.942  0.00  0.00    +0.000 OA
ATOM      2  C   UNL     1       5.197   5.066  18.166  0.00  0.00    +0.000 C 
ATOM      3  C   UNL     1       4.083   5.995  18.450  0.00  0.00    +0.000 A 
ATOM      4  C   UNL     1       4.057   6.882  17.361  0.00  0.00    +0.000 A 
ATOM      5  C   UNL     1       3.138   7.916  17.286  0.00  0.00    +0.000 A 
ATOM      6  C   UNL     1       2.227   8.063  18.313  0.00  0.00    +0.000 A 
ATOM      7  C   UNL     1       2.243   7.178  19.400  0.00  0.00    +0.000 A 
ATOM      8  C   UNL     1       3.165   6.112  19.506  0.00  0.00    +0.000 A 
ATOM      9  C   UNL     1       5.114   6.637  16.333  0.00  0.00    +0.000 C 
ATOM     10  C   UNL     1       5.753   5.309  16.752  0.00  0.00    +0.000 C 
ENDROOT
BRANCH   8  11
ATOM     11  O   UNL     1       3.146   5.234  20.581  0.00  0.00    +0.000 OA
BRANCH  11  12
ATOM     12  C   UNL     1       1.824   5.025  21.139  0.00  0.00    +0.000 C 
BRANCH  12  13
ATOM     13  C   UNL     1       1.070   3.764  20.699  0.00  0.00    +0.000 C 
BRANCH  13  14
ATOM     14  C   UNL     1       1.778   3.130  19.502  0.00  0.00    +0.000 A 
ATOM     15  C   UNL     1       2.762   2.142  19.681  0.00  0.00    +0.000 A 
ATOM     16  C   UNL     1       3.460   1.616  18.585  0.00  0.00    +0.000 A 
ATOM     17  C   UNL     1       3.185   2.065  17.300  0.00  0.00    +0.000 A 
ATOM     18  C   UNL     1       2.217   3.046  17.102  0.00  0.00    +0.000 A 
ATOM     19  C   UNL     1       1.518   3.577  18.195  0.00  0.00    +0.000 A 
ENDBRANCH  13  14
ENDBRANCH  12  13
ENDBRANCH  11  12
ENDBRANCH   8  11
BRANCH  10  20
ATOM     20  C   UNL     1       5.402   4.146  15.805  0.00  0.00    +0.000 C 
BRANCH  20  21
ATOM     21  C   UNL     1       6.044   4.186  14.423  0.00  0.00    +0.000 A 
ATOM     22  C   UNL     1       5.459   3.516  13.337  0.00  0.00    +0.000 A 
ATOM     23  C   UNL     1       6.025   3.585  12.056  0.00  0.00    +0.000 A 
ATOM     24  C   UNL     1       7.187   4.325  11.837  0.00  0.00    +0.000 A 
ATOM     25  C   UNL     1       7.781   4.999  12.899  0.00  0.00    +0.000 A 
ATOM     26  C   UNL     1       7.210   4.930  14.174  0.00  0.00    +0.000 A 
BRANCH  26  27
ATOM     27  O   UNL     1       7.799   5.606  15.207  0.00  0.00    +0.000 OA
ATOM     28  H   UNL     1       8.703   5.845  14.945  0.00  0.00    +0.000 HD
ENDBRANCH  26  27
ENDBRANCH  20  21
ENDBRANCH  10  20
TORSDOF 7
ENDMDL
MODEL 3
REMARK VINA RESULT:      -8.4      1.511      2.592
REMARK  Name = 
REMARK  7 active torsions:
REMARK  status: ('A' for Active; 'I' for Inactive)
REMARK    1  A    between atoms: C_8  and  O_9
REMARK    2  A    between atoms: O_9  and  C_10
REMARK    3  A    between atoms: C_10  and  C_11
REMARK    4  A    between atoms: C_11  and  C_12
REMARK    5  A    between atoms: C_19  and  C_20
REMARK    6  A    between atoms: C_20  and  C_21
REMARK    7  A    between atoms: C_26  and  O_27
REMARK                            x       y       z     vdW  Elec       q    Type
REMARK                         _______ _______ _______ _____ _____    ______ ____
ROOT
ATOM      1  O   UNL     1       4.715   5.848  19.224  0.00  0.00    +0.000 OA
ATOM      2  C   UNL     1       3.558   5.521  19.427  0.00  0.00    +0.000 C 
ATOM      3  C   UNL     1       2.942   4.252  18.985  0.00  0.00    +0.000 A 
ATOM      4  C   UNL     1       1.675   4.226  19.591  0.00  0.00    +0.000 A 
ATOM      5  C   UNL     1       0.803   3.164  19.414  0.00  0.00    +0.000 A 
ATOM      6  C   UNL     1       1.203   2.112  18.615  0.00  0.00    +0.000 A 
ATOM      7  C   UNL     1       2.463   2.132  18.001  0.00  0.00    +0.000 A 
ATOM      8  C   UNL     1       3.374   3.201  18.159  0.00  0.00    +0.000 A 
ATOM      9  C   UNL     1       1.376   5.407  20.458  0.00  0.00    +0.000 C 
ATOM     10  C   UNL     1       2.536   6.374  20.198  0.00  0.00    +0.000 C 
ENDROOT
BRANCH   8  11
ATOM     11  O   UNL     1       4.608   3.210  17.522  0.00  0.00    +0.000 OA
BRANCH  11  12
ATOM     12  C   UNL     1       4.645   4.041  16.335  0.00  0.00    +0.000 C 
BRANCH  12  13
ATOM     13  C   UNL     1       5.971   4.744  16.015  0.00  0.00    +0.000 C 
BRANCH  13  14
ATOM     14  C   UNL     1       6.317   4.545  14.540  0.00  0.00    +0.000 A 
ATOM     15  C   UNL     1       5.598   3.639  13.741  0.00  0.00    +0.000 A 
ATOM     16  C   UNL     1       5.965   3.407  12.408  0.00  0.00    +0.000 A 
ATOM     17  C   UNL     1       7.049   4.075  11.855  0.00  0.00    +0.000 A 
ATOM     18  C   UNL     1       7.778   4.973  12.631  0.00  0.00    +0.000 A 
ATOM     19  C   UNL     1       7.416   5.206  13.965  0.00  0.00    +0.000 A 
ENDBRANCH  13  14
ENDBRANCH  12  13
ENDBRANCH  11  12
ENDBRANCH   8  11
BRANCH  10  20
ATOM     20  C   UNL     1       2.117   7.615  19.387  0.00  0.00    +0.000 C 
BRANCH  20  21
ATOM     21  C   UNL     1       1.338   8.683  20.146  0.00  0.00    +0.000 A 
ATOM     22  C   UNL     1       1.217   8.629  21.544  0.00  0.00    +0.000 A 
ATOM     23  C   UNL     1       0.536   9.632  22.249  0.00  0.00    +0.000 A 
ATOM     24  C   UNL     1      -0.037  10.707  21.569  0.00  0.00    +0.000 A 
ATOM     25  C   UNL     1       0.075  10.782  20.184  0.00  0.00    +0.000 A 
ATOM     26  C   UNL     1       0.759   9.780  19.487  0.00  0.00    +0.000 A 
BRANCH  26  27
ATOM     27  O   UNL     1       0.869   9.870  18.126  0.00  0.00    +0.000 OA
ATOM     28  H   UNL     1       1.682  10.356  17.913  0.00  0.00    +0.000 HD
ENDBRANCH  26  27
ENDBRANCH  20  21
ENDBRANCH  10  20
TORSDOF 7
ENDMDL
MODEL 4
REMARK VINA RESULT:      -8.3      1.452      6.786
REMARK  Name = 
REMARK  7 active torsions:
REMARK  status: ('A' for Active; 'I' for Inactive)
REMARK    1  A    between atoms: C_8  and  O_9
REMARK    2  A    between atoms: O_9  and  C_10
REMARK    3  A    between atoms: C_10  and  C_11
REMARK    4  A    between atoms: C_11  and  C_12
REMARK    5  A    between atoms: C_19  and  C_20
REMARK    6  A    between atoms: C_20  and  C_21
REMARK    7  A    between atoms: C_26  and  O_27
REMARK                            x       y       z     vdW  Elec       q    Type
REMARK                         _______ _______ _______ _____ _____    ______ ____
ROOT
ATOM      1  O   UNL     1       3.724   6.534  18.437  0.00  0.00    +0.000 OA
ATOM      2  C   UNL     1       3.359   5.402  18.171  0.00  0.00    +0.000 C 
ATOM      3  C   UNL     1       2.420   4.597  18.980  0.00  0.00    +0.000 A 
ATOM      4  C   UNL     1       2.151   3.455  18.207  0.00  0.00    +0.000 A 
ATOM      5  C   UNL     1       1.286   2.466  18.645  0.00  0.00    +0.000 A 
ATOM      6  C   UNL     1       0.683   2.617  19.878  0.00  0.00    +0.000 A 
ATOM      7  C   UNL     1       0.951   3.750  20.658  0.00  0.00    +0.000 A 
ATOM      8  C   UNL     1       1.830   4.776  20.242  0.00  0.00    +0.000 A 
ATOM      9  C   UNL     1       2.838   3.426  16.879  0.00  0.00    +0.000 C 
ATOM     10  C   UNL     1       3.804   4.615  16.925  0.00  0.00    +0.000 C 
ENDROOT
BRANCH   8  11
ATOM     11  O   UNL     1       2.098   5.878  21.043  0.00  0.00    +0.000 OA
BRANCH  11  12
ATOM     12  C   UNL     1       1.088   6.915  20.963  0.00  0.00    +0.000 C 
BRANCH  12  13
ATOM     13  C   UNL     1       1.562   8.324  20.580  0.00  0.00    +0.000 C 
BRANCH  13  14
ATOM     14  C   UNL     1       0.732   9.368  21.326  0.00  0.00    +0.000 A 
ATOM     15  C   UNL     1       0.119   9.066  22.554  0.00  0.00    +0.000 A 
ATOM     16  C   UNL     1      -0.699  10.004  23.199  0.00  0.00    +0.000 A 
ATOM     17  C   UNL     1      -0.916  11.251  22.630  0.00  0.00    +0.000 A 
ATOM     18  C   UNL     1      -0.322  11.568  21.411  0.00  0.00    +0.000 A 
ATOM     19  C   UNL     1       0.496  10.634  20.762  0.00  0.00    +0.000 A 
ENDBRANCH  13  14
ENDBRANCH  12  13
ENDBRANCH  11  12
ENDBRANCH   8  11
BRANCH  10  20
ATOM     20  C   UNL     1       5.281   4.189  17.030  0.00  0.00    +0.000 C 
BRANCH  20  21
ATOM     21  C   UNL     1       6.249   5.242  17.558  0.00  0.00    +0.000 A 
ATOM     22  C   UNL     1       6.919   5.057  18.778  0.00  0.00    +0.000 A 
ATOM     23  C   UNL     1       7.841   6.004  19.246  0.00  0.00    +0.000 A 
ATOM     24  C   UNL     1       8.110   7.154  18.504  0.00  0.00    +0.000 A 
ATOM     25  C   UNL     1       7.459   7.355  17.290  0.00  0.00    +0.000 A 
ATOM     26  C   UNL     1       6.543   6.404  16.826  0.00  0.00    +0.000 A 
BRANCH  26  27
ATOM     27  O   UNL     1       5.918   6.610  15.627  0.00  0.00    +0.000 OA
ATOM     28  H   UNL     1       5.132   7.160  15.778  0.00  0.00    +0.000 HD
ENDBRANCH  26  27
ENDBRANCH  20  21
ENDBRANCH  10  20
TORSDOF 7
ENDMDL
MODEL 5
REMARK VINA RESULT:      -8.3      1.450      7.091
REMARK  Name = 
REMARK  7 active torsions:
REMARK  status: ('A' for Active; 'I' for Inactive)
REMARK    1  A    between atoms: C_8  and  O_9
REMARK    2  A    between atoms: O_9  and  C_10
REMARK    3  A    between atoms: C_10  and  C_11
REMARK    4  A    between atoms: C_11  and  C_12
REMARK    5  A    between atoms: C_19  and  C_20
REMARK    6  A    between atoms: C_20  and  C_21
REMARK    7  A    between atoms: C_26  and  O_27
REMARK                            x       y       z     vdW  Elec       q    Type
REMARK                         _______ _______ _______ _____ _____    ______ ____
ROOT
ATOM      1  O   UNL     1       3.772   6.572  17.247  0.00  0.00    +0.000 OA
ATOM      2  C   UNL     1       3.437   5.443  17.564  0.00  0.00    +0.000 C 
ATOM      3  C   UNL     1       2.668   5.092  18.776  0.00  0.00    +0.000 A 
ATOM      4  C   UNL     1       2.358   3.729  18.635  0.00  0.00    +0.000 A 
ATOM      5  C   UNL     1       1.620   3.046  19.587  0.00  0.00    +0.000 A 
ATOM      6  C   UNL     1       1.188   3.736  20.703  0.00  0.00    +0.000 A 
ATOM      7  C   UNL     1       1.498   5.094  20.854  0.00  0.00    +0.000 A 
ATOM      8  C   UNL     1       2.251   5.819  19.903  0.00  0.00    +0.000 A 
ATOM      9  C   UNL     1       2.854   3.106  17.368  0.00  0.00    +0.000 C 
ATOM     10  C   UNL     1       3.748   4.180  16.741  0.00  0.00    +0.000 C 
ENDROOT
BRANCH   8  11
ATOM     11  O   UNL     1       2.565   7.159  20.087  0.00  0.00    +0.000 OA
BRANCH  11  12
ATOM     12  C   UNL     1       1.422   7.985  20.421  0.00  0.00    +0.000 C 
BRANCH  12  13
ATOM     13  C   UNL     1       1.408   8.631  21.813  0.00  0.00    +0.000 C 
BRANCH  13  14
ATOM     14  C   UNL     1       0.330   9.712  21.869  0.00  0.00    +0.000 A 
ATOM     15  C   UNL     1       0.083  10.550  20.767  0.00  0.00    +0.000 A 
ATOM     16  C   UNL     1      -0.857  11.586  20.849  0.00  0.00    +0.000 A 
ATOM     17  C   UNL     1      -1.563  11.799  22.025  0.00  0.00    +0.000 A 
ATOM     18  C   UNL     1      -1.331  10.982  23.128  0.00  0.00    +0.000 A 
ATOM     19  C   UNL     1      -0.391   9.946  23.053  0.00  0.00    +0.000 A 
ENDBRANCH  13  14
ENDBRANCH  12  13
ENDBRANCH  11  12
ENDBRANCH   8  11
BRANCH  10  20
ATOM     20  C   UNL     1       5.246   3.828  16.799  0.00  0.00    +0.000 C 
BRANCH  20  21
ATOM     21  C   UNL     1       6.161   4.880  17.416  0.00  0.00    +0.000 A 
ATOM     22  C   UNL     1       6.572   4.781  18.755  0.00  0.00    +0.000 A 
ATOM     23  C   UNL     1       7.447   5.724  19.313  0.00  0.00    +0.000 A 
ATOM     24  C   UNL     1       7.926   6.784  18.543  0.00  0.00    +0.000 A 
ATOM     25  C   UNL     1       7.534   6.899  17.213  0.00  0.00    +0.000 A 
ATOM     26  C   UNL     1       6.664   5.952  16.660  0.00  0.00    +0.000 A 
BRANCH  26  27
ATOM     27  O   UNL     1       6.294   6.071  15.349  0.00  0.00    +0.000 OA
ATOM     28  H   UNL     1       5.815   5.268  15.088  0.00  0.00    +0.000 HD
ENDBRANCH  26  27
ENDBRANCH  20  21
ENDBRANCH  10  20
TORSDOF 7
ENDMDL
MODEL 6
REMARK VINA RESULT:      -8.2      1.413      1.982
REMARK  Name = 
REMARK  7 active torsions:
REMARK  status: ('A' for Active; 'I' for Inactive)
REMARK    1  A    between atoms: C_8  and  O_9
REMARK    2  A    between atoms: O_9  and  C_10
REMARK    3  A    between atoms: C_10  and  C_11
REMARK    4  A    between atoms: C_11  and  C_12
REMARK    5  A    between atoms: C_19  and  C_20
REMARK    6  A    between atoms: C_20  and  C_21
REMARK    7  A    between atoms: C_26  and  O_27
REMARK                            x       y       z     vdW  Elec       q    Type
REMARK                         _______ _______ _______ _____ _____    ______ ____
ROOT
ATOM      1  O   UNL     1       3.344   7.096  17.752  0.00  0.00    +0.000 OA
ATOM      2  C   UNL     1       2.679   6.680  18.686  0.00  0.00    +0.000 C 
ATOM      3  C   UNL     1       2.318   5.264  18.911  0.00  0.00    +0.000 A 
ATOM      4  C   UNL     1       1.719   5.233  20.181  0.00  0.00    +0.000 A 
ATOM      5  C   UNL     1       1.260   4.053  20.742  0.00  0.00    +0.000 A 
ATOM      6  C   UNL     1       1.398   2.884  20.019  0.00  0.00    +0.000 A 
ATOM      7  C   UNL     1       1.989   2.907  18.749  0.00  0.00    +0.000 A 
ATOM      8  C   UNL     1       2.465   4.095  18.147  0.00  0.00    +0.000 A 
ATOM      9  C   UNL     1       1.659   6.557  20.873  0.00  0.00    +0.000 C 
ATOM     10  C   UNL     1       2.109   7.564  19.809  0.00  0.00    +0.000 C 
ENDROOT
BRANCH   8  11
ATOM     11  O   UNL     1       3.026   4.096  16.877  0.00  0.00    +0.000 OA
BRANCH  11  12
ATOM     12  C   UNL     1       4.445   3.800  16.867  0.00  0.00    +0.000 C 
BRANCH  12  13
ATOM     13  C   UNL     1       5.349   4.736  16.053  0.00  0.00    +0.000 C 
BRANCH  13  14
ATOM     14  C   UNL     1       6.329   5.447  16.986  0.00  0.00    +0.000 A 
ATOM     15  C   UNL     1       6.727   4.864  18.201  0.00  0.00    +0.000 A 
ATOM     16  C   UNL     1       7.570   5.552  19.086  0.00  0.00    +0.000 A 
ATOM     17  C   UNL     1       8.026   6.824  18.771  0.00  0.00    +0.000 A 
ATOM     18  C   UNL     1       7.639   7.421  17.574  0.00  0.00    +0.000 A 
ATOM     19  C   UNL     1       6.796   6.738  16.687  0.00  0.00    +0.000 A 
ENDBRANCH  13  14
ENDBRANCH  12  13
ENDBRANCH  11  12
ENDBRANCH   8  11
BRANCH  10  20
ATOM     20  C   UNL     1       0.960   8.452  19.295  0.00  0.00    +0.000 C 
BRANCH  20  21
ATOM     21  C   UNL     1       1.169   9.957  19.412  0.00  0.00    +0.000 A 
ATOM     22  C   UNL     1       0.792  10.648  20.575  0.00  0.00    +0.000 A 
ATOM     23  C   UNL     1       1.021  12.026  20.702  0.00  0.00    +0.000 A 
ATOM     24  C   UNL     1       1.629  12.739  19.668  0.00  0.00    +0.000 A 
ATOM     25  C   UNL     1       2.014  12.072  18.508  0.00  0.00    +0.000 A 
ATOM     26  C   UNL     1       1.787  10.696  18.389  0.00  0.00    +0.000 A 
BRANCH  26  27
ATOM     27  O   UNL     1       2.178  10.052  17.248  0.00  0.00    +0.000 OA
ATOM     28  H   UNL     1       1.464   9.457  16.968  0.00  0.00    +0.000 HD
ENDBRANCH  26  27
ENDBRANCH  20  21
ENDBRANCH  10  20
TORSDOF 7
ENDMDL
MODEL 7
REMARK VINA RESULT:      -8.2      1.301      7.122
REMARK  Name = 
REMARK  7 active torsions:
REMARK  status: ('A' for Active; 'I' for Inactive)
REMARK    1  A    between atoms: C_8  and  O_9
REMARK    2  A    between atoms: O_9  and  C_10
REMARK    3  A    between atoms: C_10  and  C_11
REMARK    4  A    between atoms: C_11  and  C_12
REMARK    5  A    between atoms: C_19  and  C_20
REMARK    6  A    between atoms: C_20  and  C_21
REMARK    7  A    between atoms: C_26  and  O_27
REMARK                            x       y       z     vdW  Elec       q    Type
REMARK                         _______ _______ _______ _____ _____    ______ ____
ROOT
ATOM      1  O   UNL     1       3.747   6.635  17.278  0.00  0.00    +0.000 OA
ATOM      2  C   UNL     1       3.365   5.501  17.515  0.00  0.00    +0.000 C 
ATOM      3  C   UNL     1       2.602   5.092  18.713  0.00  0.00    +0.000 A 
ATOM      4  C   UNL     1       2.225   3.760  18.474  0.00  0.00    +0.000 A 
ATOM      5  C   UNL     1       1.473   3.040  19.388  0.00  0.00    +0.000 A 
ATOM      6  C   UNL     1       1.095   3.660  20.562  0.00  0.00    +0.000 A 
ATOM      7  C   UNL     1       1.472   4.987  20.811  0.00  0.00    +0.000 A 
ATOM      8  C   UNL     1       2.241   5.748  19.901  0.00  0.00    +0.000 A 
ATOM      9  C   UNL     1       2.668   3.216  17.153  0.00  0.00    +0.000 C 
ATOM     10  C   UNL     1       3.601   4.293  16.591  0.00  0.00    +0.000 C 
ENDROOT
BRANCH   8  11
ATOM     11  O   UNL     1       2.622   7.054  20.180  0.00  0.00    +0.000 OA
BRANCH  11  12
ATOM     12  C   UNL     1       1.507   7.970  20.315  0.00  0.00    +0.000 C 
BRANCH  12  13
ATOM     13  C   UNL     1       1.033   8.292  21.739  0.00  0.00    +0.000 C 
BRANCH  13  14
ATOM     14  C   UNL     1       0.127   9.522  21.715  0.00  0.00    +0.000 A 
ATOM     15  C   UNL     1      -0.178  10.176  20.509  0.00  0.00    +0.000 A 
ATOM     16  C   UNL     1      -0.952  11.346  20.501  0.00  0.00    +0.000 A 
ATOM     17  C   UNL     1      -1.432  11.874  21.691  0.00  0.00    +0.000 A 
ATOM     18  C   UNL     1      -1.138  11.243  22.897  0.00  0.00    +0.000 A 
ATOM     19  C   UNL     1      -0.363  10.076  22.910  0.00  0.00    +0.000 A 
ENDBRANCH  13  14
ENDBRANCH  12  13
ENDBRANCH  11  12
ENDBRANCH   8  11
BRANCH  10  20
ATOM     20  C   UNL     1       5.081   3.869  16.589  0.00  0.00    +0.000 C 
BRANCH  20  21
ATOM     21  C   UNL     1       6.052   4.811  17.293  0.00  0.00    +0.000 A 
ATOM     22  C   UNL     1       6.673   5.858  16.593  0.00  0.00    +0.000 A 
ATOM     23  C   UNL     1       7.534   6.751  17.247  0.00  0.00    +0.000 A 
ATOM     24  C   UNL     1       7.791   6.613  18.611  0.00  0.00    +0.000 A 
ATOM     25  C   UNL     1       7.182   5.584  19.323  0.00  0.00    +0.000 A 
ATOM     26  C   UNL     1       6.320   4.699  18.667  0.00  0.00    +0.000 A 
BRANCH  26  27
ATOM     27  O   UNL     1       5.722   3.698  19.381  0.00  0.00    +0.000 OA
ATOM     28  H   UNL     1       6.327   2.939  19.417  0.00  0.00    +0.000 HD
ENDBRANCH  26  27
ENDBRANCH  20  21
ENDBRANCH  10  20
TORSDOF 7
ENDMDL
MODEL 8
REMARK VINA RESULT:      -8.1      2.073      7.692
REMARK  Name = 
REMARK  7 active torsions:
REMARK  status: ('A' for Active; 'I' for Inactive)
REMARK    1  A    between atoms: C_8  and  O_9
REMARK    2  A    between atoms: O_9  and  C_10
REMARK    3  A    between atoms: C_10  and  C_11
REMARK    4  A    between atoms: C_11  and  C_12
REMARK    5  A    between atoms: C_19  and  C_20
REMARK    6  A    between atoms: C_20  and  C_21
REMARK    7  A    between atoms: C_26  and  O_27
REMARK                            x       y       z     vdW  Elec       q    Type
REMARK                         _______ _______ _______ _____ _____    ______ ____
ROOT
ATOM      1  O   UNL     1       3.645   6.558  17.860  0.00  0.00    +0.000 OA
ATOM      2  C   UNL     1       3.348   5.376  17.836  0.00  0.00    +0.000 C 
ATOM      3  C   UNL     1       2.596   4.666  18.892  0.00  0.00    +0.000 A 
ATOM      4  C   UNL     1       2.328   3.392  18.362  0.00  0.00    +0.000 A 
ATOM      5  C   UNL     1       1.617   2.441  19.073  0.00  0.00    +0.000 A 
ATOM      6  C   UNL     1       1.169   2.765  20.339  0.00  0.00    +0.000 A 
ATOM      7  C   UNL     1       1.438   4.030  20.878  0.00  0.00    +0.000 A 
ATOM      8  C   UNL     1       2.162   5.023  20.179  0.00  0.00    +0.000 A 
ATOM      9  C   UNL     1       2.837   3.178  16.972  0.00  0.00    +0.000 C 
ATOM     10  C   UNL     1       3.694   4.416  16.684  0.00  0.00    +0.000 C 
ENDROOT
BRANCH   8  11
ATOM     11  O   UNL     1       2.436   6.261  20.744  0.00  0.00    +0.000 OA
BRANCH  11  12
ATOM     12  C   UNL     1       1.281   7.135  20.818  0.00  0.00    +0.000 C 
BRANCH  12  13
ATOM     13  C   UNL     1       1.456   8.570  20.304  0.00  0.00    +0.000 C 
BRANCH  13  14
ATOM     14  C   UNL     1       0.625   9.528  21.156  0.00  0.00    +0.000 A 
ATOM     15  C   UNL     1       0.165   9.154  22.430  0.00  0.00    +0.000 A 
ATOM     16  C   UNL     1      -0.657  10.009  23.178  0.00  0.00    +0.000 A 
ATOM     17  C   UNL     1      -1.028  11.245  22.667  0.00  0.00    +0.000 A 
ATOM     18  C   UNL     1      -0.585  11.634  21.405  0.00  0.00    +0.000 A 
ATOM     19  C   UNL     1       0.234  10.782  20.653  0.00  0.00    +0.000 A 
ENDBRANCH  13  14
ENDBRANCH  12  13
ENDBRANCH  11  12
ENDBRANCH   8  11
BRANCH  10  20
ATOM     20  C   UNL     1       5.202   4.109  16.645  0.00  0.00    +0.000 C 
BRANCH  20  21
ATOM     21  C   UNL     1       5.875   4.214  15.281  0.00  0.00    +0.000 A 
ATOM     22  C   UNL     1       5.390   3.488  14.181  0.00  0.00    +0.000 A 
ATOM     23  C   UNL     1       5.981   3.614  12.916  0.00  0.00    +0.000 A 
ATOM     24  C   UNL     1       7.068   4.468  12.726  0.00  0.00    +0.000 A 
ATOM     25  C   UNL     1       7.562   5.199  13.803  0.00  0.00    +0.000 A 
ATOM     26  C   UNL     1       6.965   5.072  15.062  0.00  0.00    +0.000 A 
BRANCH  26  27
ATOM     27  O   UNL     1       7.455   5.804  16.109  0.00  0.00    +0.000 OA
ATOM     28  H   UNL     1       7.536   6.730  15.827  0.00  0.00    +0.000 HD
ENDBRANCH  26  27
ENDBRANCH  20  21
ENDBRANCH  10  20
TORSDOF 7
ENDMDL
MODEL 9
REMARK VINA RESULT:      -8.1      1.692      2.716
REMARK  Name = 
REMARK  7 active torsions:
REMARK  status: ('A' for Active; 'I' for Inactive)
REMARK    1  A    between atoms: C_8  and  O_9
REMARK    2  A    between atoms: O_9  and  C_10
REMARK    3  A    between atoms: C_10  and  C_11
REMARK    4  A    between atoms: C_11  and  C_12
REMARK    5  A    between atoms: C_19  and  C_20
REMARK    6  A    between atoms: C_20  and  C_21
REMARK    7  A    between atoms: C_26  and  O_27
REMARK                            x       y       z     vdW  Elec       q    Type
REMARK                         _______ _______ _______ _____ _____    ______ ____
ROOT
ATOM      1  O   UNL     1       4.616   6.249  18.821  0.00  0.00    +0.000 OA
ATOM      2  C   UNL     1       3.513   5.851  19.159  0.00  0.00    +0.000 C 
ATOM      3  C   UNL     1       3.020   4.467  18.995  0.00  0.00    +0.000 A 
ATOM      4  C   UNL     1       1.796   4.427  19.683  0.00  0.00    +0.000 A 
ATOM      5  C   UNL     1       1.040   3.269  19.759  0.00  0.00    +0.000 A 
ATOM      6  C   UNL     1       1.513   2.133  19.133  0.00  0.00    +0.000 A 
ATOM      7  C   UNL     1       2.730   2.166  18.440  0.00  0.00    +0.000 A 
ATOM      8  C   UNL     1       3.524   3.331  18.340  0.00  0.00    +0.000 A 
ATOM      9  C   UNL     1       1.412   5.712  20.345  0.00  0.00    +0.000 C 
ATOM     10  C   UNL     1       2.443   6.725  19.836  0.00  0.00    +0.000 C 
ENDROOT
BRANCH   8  11
ATOM     11  O   UNL     1       4.715   3.345  17.627  0.00  0.00    +0.000 OA
BRANCH  11  12
ATOM     12  C   UNL     1       4.582   3.863  16.280  0.00  0.00    +0.000 C 
BRANCH  12  13
ATOM     13  C   UNL     1       5.595   4.926  15.836  0.00  0.00    +0.000 C 
BRANCH  13  14
ATOM     14  C   UNL     1       6.148   4.568  14.457  0.00  0.00    +0.000 A 
ATOM     15  C   UNL     1       7.314   5.177  13.962  0.00  0.00    +0.000 A 
ATOM     16  C   UNL     1       7.777   4.898  12.668  0.00  0.00    +0.000 A 
ATOM     17  C   UNL     1       7.087   4.009  11.855  0.00  0.00    +0.000 A 
ATOM     18  C   UNL     1       5.927   3.398  12.326  0.00  0.00    +0.000 A 
ATOM     19  C   UNL     1       5.460   3.676  13.617  0.00  0.00    +0.000 A 
ENDBRANCH  13  14
ENDBRANCH  12  13
ENDBRANCH  11  12
ENDBRANCH   8  11
BRANCH  10  20
ATOM     20  C   UNL     1       1.849   7.747  18.849  0.00  0.00    +0.000 C 
BRANCH  20  21
ATOM     21  C   UNL     1       1.371   9.064  19.450  0.00  0.00    +0.000 A 
ATOM     22  C   UNL     1       0.946   9.133  20.787  0.00  0.00    +0.000 A 
ATOM     23  C   UNL     1       0.545  10.351  21.355  0.00  0.00    +0.000 A 
ATOM     24  C   UNL     1       0.561  11.522  20.597  0.00  0.00    +0.000 A 
ATOM     25  C   UNL     1       0.982  11.476  19.271  0.00  0.00    +0.000 A 
ATOM     26  C   UNL     1       1.385  10.259  18.711  0.00  0.00    +0.000 A 
BRANCH  26  27
ATOM     27  O   UNL     1       1.805  10.230  17.410  0.00  0.00    +0.000 OA
ATOM     28  H   UNL     1       1.246  10.830  16.891  0.00  0.00    +0.000 HD
ENDBRANCH  26  27
ENDBRANCH  20  21
ENDBRANCH  10  20
TORSDOF 7
ENDMDL
