MODEL 1
REMARK VINA RESULT:      -9.4      0.000      0.000
REMARK  Name = 
REMARK  4 active torsions:
REMARK  status: ('A' for Active; 'I' for Inactive)
REMARK    1  A    between atoms: C_1  and  N_2
REMARK    2  A    between atoms: C_3  and  C_4
REMARK    3  A    between atoms: C_4  and  C_7
REMARK    4  A    between atoms: C_22  and  C_23
REMARK                            x       y       z     vdW  Elec       q    Type
REMARK                         _______ _______ _______ _____ _____    ______ ____
ROOT
ATOM      1  C   UNL     1       4.105   4.108  16.403  0.00  0.00    +0.000 C 
ATOM      2  N   UNL     1       5.343   4.619  15.860  0.00  0.00    +0.000 N 
ATOM      3  C   UNL     1       6.233   5.513  16.430  0.00  0.00    +0.000 A 
ATOM      4  N   UNL     1       7.215   5.776  15.572  0.00  0.00    +0.000 NA
ATOM      5  C   UNL     1       6.963   5.036  14.449  0.00  0.00    +0.000 A 
ATOM      6  C   UNL     1       7.675   4.959  13.243  0.00  0.00    +0.000 A 
ATOM      7  C   UNL     1       7.220   4.091  12.235  0.00  0.00    +0.000 A 
ATOM      8  C   UNL     1       6.071   3.307  12.423  0.00  0.00    +0.000 A 
ATOM      9  C   UNL     1       5.350   3.395  13.626  0.00  0.00    +0.000 A 
ATOM     10  C   UNL     1       5.818   4.274  14.612  0.00  0.00    +0.000 A 
ENDROOT
BRANCH   8  11
ATOM     11  C   UNL     1       5.541   2.360  11.397  0.00  0.00    +0.000 C 
ATOM     12  N   UNL     1       6.281   1.264  11.062  0.00  0.00    +0.000 N 
ATOM     13  O   UNL     1       4.456   2.551  10.855  0.00  0.00    +0.000 OA
ATOM     14  H   UNL     1       7.176   1.021  11.451  0.00  0.00    +0.000 HD
ATOM     15  H   UNL     1       5.883   0.649  10.364  0.00  0.00    +0.000 HD
ENDBRANCH   8  11
BRANCH   3  16
ATOM     16  C   UNL     1       6.063   6.175  17.777  0.00  0.00    +0.000 C 
ATOM     17  F   UNL     1       7.293   6.499  18.295  0.00  0.00    +0.000 F 
ATOM     18  F   UNL     1       5.429   7.377  17.627  0.00  0.00    +0.000 F 
BRANCH  16  19
ATOM     19  C   UNL     1       5.332   5.354  18.811  0.00  0.00    +0.000 A 
ATOM     20  N   UNL     1       5.613   4.132  19.235  0.00  0.00    +0.000 NA
ATOM     21  C   UNL     1       4.515   3.715  19.949  0.00  0.00    +0.000 A 
ATOM     22  C   UNL     1       4.227   2.472  20.540  0.00  0.00    +0.000 A 
ATOM     23  F   UNL     1       5.104   1.459  20.470  0.00  0.00    +0.000 F 
ATOM     24  C   UNL     1       3.004   2.273  21.177  0.00  0.00    +0.000 A 
ATOM     25  C   UNL     1       2.085   3.313  21.236  0.00  0.00    +0.000 A 
ATOM     26  F   UNL     1       0.909   3.103  21.844  0.00  0.00    +0.000 F 
ATOM     27  C   UNL     1       2.335   4.570  20.670  0.00  0.00    +0.000 A 
ATOM     28  C   UNL     1       3.565   4.731  20.024  0.00  0.00    +0.000 A 
ATOM     29  N   UNL     1       4.124   5.776  19.328  0.00  0.00    +0.000 N 
ATOM     30  H   UNL     1       3.688   6.667  19.130  0.00  0.00    +0.000 HD
ENDBRANCH  16  19
ENDBRANCH   3  16
TORSDOF 3
ENDMDL
MODEL 2
REMARK VINA RESULT:      -9.1      6.229      9.393
REMARK  Name = 
REMARK  4 active torsions:
REMARK  status: ('A' for Active; 'I' for Inactive)
REMARK    1  A    between atoms: C_1  and  N_2
REMARK    2  A    between atoms: C_3  and  C_4
REMARK    3  A    between atoms: C_4  and  C_7
REMARK    4  A    between atoms: C_22  and  C_23
REMARK                            x       y       z     vdW  Elec       q    Type
REMARK                         _______ _______ _______ _____ _____    ______ ____
ROOT
ATOM      1  C   UNL     1       1.457  11.291  18.490  0.00  0.00    +0.000 C 
ATOM      2  N   UNL     1       1.124  10.388  19.567  0.00  0.00    +0.000 N 
ATOM      3  C   UNL     1       1.370   9.028  19.663  0.00  0.00    +0.000 A 
ATOM      4  N   UNL     1       0.841   8.556  20.788  0.00  0.00    +0.000 NA
ATOM      5  C   UNL     1       0.263   9.620  21.426  0.00  0.00    +0.000 A 
ATOM      6  C   UNL     1      -0.444   9.667  22.637  0.00  0.00    +0.000 A 
ATOM      7  C   UNL     1      -0.924  10.905  23.101  0.00  0.00    +0.000 A 
ATOM      8  C   UNL     1      -0.702  12.082  22.370  0.00  0.00    +0.000 A 
ATOM      9  C   UNL     1      -0.006  12.032  21.151  0.00  0.00    +0.000 A 
ATOM     10  C   UNL     1       0.454  10.786  20.705  0.00  0.00    +0.000 A 
ENDROOT
BRANCH   8  11
ATOM     11  C   UNL     1      -1.176  13.428  22.811  0.00  0.00    +0.000 C 
ATOM     12  N   UNL     1      -1.956  14.166  21.969  0.00  0.00    +0.000 N 
ATOM     13  O   UNL     1      -0.880  13.878  23.915  0.00  0.00    +0.000 OA
ATOM     14  H   UNL     1      -2.253  13.884  21.050  0.00  0.00    +0.000 HD
ATOM     15  H   UNL     1      -2.256  15.070  22.309  0.00  0.00    +0.000 HD
ENDBRANCH   8  11
BRANCH   3  16
ATOM     16  C   UNL     1       2.042   8.187  18.604  0.00  0.00    +0.000 C 
ATOM     17  F   UNL     1       1.299   8.212  17.449  0.00  0.00    +0.000 F 
ATOM     18  F   UNL     1       3.237   8.751  18.253  0.00  0.00    +0.000 F 
BRANCH  16  19
ATOM     19  C   UNL     1       2.265   6.741  18.974  0.00  0.00    +0.000 A 
ATOM     20  N   UNL     1       2.302   5.687  18.174  0.00  0.00    +0.000 NA
ATOM     21  C   UNL     1       2.242   4.585  18.994  0.00  0.00    +0.000 A 
ATOM     22  C   UNL     1       2.152   3.216  18.681  0.00  0.00    +0.000 A 
ATOM     23  F   UNL     1       2.128   2.805  17.405  0.00  0.00    +0.000 F 
ATOM     24  C   UNL     1       2.050   2.277  19.704  0.00  0.00    +0.000 A 
ATOM     25  C   UNL     1       2.055   2.700  21.028  0.00  0.00    +0.000 A 
ATOM     26  F   UNL     1       1.948   1.783  22.000  0.00  0.00    +0.000 F 
ATOM     27  C   UNL     1       2.154   4.051  21.383  0.00  0.00    +0.000 A 
ATOM     28  C   UNL     1       2.238   4.970  20.333  0.00  0.00    +0.000 A 
ATOM     29  N   UNL     1       2.294   6.343  20.295  0.00  0.00    +0.000 N 
ATOM     30  H   UNL     1       2.253   6.968  21.090  0.00  0.00    +0.000 HD
ENDBRANCH  16  19
ENDBRANCH   3  16
TORSDOF 3
ENDMDL
MODEL 3
REMARK VINA RESULT:      -9.1      2.930      3.985
REMARK  Name = 
REMARK  4 active torsions:
REMARK  status: ('A' for Active; 'I' for Inactive)
REMARK    1  A    between atoms: C_1  and  N_2
REMARK    2  A    between atoms: C_3  and  C_4
REMARK    3  A    between atoms: C_4  and  C_7
REMARK    4  A    between atoms: C_22  and  C_23
REMARK                            x       y       z     vdW  Elec       q    Type
REMARK                         _______ _______ _______ _____ _____    ______ ____
ROOT
ATOM      1  C   UNL     1       3.299   3.405  16.894  0.00  0.00    +0.000 C 
ATOM      2  N   UNL     1       4.544   4.131  16.796  0.00  0.00    +0.000 N 
ATOM      3  C   UNL     1       5.169   4.910  17.755  0.00  0.00    +0.000 A 
ATOM      4  N   UNL     1       6.265   5.460  17.241  0.00  0.00    +0.000 NA
ATOM      5  C   UNL     1       6.353   5.023  15.948  0.00  0.00    +0.000 A 
ATOM      6  C   UNL     1       7.306   5.317  14.961  0.00  0.00    +0.000 A 
ATOM      7  C   UNL     1       7.191   4.711  13.697  0.00  0.00    +0.000 A 
ATOM      8  C   UNL     1       6.142   3.821  13.418  0.00  0.00    +0.000 A 
ATOM      9  C   UNL     1       5.181   3.537  14.402  0.00  0.00    +0.000 A 
ATOM     10  C   UNL     1       5.311   4.161  15.650  0.00  0.00    +0.000 A 
ENDROOT
BRANCH   8  11
ATOM     11  C   UNL     1       5.969   3.138  12.101  0.00  0.00    +0.000 C 
ATOM     12  N   UNL     1       4.736   3.124  11.518  0.00  0.00    +0.000 N 
ATOM     13  O   UNL     1       6.915   2.594  11.536  0.00  0.00    +0.000 OA
ATOM     14  H   UNL     1       3.904   3.543  11.899  0.00  0.00    +0.000 HD
ATOM     15  H   UNL     1       4.665   2.652  10.626  0.00  0.00    +0.000 HD
ENDBRANCH   8  11
BRANCH   3  16
ATOM     16  C   UNL     1       4.634   5.182  19.142  0.00  0.00    +0.000 C 
ATOM     17  F   UNL     1       4.220   4.006  19.719  0.00  0.00    +0.000 F 
ATOM     18  F   UNL     1       5.645   5.621  19.951  0.00  0.00    +0.000 F 
BRANCH  16  19
ATOM     19  C   UNL     1       3.485   6.156  19.210  0.00  0.00    +0.000 A 
ATOM     20  N   UNL     1       3.137   7.076  18.324  0.00  0.00    +0.000 NA
ATOM     21  C   UNL     1       2.223   7.887  18.956  0.00  0.00    +0.000 A 
ATOM     22  C   UNL     1       1.599   9.071  18.524  0.00  0.00    +0.000 A 
ATOM     23  F   UNL     1       1.852   9.574  17.306  0.00  0.00    +0.000 F 
ATOM     24  C   UNL     1       0.735   9.751  19.379  0.00  0.00    +0.000 A 
ATOM     25  C   UNL     1       0.485   9.243  20.648  0.00  0.00    +0.000 A 
ATOM     26  F   UNL     1      -0.341   9.915  21.462  0.00  0.00    +0.000 F 
ATOM     27  C   UNL     1       1.077   8.062  21.114  0.00  0.00    +0.000 A 
ATOM     28  C   UNL     1       1.952   7.414  20.237  0.00  0.00    +0.000 A 
ATOM     29  N   UNL     1       2.734   6.290  20.361  0.00  0.00    +0.000 N 
ATOM     30  H   UNL     1       2.834   5.715  21.187  0.00  0.00    +0.000 HD
ENDBRANCH  16  19
ENDBRANCH   3  16
TORSDOF 3
ENDMDL
MODEL 4
REMARK VINA RESULT:      -9.1      6.539      8.532
REMARK  Name = 
REMARK  4 active torsions:
REMARK  status: ('A' for Active; 'I' for Inactive)
REMARK    1  A    between atoms: C_1  and  N_2
REMARK    2  A    between atoms: C_3  and  C_4
REMARK    3  A    between atoms: C_4  and  C_7
REMARK    4  A    between atoms: C_22  and  C_23
REMARK                            x       y       z     vdW  Elec       q    Type
REMARK                         _______ _______ _______ _____ _____    ______ ____
ROOT
ATOM      1  C   UNL     1       1.144   7.272  21.238  0.00  0.00    +0.000 C 
ATOM      2  N   UNL     1       1.709   7.774  20.007  0.00  0.00    +0.000 N 
ATOM      3  C   UNL     1       1.483   8.989  19.383  0.00  0.00    +0.000 A 
ATOM      4  N   UNL     1       2.148   9.032  18.232  0.00  0.00    +0.000 NA
ATOM      5  C   UNL     1       2.816   7.843  18.120  0.00  0.00    +0.000 A 
ATOM      6  C   UNL     1       3.644   7.368  17.092  0.00  0.00    +0.000 A 
ATOM      7  C   UNL     1       4.245   6.105  17.226  0.00  0.00    +0.000 A 
ATOM      8  C   UNL     1       4.026   5.321  18.370  0.00  0.00    +0.000 A 
ATOM      9  C   UNL     1       3.186   5.790  19.393  0.00  0.00    +0.000 A 
ATOM     10  C   UNL     1       2.590   7.048  19.232  0.00  0.00    +0.000 A 
ENDROOT
BRANCH   8  11
ATOM     11  C   UNL     1       4.641   3.975  18.577  0.00  0.00    +0.000 C 
ATOM     12  N   UNL     1       5.935   3.897  19.002  0.00  0.00    +0.000 N 
ATOM     13  O   UNL     1       4.003   2.946  18.375  0.00  0.00    +0.000 OA
ATOM     14  H   UNL     1       6.536   4.680  19.197  0.00  0.00    +0.000 HD
ATOM     15  H   UNL     1       6.311   2.966  19.131  0.00  0.00    +0.000 HD
ENDBRANCH   8  11
BRANCH   3  16
ATOM     16  C   UNL     1       0.542  10.062  19.878  0.00  0.00    +0.000 C 
ATOM     17  F   UNL     1      -0.064   9.648  21.039  0.00  0.00    +0.000 F 
ATOM     18  F   UNL     1       1.254  11.171  20.243  0.00  0.00    +0.000 F 
BRANCH  16  19
ATOM     19  C   UNL     1      -0.543  10.464  18.912  0.00  0.00    +0.000 A 
ATOM     20  N   UNL     1      -1.629  11.183  19.152  0.00  0.00    +0.000 NA
ATOM     21  C   UNL     1      -2.435  11.035  18.048  0.00  0.00    +0.000 A 
ATOM     22  C   UNL     1      -3.741  11.496  17.801  0.00  0.00    +0.000 A 
ATOM     23  F   UNL     1      -4.397  12.221  18.719  0.00  0.00    +0.000 F 
ATOM     24  C   UNL     1      -4.378  11.168  16.607  0.00  0.00    +0.000 A 
ATOM     25  C   UNL     1      -3.709  10.400  15.661  0.00  0.00    +0.000 A 
ATOM     26  F   UNL     1      -4.340  10.085  14.521  0.00  0.00    +0.000 F 
ATOM     27  C   UNL     1      -2.405   9.930  15.862  0.00  0.00    +0.000 A 
ATOM     28  C   UNL     1      -1.801  10.263  17.078  0.00  0.00    +0.000 A 
ATOM     29  N   UNL     1      -0.583   9.946  17.633  0.00  0.00    +0.000 N 
ATOM     30  H   UNL     1       0.123   9.346  17.229  0.00  0.00    +0.000 HD
ENDBRANCH  16  19
ENDBRANCH   3  16
TORSDOF 3
ENDMDL
MODEL 5
REMARK VINA RESULT:      -9.1      6.512      8.442
REMARK  Name = 
REMARK  4 active torsions:
REMARK  status: ('A' for Active; 'I' for Inactive)
REMARK    1  A    between atoms: C_1  and  N_2
REMARK    2  A    between atoms: C_3  and  C_4
REMARK    3  A    between atoms: C_4  and  C_7
REMARK    4  A    between atoms: C_22  and  C_23
REMARK                            x       y       z     vdW  Elec       q    Type
REMARK                         _______ _______ _______ _____ _____    ______ ____
ROOT
ATOM      1  C   UNL     1       1.073   7.785  21.148  0.00  0.00    +0.000 C 
ATOM      2  N   UNL     1       1.784   7.854  19.892  0.00  0.00    +0.000 N 
ATOM      3  C   UNL     1       1.845   8.901  18.989  0.00  0.00    +0.000 A 
ATOM      4  N   UNL     1       2.554   8.534  17.925  0.00  0.00    +0.000 NA
ATOM      5  C   UNL     1       2.963   7.248  18.151  0.00  0.00    +0.000 A 
ATOM      6  C   UNL     1       3.718   6.388  17.340  0.00  0.00    +0.000 A 
ATOM      7  C   UNL     1       4.035   5.103  17.815  0.00  0.00    +0.000 A 
ATOM      8  C   UNL     1       3.607   4.678  19.082  0.00  0.00    +0.000 A 
ATOM      9  C   UNL     1       2.839   5.535  19.888  0.00  0.00    +0.000 A 
ATOM     10  C   UNL     1       2.527   6.806  19.389  0.00  0.00    +0.000 A 
ENDROOT
BRANCH   8  11
ATOM     11  C   UNL     1       3.917   3.331  19.648  0.00  0.00    +0.000 C 
ATOM     12  N   UNL     1       5.183   2.838  19.531  0.00  0.00    +0.000 N 
ATOM     13  O   UNL     1       3.055   2.665  20.216  0.00  0.00    +0.000 OA
ATOM     14  H   UNL     1       5.956   3.307  19.088  0.00  0.00    +0.000 HD
ATOM     15  H   UNL     1       5.350   1.923  19.930  0.00  0.00    +0.000 HD
ENDBRANCH   8  11
BRANCH   3  16
ATOM     16  C   UNL     1       1.129  10.223  19.136  0.00  0.00    +0.000 C 
ATOM     17  F   UNL     1       1.098  10.590  20.459  0.00  0.00    +0.000 F 
ATOM     18  F   UNL     1       1.849  11.212  18.525  0.00  0.00    +0.000 F 
BRANCH  16  19
ATOM     19  C   UNL     1      -0.288  10.249  18.619  0.00  0.00    +0.000 A 
ATOM     20  N   UNL     1      -0.761   9.730  17.497  0.00  0.00    +0.000 NA
ATOM     21  C   UNL     1      -2.021  10.256  17.336  0.00  0.00    +0.000 A 
ATOM     22  C   UNL     1      -2.937  10.127  16.276  0.00  0.00    +0.000 A 
ATOM     23  F   UNL     1      -2.642   9.380  15.202  0.00  0.00    +0.000 F 
ATOM     24  C   UNL     1      -4.151  10.809  16.322  0.00  0.00    +0.000 A 
ATOM     25  C   UNL     1      -4.453  11.599  17.424  0.00  0.00    +0.000 A 
ATOM     26  F   UNL     1      -5.621  12.256  17.448  0.00  0.00    +0.000 F 
ATOM     27  C   UNL     1      -3.574  11.747  18.505  0.00  0.00    +0.000 A 
ATOM     28  C   UNL     1      -2.358  11.063  18.420  0.00  0.00    +0.000 A 
ATOM     29  N   UNL     1      -1.257  11.010  19.242  0.00  0.00    +0.000 N 
ATOM     30  H   UNL     1      -1.125  11.524  20.103  0.00  0.00    +0.000 HD
ENDBRANCH  16  19
ENDBRANCH   3  16
TORSDOF 3
ENDMDL
MODEL 6
REMARK VINA RESULT:      -9.0      3.806      5.589
REMARK  Name = 
REMARK  4 active torsions:
REMARK  status: ('A' for Active; 'I' for Inactive)
REMARK    1  A    between atoms: C_1  and  N_2
REMARK    2  A    between atoms: C_3  and  C_4
REMARK    3  A    between atoms: C_4  and  C_7
REMARK    4  A    between atoms: C_22  and  C_23
REMARK                            x       y       z     vdW  Elec       q    Type
REMARK                         _______ _______ _______ _____ _____    ______ ____
ROOT
ATOM      1  C   UNL     1       2.178   4.186  17.273  0.00  0.00    +0.000 C 
ATOM      2  N   UNL     1       3.316   4.842  17.875  0.00  0.00    +0.000 N 
ATOM      3  C   UNL     1       3.421   5.412  19.133  0.00  0.00    +0.000 A 
ATOM      4  N   UNL     1       4.618   5.973  19.272  0.00  0.00    +0.000 NA
ATOM      5  C   UNL     1       5.293   5.751  18.103  0.00  0.00    +0.000 A 
ATOM      6  C   UNL     1       6.583   6.147  17.719  0.00  0.00    +0.000 A 
ATOM      7  C   UNL     1       7.068   5.767  16.455  0.00  0.00    +0.000 A 
ATOM      8  C   UNL     1       6.280   5.001  15.583  0.00  0.00    +0.000 A 
ATOM      9  C   UNL     1       4.983   4.616  15.962  0.00  0.00    +0.000 A 
ATOM     10  C   UNL     1       4.519   5.015  17.222  0.00  0.00    +0.000 A 
ENDROOT
BRANCH   8  11
ATOM     11  C   UNL     1       6.738   4.557  14.232  0.00  0.00    +0.000 C 
ATOM     12  N   UNL     1       6.294   3.365  13.740  0.00  0.00    +0.000 N 
ATOM     13  O   UNL     1       7.502   5.245  13.561  0.00  0.00    +0.000 OA
ATOM     14  H   UNL     1       5.666   2.734  14.210  0.00  0.00    +0.000 HD
ATOM     15  H   UNL     1       6.628   3.104  12.821  0.00  0.00    +0.000 HD
ENDBRANCH   8  11
BRANCH   3  16
ATOM     16  C   UNL     1       2.309   5.482  20.153  0.00  0.00    +0.000 C 
ATOM     17  F   UNL     1       1.236   4.742  19.723  0.00  0.00    +0.000 F 
ATOM     18  F   UNL     1       2.703   4.870  21.311  0.00  0.00    +0.000 F 
BRANCH  16  19
ATOM     19  C   UNL     1       1.811   6.870  20.470  0.00  0.00    +0.000 A 
ATOM     20  N   UNL     1       1.040   7.255  21.476  0.00  0.00    +0.000 NA
ATOM     21  C   UNL     1       0.634   8.534  21.177  0.00  0.00    +0.000 A 
ATOM     22  C   UNL     1      -0.267   9.386  21.841  0.00  0.00    +0.000 A 
ATOM     23  F   UNL     1      -0.876   8.993  22.970  0.00  0.00    +0.000 F 
ATOM     24  C   UNL     1      -0.561  10.637  21.306  0.00  0.00    +0.000 A 
ATOM     25  C   UNL     1       0.053  11.040  20.126  0.00  0.00    +0.000 A 
ATOM     26  F   UNL     1      -0.247  12.244  19.619  0.00  0.00    +0.000 F 
ATOM     27  C   UNL     1       0.964  10.228  19.438  0.00  0.00    +0.000 A 
ATOM     28  C   UNL     1       1.224   8.971  19.994  0.00  0.00    +0.000 A 
ATOM     29  N   UNL     1       2.000   7.912  19.585  0.00  0.00    +0.000 N 
ATOM     30  H   UNL     1       2.534   7.854  18.727  0.00  0.00    +0.000 HD
ENDBRANCH  16  19
ENDBRANCH   3  16
TORSDOF 3
ENDMDL
MODEL 7
REMARK VINA RESULT:      -9.0      3.341      7.561
REMARK  Name = 
REMARK  4 active torsions:
REMARK  status: ('A' for Active; 'I' for Inactive)
REMARK    1  A    between atoms: C_1  and  N_2
REMARK    2  A    between atoms: C_3  and  C_4
REMARK    3  A    between atoms: C_4  and  C_7
REMARK    4  A    between atoms: C_22  and  C_23
REMARK                            x       y       z     vdW  Elec       q    Type
REMARK                         _______ _______ _______ _____ _____    ______ ____
ROOT
ATOM      1  C   UNL     1       3.597   6.422  17.812  0.00  0.00    +0.000 C 
ATOM      2  N   UNL     1       4.437   5.408  18.407  0.00  0.00    +0.000 N 
ATOM      3  C   UNL     1       5.793   5.193  18.226  0.00  0.00    +0.000 A 
ATOM      4  N   UNL     1       6.170   4.113  18.904  0.00  0.00    +0.000 NA
ATOM      5  C   UNL     1       5.053   3.638  19.536  0.00  0.00    +0.000 A 
ATOM      6  C   UNL     1       4.894   2.514  20.361  0.00  0.00    +0.000 A 
ATOM      7  C   UNL     1       3.632   2.249  20.921  0.00  0.00    +0.000 A 
ATOM      8  C   UNL     1       2.540   3.092  20.665  0.00  0.00    +0.000 A 
ATOM      9  C   UNL     1       2.695   4.209  19.828  0.00  0.00    +0.000 A 
ATOM     10  C   UNL     1       3.960   4.447  19.274  0.00  0.00    +0.000 A 
ENDROOT
BRANCH   8  11
ATOM     11  C   UNL     1       1.177   2.871  21.235  0.00  0.00    +0.000 C 
ATOM     12  N   UNL     1       0.088   3.018  20.427  0.00  0.00    +0.000 N 
ATOM     13  O   UNL     1       1.022   2.560  22.413  0.00  0.00    +0.000 OA
ATOM     14  H   UNL     1       0.112   3.267  19.452  0.00  0.00    +0.000 HD
ATOM     15  H   UNL     1      -0.815   2.857  20.854  0.00  0.00    +0.000 HD
ENDBRANCH   8  11
BRANCH   3  16
ATOM     16  C   UNL     1       6.689   5.997  17.313  0.00  0.00    +0.000 C 
ATOM     17  F   UNL     1       6.150   7.244  17.112  0.00  0.00    +0.000 F 
ATOM     18  F   UNL     1       7.884   6.239  17.932  0.00  0.00    +0.000 F 
BRANCH  16  19
ATOM     19  C   UNL     1       6.946   5.384  15.959  0.00  0.00    +0.000 A 
ATOM     20  N   UNL     1       7.630   5.893  14.946  0.00  0.00    +0.000 NA
ATOM     21  C   UNL     1       7.341   5.105  13.857  0.00  0.00    +0.000 A 
ATOM     22  C   UNL     1       7.712   5.239  12.507  0.00  0.00    +0.000 A 
ATOM     23  F   UNL     1       8.488   6.258  12.107  0.00  0.00    +0.000 F 
ATOM     24  C   UNL     1       7.243   4.327  11.565  0.00  0.00    +0.000 A 
ATOM     25  C   UNL     1       6.424   3.281  11.972  0.00  0.00    +0.000 A 
ATOM     26  F   UNL     1       5.973   2.416  11.051  0.00  0.00    +0.000 F 
ATOM     27  C   UNL     1       6.039   3.104  13.307  0.00  0.00    +0.000 A 
ATOM     28  C   UNL     1       6.513   4.047  14.224  0.00  0.00    +0.000 A 
ATOM     29  N   UNL     1       6.309   4.222  15.572  0.00  0.00    +0.000 N 
ATOM     30  H   UNL     1       5.709   3.665  16.166  0.00  0.00    +0.000 HD
ENDBRANCH  16  19
ENDBRANCH   3  16
TORSDOF 3
ENDMDL
MODEL 8
REMARK VINA RESULT:      -8.9      6.426      9.804
REMARK  Name = 
REMARK  4 active torsions:
REMARK  status: ('A' for Active; 'I' for Inactive)
REMARK    1  A    between atoms: C_1  and  N_2
REMARK    2  A    between atoms: C_3  and  C_4
REMARK    3  A    between atoms: C_4  and  C_7
REMARK    4  A    between atoms: C_22  and  C_23
REMARK                            x       y       z     vdW  Elec       q    Type
REMARK                         _______ _______ _______ _____ _____    ______ ____
ROOT
ATOM      1  C   UNL     1      -0.360  11.621  18.362  0.00  0.00    +0.000 C 
ATOM      2  N   UNL     1       0.061  10.734  19.421  0.00  0.00    +0.000 N 
ATOM      3  C   UNL     1       0.933   9.660  19.355  0.00  0.00    +0.000 A 
ATOM      4  N   UNL     1       0.999   9.062  20.540  0.00  0.00    +0.000 NA
ATOM      5  C   UNL     1       0.174   9.763  21.379  0.00  0.00    +0.000 A 
ATOM      6  C   UNL     1      -0.134   9.543  22.730  0.00  0.00    +0.000 A 
ATOM      7  C   UNL     1      -1.001  10.433  23.387  0.00  0.00    +0.000 A 
ATOM      8  C   UNL     1      -1.556  11.530  22.710  0.00  0.00    +0.000 A 
ATOM      9  C   UNL     1      -1.258  11.742  21.353  0.00  0.00    +0.000 A 
ATOM     10  C   UNL     1      -0.399  10.836  20.717  0.00  0.00    +0.000 A 
ENDROOT
BRANCH   8  11
ATOM     11  C   UNL     1      -2.476  12.516  23.352  0.00  0.00    +0.000 C 
ATOM     12  N   UNL     1      -3.785  12.180  23.533  0.00  0.00    +0.000 N 
ATOM     13  O   UNL     1      -2.073  13.617  23.719  0.00  0.00    +0.000 OA
ATOM     14  H   UNL     1      -4.207  11.305  23.270  0.00  0.00    +0.000 HD
ATOM     15  H   UNL     1      -4.372  12.877  23.974  0.00  0.00    +0.000 HD
ENDBRANCH   8  11
BRANCH   3  16
ATOM     16  C   UNL     1       1.624   9.174  18.102  0.00  0.00    +0.000 C 
ATOM     17  F   UNL     1       0.687   8.813  17.165  0.00  0.00    +0.000 F 
ATOM     18  F   UNL     1       2.308  10.205  17.520  0.00  0.00    +0.000 F 
BRANCH  16  19
ATOM     19  C   UNL     1       2.557   8.004  18.293  0.00  0.00    +0.000 A 
ATOM     20  N   UNL     1       3.504   7.570  17.476  0.00  0.00    +0.000 NA
ATOM     21  C   UNL     1       3.874   6.332  17.946  0.00  0.00    +0.000 A 
ATOM     22  C   UNL     1       4.764   5.381  17.415  0.00  0.00    +0.000 A 
ATOM     23  F   UNL     1       5.427   5.624  16.275  0.00  0.00    +0.000 F 
ATOM     24  C   UNL     1       4.936   4.157  18.058  0.00  0.00    +0.000 A 
ATOM     25  C   UNL     1       4.236   3.894  19.230  0.00  0.00    +0.000 A 
ATOM     26  F   UNL     1       4.406   2.707  19.831  0.00  0.00    +0.000 F 
ATOM     27  C   UNL     1       3.348   4.816  19.798  0.00  0.00    +0.000 A 
ATOM     28  C   UNL     1       3.187   6.028  19.119  0.00  0.00    +0.000 A 
ATOM     29  N   UNL     1       2.386   7.123  19.342  0.00  0.00    +0.000 N 
ATOM     30  H   UNL     1       1.704   7.228  20.082  0.00  0.00    +0.000 HD
ENDBRANCH  16  19
ENDBRANCH   3  16
TORSDOF 3
ENDMDL
MODEL 9
REMARK VINA RESULT:      -8.8      5.776      9.157
REMARK  Name = 
REMARK  4 active torsions:
REMARK  status: ('A' for Active; 'I' for Inactive)
REMARK    1  A    between atoms: C_1  and  N_2
REMARK    2  A    between atoms: C_3  and  C_4
REMARK    3  A    between atoms: C_4  and  C_7
REMARK    4  A    between atoms: C_22  and  C_23
REMARK                            x       y       z     vdW  Elec       q    Type
REMARK                         _______ _______ _______ _____ _____    ______ ____
ROOT
ATOM      1  C   UNL     1       0.487  10.707  18.273  0.00  0.00    +0.000 C 
ATOM      2  N   UNL     1       0.789   9.835  19.385  0.00  0.00    +0.000 N 
ATOM      3  C   UNL     1       1.551   8.679  19.395  0.00  0.00    +0.000 A 
ATOM      4  N   UNL     1       1.525   8.135  20.609  0.00  0.00    +0.000 NA
ATOM      5  C   UNL     1       0.751   8.953  21.387  0.00  0.00    +0.000 A 
ATOM      6  C   UNL     1       0.386   8.829  22.736  0.00  0.00    +0.000 A 
ATOM      7  C   UNL     1      -0.407   9.831  23.324  0.00  0.00    +0.000 A 
ATOM      8  C   UNL     1      -0.831  10.943  22.580  0.00  0.00    +0.000 A 
ATOM      9  C   UNL     1      -0.477  11.059  21.226  0.00  0.00    +0.000 A 
ATOM     10  C   UNL     1       0.305  10.043  20.660  0.00  0.00    +0.000 A 
ENDROOT
BRANCH   8  11
ATOM     11  C   UNL     1      -1.666  12.044  23.147  0.00  0.00    +0.000 C 
ATOM     12  N   UNL     1      -2.968  11.791  23.468  0.00  0.00    +0.000 N 
ATOM     13  O   UNL     1      -1.202  13.166  23.331  0.00  0.00    +0.000 OA
ATOM     14  H   UNL     1      -3.437  10.907  23.358  0.00  0.00    +0.000 HD
ATOM     15  H   UNL     1      -3.496  12.565  23.850  0.00  0.00    +0.000 HD
ENDBRANCH   8  11
BRANCH   3  16
ATOM     16  C   UNL     1       2.225   8.068  18.189  0.00  0.00    +0.000 C 
ATOM     17  F   UNL     1       1.439   8.247  17.077  0.00  0.00    +0.000 F 
ATOM     18  F   UNL     1       3.376   8.749  17.906  0.00  0.00    +0.000 F 
BRANCH  16  19
ATOM     19  C   UNL     1       2.534   6.595  18.300  0.00  0.00    +0.000 A 
ATOM     20  N   UNL     1       1.715   5.570  18.119  0.00  0.00    +0.000 NA
ATOM     21  C   UNL     1       2.374   4.466  18.606  0.00  0.00    +0.000 A 
ATOM     22  C   UNL     1       1.942   3.136  18.756  0.00  0.00    +0.000 A 
ATOM     23  F   UNL     1       0.708   2.770  18.380  0.00  0.00    +0.000 F 
ATOM     24  C   UNL     1       2.789   2.193  19.333  0.00  0.00    +0.000 A 
ATOM     25  C   UNL     1       4.062   2.573  19.741  0.00  0.00    +0.000 A 
ATOM     26  F   UNL     1       4.861   1.655  20.303  0.00  0.00    +0.000 F 
ATOM     27  C   UNL     1       4.535   3.884  19.601  0.00  0.00    +0.000 A 
ATOM     28  C   UNL     1       3.654   4.809  19.034  0.00  0.00    +0.000 A 
ATOM     29  N   UNL     1       3.748   6.159  18.791  0.00  0.00    +0.000 N 
ATOM     30  H   UNL     1       4.526   6.760  19.029  0.00  0.00    +0.000 HD
ENDBRANCH  16  19
ENDBRANCH   3  16
TORSDOF 3
ENDMDL
