MODEL 1
REMARK VINA RESULT:      -7.6      0.000      0.000
REMARK  Name = 
REMARK  6 active torsions:
REMARK  status: ('A' for Active; 'I' for Inactive)
REMARK    1  A    between atoms: S_2  and  C_4
REMARK    2  A    between atoms: S_2  and  C_17
REMARK    3  A    between atoms: C_4  and  C_5
REMARK    4  A    between atoms: C_5  and  S_6
REMARK    5  A    between atoms: S_6  and  C_7
REMARK    6  A    between atoms: C_10  and  C_11
REMARK                            x       y       z     vdW  Elec       q    Type
REMARK                         _______ _______ _______ _____ _____    ______ ____
ROOT
ATOM      1  C   UNL     1       5.929   4.626  18.711  0.00  0.00    +0.000 C 
ENDROOT
BRANCH   1   2
ATOM      2  C   UNL     1       4.996   5.601  19.415  0.00  0.00    +0.000 C 
BRANCH   2   4
ATOM      3  O   UNL     1       3.240   4.725  17.666  0.00  0.00    +0.000 OA
ATOM      4  S   UNL     1       3.302   5.213  19.031  0.00  0.00    +0.000 S 
ATOM      5  O   UNL     1       2.754   4.435  20.125  0.00  0.00    +0.000 OA
BRANCH   4   6
ATOM      6  C   UNL     1       2.471   6.794  19.046  0.00  0.00    +0.000 A 
ATOM      7  C   UNL     1       1.913   7.265  20.241  0.00  0.00    +0.000 A 
ATOM      8  C   UNL     1       1.351   8.546  20.286  0.00  0.00    +0.000 A 
ATOM      9  C   UNL     1       1.360   9.347  19.142  0.00  0.00    +0.000 A 
ATOM     10 CL   UNL     1       0.698  10.934  19.209  0.00  0.00    +0.000 Cl
ATOM     11  C   UNL     1       1.920   8.879  17.953  0.00  0.00    +0.000 A 
ATOM     12  C   UNL     1       2.482   7.599  17.903  0.00  0.00    +0.000 A 
ENDBRANCH   4   6
ENDBRANCH   2   4
ENDBRANCH   1   2
BRANCH   1  13
ATOM     13  S   UNL     1       7.177   5.572  17.768  0.00  0.00    +0.000 S 
BRANCH  13  14
ATOM     14  C   UNL     1       6.929   4.950  16.112  0.00  0.00    +0.000 A 
ATOM     15  C   UNL     1       5.985   3.947  15.919  0.00  0.00    +0.000 A 
ATOM     16  C   UNL     1       5.743   3.481  14.628  0.00  0.00    +0.000 A 
ATOM     17  C   UNL     1       6.447   4.025  13.553  0.00  0.00    +0.000 A 
ATOM     18  C   UNL     1       7.386   5.008  13.845  0.00  0.00    +0.000 A 
ATOM     19  N   UNL     1       7.638   5.479  15.093  0.00  0.00    +0.000 NA
BRANCH  17  20
ATOM     20  C   UNL     1       6.219   3.601  12.136  0.00  0.00    +0.000 C 
ATOM     21  F   UNL     1       6.606   2.320  11.885  0.00  0.00    +0.000 F 
ATOM     22  F   UNL     1       4.905   3.666  11.781  0.00  0.00    +0.000 F 
ATOM     23  F   UNL     1       6.887   4.375  11.239  0.00  0.00    +0.000 F 
ENDBRANCH  17  20
ENDBRANCH  13  14
ENDBRANCH   1  13
TORSDOF 6
ENDMDL
MODEL 2
REMARK VINA RESULT:      -7.6      0.591      1.388
REMARK  Name = 
REMARK  6 active torsions:
REMARK  status: ('A' for Active; 'I' for Inactive)
REMARK    1  A    between atoms: S_2  and  C_4
REMARK    2  A    between atoms: S_2  and  C_17
REMARK    3  A    between atoms: C_4  and  C_5
REMARK    4  A    between atoms: C_5  and  S_6
REMARK    5  A    between atoms: S_6  and  C_7
REMARK    6  A    between atoms: C_10  and  C_11
REMARK                            x       y       z     vdW  Elec       q    Type
REMARK                         _______ _______ _______ _____ _____    ______ ____
ROOT
ATOM      1  C   UNL     1       5.047   4.637  18.516  0.00  0.00    +0.000 C 
ENDROOT
BRANCH   1   2
ATOM      2  C   UNL     1       4.470   5.527  19.607  0.00  0.00    +0.000 C 
BRANCH   2   4
ATOM      3  O   UNL     1       2.280   4.785  18.357  0.00  0.00    +0.000 OA
ATOM      4  S   UNL     1       2.692   5.471  19.567  0.00  0.00    +0.000 S 
ATOM      5  O   UNL     1       2.221   5.033  20.867  0.00  0.00    +0.000 OA
BRANCH   4   6
ATOM      6  C   UNL     1       2.199   7.178  19.381  0.00  0.00    +0.000 A 
ATOM      7  C   UNL     1       2.312   7.792  18.128  0.00  0.00    +0.000 A 
ATOM      8  C   UNL     1       1.833   9.095  17.950  0.00  0.00    +0.000 A 
ATOM      9  C   UNL     1       1.238   9.767  19.020  0.00  0.00    +0.000 A 
ATOM     10 CL   UNL     1       0.619  11.357  18.789  0.00  0.00    +0.000 Cl
ATOM     11  C   UNL     1       1.122   9.152  20.267  0.00  0.00    +0.000 A 
ATOM     12  C   UNL     1       1.600   7.851  20.450  0.00  0.00    +0.000 A 
ENDBRANCH   4   6
ENDBRANCH   2   4
ENDBRANCH   1   2
BRANCH   1  13
ATOM     13  S   UNL     1       6.602   5.377  17.903  0.00  0.00    +0.000 S 
BRANCH  13  14
ATOM     14  C   UNL     1       6.607   4.848  16.197  0.00  0.00    +0.000 A 
ATOM     15  C   UNL     1       5.656   3.917  15.793  0.00  0.00    +0.000 A 
ATOM     16  C   UNL     1       5.614   3.526  14.455  0.00  0.00    +0.000 A 
ATOM     17  C   UNL     1       6.520   4.073  13.546  0.00  0.00    +0.000 A 
ATOM     18  C   UNL     1       7.448   4.979  14.045  0.00  0.00    +0.000 A 
ATOM     19  N   UNL     1       7.508   5.377  15.342  0.00  0.00    +0.000 NA
BRANCH  17  20
ATOM     20  C   UNL     1       6.514   3.729  12.089  0.00  0.00    +0.000 C 
ATOM     21  F   UNL     1       5.263   3.638  11.560  0.00  0.00    +0.000 F 
ATOM     22  F   UNL     1       7.168   4.657  11.336  0.00  0.00    +0.000 F 
ATOM     23  F   UNL     1       7.118   2.540  11.825  0.00  0.00    +0.000 F 
ENDBRANCH  17  20
ENDBRANCH  13  14
ENDBRANCH   1  13
TORSDOF 6
ENDMDL
MODEL 3
REMARK VINA RESULT:      -7.4      0.465      1.118
REMARK  Name = 
REMARK  6 active torsions:
REMARK  status: ('A' for Active; 'I' for Inactive)
REMARK    1  A    between atoms: S_2  and  C_4
REMARK    2  A    between atoms: S_2  and  C_17
REMARK    3  A    between atoms: C_4  and  C_5
REMARK    4  A    between atoms: C_5  and  S_6
REMARK    5  A    between atoms: S_6  and  C_7
REMARK    6  A    between atoms: C_10  and  C_11
REMARK                            x       y       z     vdW  Elec       q    Type
REMARK                         _______ _______ _______ _____ _____    ______ ____
ROOT
ATOM      1  C   UNL     1       5.670   6.062  18.481  0.00  0.00    +0.000 C 
ENDROOT
BRANCH   1   2
ATOM      2  C   UNL     1       4.893   5.104  19.374  0.00  0.00    +0.000 C 
BRANCH   2   4
ATOM      3  O   UNL     1       3.183   4.780  17.405  0.00  0.00    +0.000 OA
ATOM      4  S   UNL     1       3.200   5.004  18.838  0.00  0.00    +0.000 S 
ATOM      5  O   UNL     1       2.489   4.116  19.737  0.00  0.00    +0.000 OA
BRANCH   4   6
ATOM      6  C   UNL     1       2.552   6.647  19.105  0.00  0.00    +0.000 A 
ATOM      7  C   UNL     1       2.373   7.502  18.011  0.00  0.00    +0.000 A 
ATOM      8  C   UNL     1       1.772   8.751  18.199  0.00  0.00    +0.000 A 
ATOM      9  C   UNL     1       1.347   9.132  19.473  0.00  0.00    +0.000 A 
ATOM     10 CL   UNL     1       0.577  10.655  19.695  0.00  0.00    +0.000 Cl
ATOM     11  C   UNL     1       1.521   8.278  20.563  0.00  0.00    +0.000 A 
ATOM     12  C   UNL     1       2.123   7.029  20.381  0.00  0.00    +0.000 A 
ENDBRANCH   4   6
ENDBRANCH   2   4
ENDBRANCH   1   2
BRANCH   1  13
ATOM     13  S   UNL     1       7.256   5.283  18.010  0.00  0.00    +0.000 S 
BRANCH  13  14
ATOM     14  C   UNL     1       6.909   4.737  16.345  0.00  0.00    +0.000 A 
ATOM     15  C   UNL     1       5.943   3.752  16.161  0.00  0.00    +0.000 A 
ATOM     16  C   UNL     1       5.626   3.345  14.866  0.00  0.00    +0.000 A 
ATOM     17  C   UNL     1       6.277   3.928  13.779  0.00  0.00    +0.000 A 
ATOM     18  C   UNL     1       7.243   4.888  14.060  0.00  0.00    +0.000 A 
ATOM     19  N   UNL     1       7.568   5.303  15.311  0.00  0.00    +0.000 NA
BRANCH  17  20
ATOM     20  C   UNL     1       5.966   3.569  12.359  0.00  0.00    +0.000 C 
ATOM     21  F   UNL     1       5.991   2.229  12.123  0.00  0.00    +0.000 F 
ATOM     22  F   UNL     1       4.727   3.989  11.978  0.00  0.00    +0.000 F 
ATOM     23  F   UNL     1       6.837   4.121  11.472  0.00  0.00    +0.000 F 
ENDBRANCH  17  20
ENDBRANCH  13  14
ENDBRANCH   1  13
TORSDOF 6
ENDMDL
MODEL 4
REMARK VINA RESULT:      -7.4      0.941      1.217
REMARK  Name = 
REMARK  6 active torsions:
REMARK  status: ('A' for Active; 'I' for Inactive)
REMARK    1  A    between atoms: S_2  and  C_4
REMARK    2  A    between atoms: S_2  and  C_17
REMARK    3  A    between atoms: C_4  and  C_5
REMARK    4  A    between atoms: C_5  and  S_6
REMARK    5  A    between atoms: S_6  and  C_7
REMARK    6  A    between atoms: C_10  and  C_11
REMARK                            x       y       z     vdW  Elec       q    Type
REMARK                         _______ _______ _______ _____ _____    ______ ____
ROOT
ATOM      1  C   UNL     1       6.220   6.875  17.875  0.00  0.00    +0.000 C 
ENDROOT
BRANCH   1   2
ATOM      2  C   UNL     1       4.887   6.672  17.169  0.00  0.00    +0.000 C 
BRANCH   2   4
ATOM      3  O   UNL     1       2.920   4.977  17.579  0.00  0.00    +0.000 OA
ATOM      4  S   UNL     1       3.701   5.969  18.293  0.00  0.00    +0.000 S 
ATOM      5  O   UNL     1       4.387   5.629  19.525  0.00  0.00    +0.000 OA
BRANCH   4   6
ATOM      6  C   UNL     1       2.592   7.319  18.668  0.00  0.00    +0.000 A 
ATOM      7  C   UNL     1       2.078   7.445  19.964  0.00  0.00    +0.000 A 
ATOM      8  C   UNL     1       1.292   8.555  20.292  0.00  0.00    +0.000 A 
ATOM      9  C   UNL     1       1.034   9.532  19.328  0.00  0.00    +0.000 A 
ATOM     10 CL   UNL     1       0.095  10.913  19.744  0.00  0.00    +0.000 Cl
ATOM     11  C   UNL     1       1.551   9.408  18.038  0.00  0.00    +0.000 A 
ATOM     12  C   UNL     1       2.336   8.299  17.705  0.00  0.00    +0.000 A 
ENDBRANCH   4   6
ENDBRANCH   2   4
ENDBRANCH   1   2
BRANCH   1  13
ATOM     13  S   UNL     1       7.156   5.305  17.844  0.00  0.00    +0.000 S 
BRANCH  13  14
ATOM     14  C   UNL     1       6.874   4.749  16.170  0.00  0.00    +0.000 A 
ATOM     15  C   UNL     1       5.921   3.759  15.956  0.00  0.00    +0.000 A 
ATOM     16  C   UNL     1       5.654   3.344  14.652  0.00  0.00    +0.000 A 
ATOM     17  C   UNL     1       6.341   3.926  13.586  0.00  0.00    +0.000 A 
ATOM     18  C   UNL     1       7.291   4.892  13.899  0.00  0.00    +0.000 A 
ATOM     19  N   UNL     1       7.568   5.314  15.159  0.00  0.00    +0.000 NA
BRANCH  17  20
ATOM     20  C   UNL     1       6.084   3.559  12.158  0.00  0.00    +0.000 C 
ATOM     21  F   UNL     1       6.838   4.269  11.274  0.00  0.00    +0.000 F 
ATOM     22  F   UNL     1       6.352   2.248  11.904  0.00  0.00    +0.000 F 
ATOM     23  F   UNL     1       4.791   3.755  11.787  0.00  0.00    +0.000 F 
ENDBRANCH  17  20
ENDBRANCH  13  14
ENDBRANCH   1  13
TORSDOF 6
ENDMDL
MODEL 5
REMARK VINA RESULT:      -7.2      1.139      1.773
REMARK  Name = 
REMARK  6 active torsions:
REMARK  status: ('A' for Active; 'I' for Inactive)
REMARK    1  A    between atoms: S_2  and  C_4
REMARK    2  A    between atoms: S_2  and  C_17
REMARK    3  A    between atoms: C_4  and  C_5
REMARK    4  A    between atoms: C_5  and  S_6
REMARK    5  A    between atoms: S_6  and  C_7
REMARK    6  A    between atoms: C_10  and  C_11
REMARK                            x       y       z     vdW  Elec       q    Type
REMARK                         _______ _______ _______ _____ _____    ______ ____
ROOT
ATOM      1  C   UNL     1       5.010   4.429  19.005  0.00  0.00    +0.000 C 
ENDROOT
BRANCH   1   2
ATOM      2  C   UNL     1       4.279   5.687  19.453  0.00  0.00    +0.000 C 
BRANCH   2   4
ATOM      3  O   UNL     1       4.065   6.873  17.118  0.00  0.00    +0.000 OA
ATOM      4  S   UNL     1       3.230   6.283  18.147  0.00  0.00    +0.000 S 
ATOM      5  O   UNL     1       2.272   5.243  17.821  0.00  0.00    +0.000 OA
BRANCH   4   6
ATOM      6  C   UNL     1       2.313   7.623  18.891  0.00  0.00    +0.000 A 
ATOM      7  C   UNL     1       1.872   8.682  18.089  0.00  0.00    +0.000 A 
ATOM      8  C   UNL     1       1.067   9.683  18.644  0.00  0.00    +0.000 A 
ATOM      9  C   UNL     1       0.702   9.612  19.990  0.00  0.00    +0.000 A 
ATOM     10 CL   UNL     1      -0.316  10.826  20.662  0.00  0.00    +0.000 Cl
ATOM     11  C   UNL     1       1.138   8.554  20.788  0.00  0.00    +0.000 A 
ATOM     12  C   UNL     1       1.944   7.552  20.238  0.00  0.00    +0.000 A 
ENDBRANCH   4   6
ENDBRANCH   2   4
ENDBRANCH   1   2
BRANCH   1  13
ATOM     13  S   UNL     1       6.637   4.900  18.315  0.00  0.00    +0.000 S 
BRANCH  13  14
ATOM     14  C   UNL     1       6.408   4.551  16.578  0.00  0.00    +0.000 A 
ATOM     15  C   UNL     1       7.327   5.072  15.674  0.00  0.00    +0.000 A 
ATOM     16  C   UNL     1       7.192   4.773  14.319  0.00  0.00    +0.000 A 
ATOM     17  C   UNL     1       6.143   3.957  13.892  0.00  0.00    +0.000 A 
ATOM     18  C   UNL     1       5.262   3.500  14.865  0.00  0.00    +0.000 A 
ATOM     19  N   UNL     1       5.373   3.776  16.189  0.00  0.00    +0.000 NA
BRANCH  17  20
ATOM     20  C   UNL     1       5.953   3.563  12.460  0.00  0.00    +0.000 C 
ATOM     21  F   UNL     1       6.163   2.238  12.232  0.00  0.00    +0.000 F 
ATOM     22  F   UNL     1       4.691   3.820  12.016  0.00  0.00    +0.000 F 
ATOM     23  F   UNL     1       6.789   4.224  11.616  0.00  0.00    +0.000 F 
ENDBRANCH  17  20
ENDBRANCH  13  14
ENDBRANCH   1  13
TORSDOF 6
ENDMDL
MODEL 6
REMARK VINA RESULT:      -7.1      5.070      7.308
REMARK  Name = 
REMARK  6 active torsions:
REMARK  status: ('A' for Active; 'I' for Inactive)
REMARK    1  A    between atoms: S_2  and  C_4
REMARK    2  A    between atoms: S_2  and  C_17
REMARK    3  A    between atoms: C_4  and  C_5
REMARK    4  A    between atoms: C_5  and  S_6
REMARK    5  A    between atoms: S_6  and  C_7
REMARK    6  A    between atoms: C_10  and  C_11
REMARK                            x       y       z     vdW  Elec       q    Type
REMARK                         _______ _______ _______ _____ _____    ______ ____
ROOT
ATOM      1  C   UNL     1       5.063   6.943  17.121  0.00  0.00    +0.000 C 
ENDROOT
BRANCH   1   2
ATOM      2  C   UNL     1       5.855   6.518  18.350  0.00  0.00    +0.000 C 
BRANCH   2   4
ATOM      3  O   UNL     1       7.919   4.892  18.420  0.00  0.00    +0.000 OA
ATOM      4  S   UNL     1       6.499   4.875  18.126  0.00  0.00    +0.000 S 
ATOM      5  O   UNL     1       5.612   3.944  18.797  0.00  0.00    +0.000 OA
BRANCH   4   6
ATOM      6  C   UNL     1       6.343   4.573  16.373  0.00  0.00    +0.000 A 
ATOM      7  C   UNL     1       7.337   5.040  15.504  0.00  0.00    +0.000 A 
ATOM      8  C   UNL     1       7.274   4.719  14.143  0.00  0.00    +0.000 A 
ATOM      9  C   UNL     1       6.227   3.929  13.665  0.00  0.00    +0.000 A 
ATOM     10 CL   UNL     1       6.171   3.509  11.997  0.00  0.00    +0.000 Cl
ATOM     11  C   UNL     1       5.239   3.461  14.531  0.00  0.00    +0.000 A 
ATOM     12  C   UNL     1       5.296   3.780  15.892  0.00  0.00    +0.000 A 
ENDBRANCH   4   6
ENDBRANCH   2   4
ENDBRANCH   1   2
BRANCH   1  13
ATOM     13  S   UNL     1       3.388   7.460  17.641  0.00  0.00    +0.000 S 
BRANCH  13  14
ATOM     14  C   UNL     1       2.844   6.036  18.573  0.00  0.00    +0.000 A 
ATOM     15  C   UNL     1       2.441   4.904  17.872  0.00  0.00    +0.000 A 
ATOM     16  C   UNL     1       2.057   3.767  18.582  0.00  0.00    +0.000 A 
ATOM     17  C   UNL     1       2.082   3.780  19.977  0.00  0.00    +0.000 A 
ATOM     18  C   UNL     1       2.478   4.964  20.590  0.00  0.00    +0.000 A 
ATOM     19  N   UNL     1       2.858   6.083  19.922  0.00  0.00    +0.000 NA
BRANCH  17  20
ATOM     20  C   UNL     1       1.717   2.589  20.806  0.00  0.00    +0.000 C 
ATOM     21  F   UNL     1       2.641   2.293  21.762  0.00  0.00    +0.000 F 
ATOM     22  F   UNL     1       0.541   2.760  21.470  0.00  0.00    +0.000 F 
ATOM     23  F   UNL     1       1.569   1.457  20.067  0.00  0.00    +0.000 F 
ENDBRANCH  17  20
ENDBRANCH  13  14
ENDBRANCH   1  13
TORSDOF 6
ENDMDL
MODEL 7
REMARK VINA RESULT:      -7.0      4.840      7.173
REMARK  Name = 
REMARK  6 active torsions:
REMARK  status: ('A' for Active; 'I' for Inactive)
REMARK    1  A    between atoms: S_2  and  C_4
REMARK    2  A    between atoms: S_2  and  C_17
REMARK    3  A    between atoms: C_4  and  C_5
REMARK    4  A    between atoms: C_5  and  S_6
REMARK    5  A    between atoms: S_6  and  C_7
REMARK    6  A    between atoms: C_10  and  C_11
REMARK                            x       y       z     vdW  Elec       q    Type
REMARK                         _______ _______ _______ _____ _____    ______ ____
ROOT
ATOM      1  C   UNL     1       5.348   6.926  17.021  0.00  0.00    +0.000 C 
ENDROOT
BRANCH   1   2
ATOM      2  C   UNL     1       6.207   6.566  18.225  0.00  0.00    +0.000 C 
BRANCH   2   4
ATOM      3  O   UNL     1       8.102   4.762  18.469  0.00  0.00    +0.000 OA
ATOM      4  S   UNL     1       6.693   4.857  18.141  0.00  0.00    +0.000 S 
ATOM      5  O   UNL     1       5.708   4.069  18.858  0.00  0.00    +0.000 OA
BRANCH   4   6
ATOM      6  C   UNL     1       6.540   4.437  16.412  0.00  0.00    +0.000 A 
ATOM      7  C   UNL     1       5.444   3.679  15.983  0.00  0.00    +0.000 A 
ATOM      8  C   UNL     1       5.263   3.433  14.617  0.00  0.00    +0.000 A 
ATOM      9  C   UNL     1       6.172   3.953  13.693  0.00  0.00    +0.000 A 
ATOM     10 CL   UNL     1       5.929   3.676  12.012  0.00  0.00    +0.000 Cl
ATOM     11  C   UNL     1       7.263   4.711  14.121  0.00  0.00    +0.000 A 
ATOM     12  C   UNL     1       7.448   4.959  15.484  0.00  0.00    +0.000 A 
ENDBRANCH   4   6
ENDBRANCH   2   4
ENDBRANCH   1   2
BRANCH   1  13
ATOM     13  S   UNL     1       3.749   7.591  17.609  0.00  0.00    +0.000 S 
BRANCH  13  14
ATOM     14  C   UNL     1       3.020   6.152  18.378  0.00  0.00    +0.000 A 
ATOM     15  C   UNL     1       2.732   6.206  19.737  0.00  0.00    +0.000 A 
ATOM     16  C   UNL     1       2.121   5.111  20.346  0.00  0.00    +0.000 A 
ATOM     17  C   UNL     1       1.808   3.983  19.587  0.00  0.00    +0.000 A 
ATOM     18  C   UNL     1       2.153   4.011  18.241  0.00  0.00    +0.000 A 
ATOM     19  N   UNL     1       2.747   5.066  17.624  0.00  0.00    +0.000 NA
BRANCH  17  20
ATOM     20  C   UNL     1       1.121   2.783  20.161  0.00  0.00    +0.000 C 
ATOM     21  F   UNL     1       0.844   2.903  21.489  0.00  0.00    +0.000 F 
ATOM     22  F   UNL     1      -0.072   2.531  19.556  0.00  0.00    +0.000 F 
ATOM     23  F   UNL     1       1.853   1.645  20.034  0.00  0.00    +0.000 F 
ENDBRANCH  17  20
ENDBRANCH  13  14
ENDBRANCH   1  13
TORSDOF 6
ENDMDL
MODEL 8
REMARK VINA RESULT:      -6.9      5.093      7.371
REMARK  Name = 
REMARK  6 active torsions:
REMARK  status: ('A' for Active; 'I' for Inactive)
REMARK    1  A    between atoms: S_2  and  C_4
REMARK    2  A    between atoms: S_2  and  C_17
REMARK    3  A    between atoms: C_4  and  C_5
REMARK    4  A    between atoms: C_5  and  S_6
REMARK    5  A    between atoms: S_6  and  C_7
REMARK    6  A    between atoms: C_10  and  C_11
REMARK                            x       y       z     vdW  Elec       q    Type
REMARK                         _______ _______ _______ _____ _____    ______ ____
ROOT
ATOM      1  C   UNL     1       4.930   7.318  17.291  0.00  0.00    +0.000 C 
ENDROOT
BRANCH   1   2
ATOM      2  C   UNL     1       5.401   6.131  18.120  0.00  0.00    +0.000 C 
BRANCH   2   4
ATOM      3  O   UNL     1       7.815   6.729  17.270  0.00  0.00    +0.000 OA
ATOM      4  S   UNL     1       6.986   5.570  17.539  0.00  0.00    +0.000 S 
ATOM      5  O   UNL     1       7.447   4.515  18.421  0.00  0.00    +0.000 OA
BRANCH   4   6
ATOM      6  C   UNL     1       6.637   4.814  15.959  0.00  0.00    +0.000 A 
ATOM      7  C   UNL     1       5.499   4.011  15.818  0.00  0.00    +0.000 A 
ATOM      8  C   UNL     1       5.163   3.499  14.560  0.00  0.00    +0.000 A 
ATOM      9  C   UNL     1       5.960   3.800  13.454  0.00  0.00    +0.000 A 
ATOM     10 CL   UNL     1       5.526   3.196  11.902  0.00  0.00    +0.000 Cl
ATOM     11  C   UNL     1       7.093   4.604  13.594  0.00  0.00    +0.000 A 
ATOM     12  C   UNL     1       7.432   5.117  14.849  0.00  0.00    +0.000 A 
ENDBRANCH   4   6
ENDBRANCH   2   4
ENDBRANCH   1   2
BRANCH   1  13
ATOM     13  S   UNL     1       3.167   7.639  17.659  0.00  0.00    +0.000 S 
BRANCH  13  14
ATOM     14  C   UNL     1       2.714   6.168  18.566  0.00  0.00    +0.000 A 
ATOM     15  C   UNL     1       2.466   5.002  17.850  0.00  0.00    +0.000 A 
ATOM     16  C   UNL     1       2.156   3.832  18.542  0.00  0.00    +0.000 A 
ATOM     17  C   UNL     1       2.100   3.848  19.936  0.00  0.00    +0.000 A 
ATOM     18  C   UNL     1       2.341   5.064  20.565  0.00  0.00    +0.000 A 
ATOM     19  N   UNL     1       2.646   6.216  19.913  0.00  0.00    +0.000 NA
BRANCH  17  20
ATOM     20  C   UNL     1       1.809   2.626  20.750  0.00  0.00    +0.000 C 
ATOM     21  F   UNL     1       2.816   2.292  21.603  0.00  0.00    +0.000 F 
ATOM     22  F   UNL     1       0.700   2.773  21.527  0.00  0.00    +0.000 F 
ATOM     23  F   UNL     1       1.586   1.523  19.986  0.00  0.00    +0.000 F 
ENDBRANCH  17  20
ENDBRANCH  13  14
ENDBRANCH   1  13
TORSDOF 6
ENDMDL
MODEL 9
REMARK VINA RESULT:      -6.8      1.115      1.675
REMARK  Name = 
REMARK  6 active torsions:
REMARK  status: ('A' for Active; 'I' for Inactive)
REMARK    1  A    between atoms: S_2  and  C_4
REMARK    2  A    between atoms: S_2  and  C_17
REMARK    3  A    between atoms: C_4  and  C_5
REMARK    4  A    between atoms: C_5  and  S_6
REMARK    5  A    between atoms: S_6  and  C_7
REMARK    6  A    between atoms: C_10  and  C_11
REMARK                            x       y       z     vdW  Elec       q    Type
REMARK                         _______ _______ _______ _____ _____    ______ ____
ROOT
ATOM      1  C   UNL     1       4.888   3.692  18.889  0.00  0.00    +0.000 C 
ENDROOT
BRANCH   1   2
ATOM      2  C   UNL     1       3.999   4.182  20.023  0.00  0.00    +0.000 C 
BRANCH   2   4
ATOM      3  O   UNL     1       2.244   3.907  18.086  0.00  0.00    +0.000 OA
ATOM      4  S   UNL     1       2.339   4.431  19.435  0.00  0.00    +0.000 S 
ATOM      5  O   UNL     1       1.420   3.993  20.469  0.00  0.00    +0.000 OA
BRANCH   4   6
ATOM      6  C   UNL     1       2.174   6.204  19.307  0.00  0.00    +0.000 A 
ATOM      7  C   UNL     1       2.381   6.826  18.070  0.00  0.00    +0.000 A 
ATOM      8  C   UNL     1       2.154   8.201  17.939  0.00  0.00    +0.000 A 
ATOM      9  C   UNL     1       1.714   8.939  19.040  0.00  0.00    +0.000 A 
ATOM     10 CL   UNL     1       1.404  10.623  18.867  0.00  0.00    +0.000 Cl
ATOM     11  C   UNL     1       1.504   8.318  20.272  0.00  0.00    +0.000 A 
ATOM     12  C   UNL     1       1.731   6.945  20.408  0.00  0.00    +0.000 A 
ENDBRANCH   4   6
ENDBRANCH   2   4
ENDBRANCH   1   2
BRANCH   1  13
ATOM     13  S   UNL     1       5.888   5.092  18.268  0.00  0.00    +0.000 S 
BRANCH  13  14
ATOM     14  C   UNL     1       5.992   4.717  16.525  0.00  0.00    +0.000 A 
ATOM     15  C   UNL     1       7.162   5.047  15.848  0.00  0.00    +0.000 A 
ATOM     16  C   UNL     1       7.281   4.721  14.498  0.00  0.00    +0.000 A 
ATOM     17  C   UNL     1       6.232   4.070  13.848  0.00  0.00    +0.000 A 
ATOM     18  C   UNL     1       5.093   3.799  14.600  0.00  0.00    +0.000 A 
ATOM     19  N   UNL     1       4.954   4.105  15.915  0.00  0.00    +0.000 NA
BRANCH  17  20
ATOM     20  C   UNL     1       6.299   3.656  12.411  0.00  0.00    +0.000 C 
ATOM     21  F   UNL     1       6.687   2.363  12.239  0.00  0.00    +0.000 F 
ATOM     22  F   UNL     1       5.095   3.767  11.784  0.00  0.00    +0.000 F 
ATOM     23  F   UNL     1       7.170   4.407  11.686  0.00  0.00    +0.000 F 
ENDBRANCH  17  20
ENDBRANCH  13  14
ENDBRANCH   1  13
TORSDOF 6
ENDMDL
