MODEL 1
REMARK VINA RESULT:      -5.3      0.000      0.000
REMARK  Name = 
REMARK  6 active torsions:
REMARK  status: ('A' for Active; 'I' for Inactive)
REMARK    1  A    between atoms: N_1  and  C_2
REMARK    2  A    between atoms: C_3  and  O_4
REMARK    3  A    between atoms: C_6  and  C_7
REMARK    4  A    between atoms: C_7  and  O_8
REMARK    5  A    between atoms: C_9  and  O_10
REMARK    6  A    between atoms: C_11  and  O_12
REMARK                            x       y       z     vdW  Elec       q    Type
REMARK                         _______ _______ _______ _____ _____    ______ ____
ROOT
ATOM      1  C   UNL     1       6.672   6.161  17.184  0.00  0.00    +0.000 C 
ATOM      2  C   UNL     1       5.239   6.620  16.780  0.00  0.00    +0.000 C 
ATOM      3  O   UNL     1       4.230   5.737  17.270  0.00  0.00    +0.000 OA
ATOM      4  C   UNL     1       4.370   4.387  16.802  0.00  0.00    +0.000 C 
ATOM      5  C   UNL     1       5.701   3.817  17.311  0.00  0.00    +0.000 C 
ATOM      6  C   UNL     1       6.867   4.675  16.794  0.00  0.00    +0.000 C 
ENDROOT
BRANCH   1   7
ATOM      7  N   UNL     1       7.737   7.020  16.631  0.00  0.00    +0.000 NA
ATOM      8  H   UNL     1       7.514   8.001  16.806  0.00  0.00    +0.000 HD
ATOM      9  H   UNL     1       7.788   6.924  15.619  0.00  0.00    +0.000 HD
ENDBRANCH   1   7
BRANCH   2  10
ATOM     10  O   UNL     1       5.090   6.825  15.381  0.00  0.00    +0.000 OA
ATOM     11  H   UNL     1       4.610   7.654  15.232  0.00  0.00    +0.000 HD
ENDBRANCH   2  10
BRANCH   5  12
ATOM     12  O   UNL     1       5.731   3.813  18.752  0.00  0.00    +0.000 OA
ATOM     13  H   UNL     1       4.873   3.467  19.066  0.00  0.00    +0.000 HD
ENDBRANCH   5  12
BRANCH   6  14
ATOM     14  O   UNL     1       8.092   4.157  17.324  0.00  0.00    +0.000 OA
ATOM     15  H   UNL     1       8.433   4.836  17.938  0.00  0.00    +0.000 HD
ENDBRANCH   6  14
BRANCH   4  16
ATOM     16  C   UNL     1       3.167   3.576  17.299  0.00  0.00    +0.000 C 
BRANCH  16  17
ATOM     17  O   UNL     1       3.553   2.269  17.708  0.00  0.00    +0.000 OA
ATOM     18  H   UNL     1       3.131   2.097  18.569  0.00  0.00    +0.000 HD
ENDBRANCH  16  17
ENDBRANCH   4  16
TORSDOF 6
ENDMDL
MODEL 2
REMARK VINA RESULT:      -5.1      3.443      4.959
REMARK  Name = 
REMARK  6 active torsions:
REMARK  status: ('A' for Active; 'I' for Inactive)
REMARK    1  A    between atoms: N_1  and  C_2
REMARK    2  A    between atoms: C_3  and  O_4
REMARK    3  A    between atoms: C_6  and  C_7
REMARK    4  A    between atoms: C_7  and  O_8
REMARK    5  A    between atoms: C_9  and  O_10
REMARK    6  A    between atoms: C_11  and  O_12
REMARK                            x       y       z     vdW  Elec       q    Type
REMARK                         _______ _______ _______ _____ _____    ______ ____
ROOT
ATOM      1  C   UNL     1       1.733   3.713  19.345  0.00  0.00    +0.000 C 
ATOM      2  C   UNL     1       2.279   5.045  19.941  0.00  0.00    +0.000 C 
ATOM      3  O   UNL     1       3.495   5.457  19.317  0.00  0.00    +0.000 OA
ATOM      4  C   UNL     1       4.555   4.496  19.432  0.00  0.00    +0.000 C 
ATOM      5  C   UNL     1       4.140   3.205  18.713  0.00  0.00    +0.000 C 
ATOM      6  C   UNL     1       2.856   2.647  19.347  0.00  0.00    +0.000 C 
ENDROOT
BRANCH   1   7
ATOM      7  N   UNL     1       0.512   3.230  20.020  0.00  0.00    +0.000 NA
ATOM      8  H   UNL     1      -0.300   3.393  19.422  0.00  0.00    +0.000 HD
ATOM      9  H   UNL     1       0.338   3.759  20.872  0.00  0.00    +0.000 HD
ENDBRANCH   1   7
BRANCH   2  10
ATOM     10  O   UNL     1       2.428   5.006  21.354  0.00  0.00    +0.000 OA
ATOM     11  H   UNL     1       2.434   5.912  21.697  0.00  0.00    +0.000 HD
ENDBRANCH   2  10
BRANCH   5  12
ATOM     12  O   UNL     1       3.895   3.460  17.316  0.00  0.00    +0.000 OA
ATOM     13  H   UNL     1       4.567   2.970  16.803  0.00  0.00    +0.000 HD
ENDBRANCH   5  12
BRANCH   6  14
ATOM     14  O   UNL     1       2.457   1.474  18.629  0.00  0.00    +0.000 OA
ATOM     15  H   UNL     1       1.911   0.948  19.245  0.00  0.00    +0.000 HD
ENDBRANCH   6  14
BRANCH   4  16
ATOM     16  C   UNL     1       5.827   5.107  18.831  0.00  0.00    +0.000 C 
BRANCH  16  17
ATOM     17  O   UNL     1       6.677   4.106  18.282  0.00  0.00    +0.000 OA
ATOM     18  H   UNL     1       7.592   4.435  18.342  0.00  0.00    +0.000 HD
ENDBRANCH  16  17
ENDBRANCH   4  16
TORSDOF 6
ENDMDL
MODEL 3
REMARK VINA RESULT:      -5.1      2.683      4.042
REMARK  Name = 
REMARK  6 active torsions:
REMARK  status: ('A' for Active; 'I' for Inactive)
REMARK    1  A    between atoms: N_1  and  C_2
REMARK    2  A    between atoms: C_3  and  O_4
REMARK    3  A    between atoms: C_6  and  C_7
REMARK    4  A    between atoms: C_7  and  O_8
REMARK    5  A    between atoms: C_9  and  O_10
REMARK    6  A    between atoms: C_11  and  O_12
REMARK                            x       y       z     vdW  Elec       q    Type
REMARK                         _______ _______ _______ _____ _____    ______ ____
ROOT
ATOM      1  C   UNL     1       3.781   2.498  17.986  0.00  0.00    +0.000 C 
ATOM      2  C   UNL     1       3.122   3.522  17.016  0.00  0.00    +0.000 C 
ATOM      3  O   UNL     1       3.988   4.617  16.716  0.00  0.00    +0.000 OA
ATOM      4  C   UNL     1       4.397   5.361  17.874  0.00  0.00    +0.000 C 
ATOM      5  C   UNL     1       5.202   4.439  18.801  0.00  0.00    +0.000 C 
ATOM      6  C   UNL     1       4.336   3.243  19.226  0.00  0.00    +0.000 C 
ENDROOT
BRANCH   1   7
ATOM      7  N   UNL     1       2.881   1.390  18.365  0.00  0.00    +0.000 NA
ATOM      8  H   UNL     1       2.173   1.259  17.642  0.00  0.00    +0.000 HD
ATOM      9  H   UNL     1       2.369   1.618  19.215  0.00  0.00    +0.000 HD
ENDBRANCH   1   7
BRANCH   2  10
ATOM     10  O   UNL     1       1.859   3.990  17.469  0.00  0.00    +0.000 OA
ATOM     11  H   UNL     1       1.593   4.753  16.934  0.00  0.00    +0.000 HD
ENDBRANCH   2  10
BRANCH   5  12
ATOM     12  O   UNL     1       6.377   3.947  18.129  0.00  0.00    +0.000 OA
ATOM     13  H   UNL     1       7.044   3.735  18.811  0.00  0.00    +0.000 HD
ENDBRANCH   5  12
BRANCH   6  14
ATOM     14  O   UNL     1       5.122   2.371  20.045  0.00  0.00    +0.000 OA
ATOM     15  H   UNL     1       5.623   1.797  19.433  0.00  0.00    +0.000 HD
ENDBRANCH   6  14
BRANCH   4  16
ATOM     16  C   UNL     1       5.217   6.569  17.407  0.00  0.00    +0.000 C 
BRANCH  16  17
ATOM     17  O   UNL     1       5.920   6.288  16.202  0.00  0.00    +0.000 OA
ATOM     18  H   UNL     1       6.730   5.804  16.443  0.00  0.00    +0.000 HD
ENDBRANCH  16  17
ENDBRANCH   4  16
TORSDOF 6
ENDMDL
MODEL 4
REMARK VINA RESULT:      -5.1      3.206      5.024
REMARK  Name = 
REMARK  6 active torsions:
REMARK  status: ('A' for Active; 'I' for Inactive)
REMARK    1  A    between atoms: N_1  and  C_2
REMARK    2  A    between atoms: C_3  and  O_4
REMARK    3  A    between atoms: C_6  and  C_7
REMARK    4  A    between atoms: C_7  and  O_8
REMARK    5  A    between atoms: C_9  and  O_10
REMARK    6  A    between atoms: C_11  and  O_12
REMARK                            x       y       z     vdW  Elec       q    Type
REMARK                         _______ _______ _______ _____ _____    ______ ____
ROOT
ATOM      1  C   UNL     1       2.434   2.701  18.893  0.00  0.00    +0.000 C 
ATOM      2  C   UNL     1       3.834   2.128  19.264  0.00  0.00    +0.000 C 
ATOM      3  O   UNL     1       4.828   3.149  19.362  0.00  0.00    +0.000 OA
ATOM      4  C   UNL     1       5.004   3.899  18.152  0.00  0.00    +0.000 C 
ATOM      5  C   UNL     1       3.694   4.628  17.820  0.00  0.00    +0.000 C 
ATOM      6  C   UNL     1       2.560   3.605  17.642  0.00  0.00    +0.000 C 
ENDROOT
BRANCH   1   7
ATOM      7  N   UNL     1       1.404   1.658  18.718  0.00  0.00    +0.000 NA
ATOM      8  H   UNL     1       1.535   0.923  19.415  0.00  0.00    +0.000 HD
ATOM      9  H   UNL     1       1.505   1.202  17.813  0.00  0.00    +0.000 HD
ENDBRANCH   1   7
BRANCH   2  10
ATOM     10  O   UNL     1       4.264   1.092  18.390  0.00  0.00    +0.000 OA
ATOM     11  H   UNL     1       3.829   0.264  18.641  0.00  0.00    +0.000 HD
ENDBRANCH   2  10
BRANCH   5  12
ATOM     12  O   UNL     1       3.339   5.536  18.880  0.00  0.00    +0.000 OA
ATOM     13  H   UNL     1       2.502   5.974  18.629  0.00  0.00    +0.000 HD
ENDBRANCH   5  12
BRANCH   6  14
ATOM     14  O   UNL     1       1.340   4.309  17.387  0.00  0.00    +0.000 OA
ATOM     15  H   UNL     1       0.678   3.943  18.006  0.00  0.00    +0.000 HD
ENDBRANCH   6  14
BRANCH   4  16
ATOM     16  C   UNL     1       6.171   4.873  18.353  0.00  0.00    +0.000 C 
BRANCH  16  17
ATOM     17  O   UNL     1       6.360   5.183  19.729  0.00  0.00    +0.000 OA
ATOM     18  H   UNL     1       7.148   5.752  19.794  0.00  0.00    +0.000 HD
ENDBRANCH  16  17
ENDBRANCH   4  16
TORSDOF 6
ENDMDL
MODEL 5
REMARK VINA RESULT:      -5.1      2.104      3.670
REMARK  Name = 
REMARK  6 active torsions:
REMARK  status: ('A' for Active; 'I' for Inactive)
REMARK    1  A    between atoms: N_1  and  C_2
REMARK    2  A    between atoms: C_3  and  O_4
REMARK    3  A    between atoms: C_6  and  C_7
REMARK    4  A    between atoms: C_7  and  O_8
REMARK    5  A    between atoms: C_9  and  O_10
REMARK    6  A    between atoms: C_11  and  O_12
REMARK                            x       y       z     vdW  Elec       q    Type
REMARK                         _______ _______ _______ _____ _____    ______ ____
ROOT
ATOM      1  C   UNL     1       5.769   4.181  15.849  0.00  0.00    +0.000 C 
ATOM      2  C   UNL     1       7.296   4.461  15.726  0.00  0.00    +0.000 C 
ATOM      3  O   UNL     1       7.951   4.455  16.995  0.00  0.00    +0.000 OA
ATOM      4  C   UNL     1       7.432   5.427  17.915  0.00  0.00    +0.000 C 
ATOM      5  C   UNL     1       5.960   5.104  18.208  0.00  0.00    +0.000 C 
ATOM      6  C   UNL     1       5.151   5.134  16.901  0.00  0.00    +0.000 C 
ENDROOT
BRANCH   1   7
ATOM      7  N   UNL     1       5.057   4.249  14.557  0.00  0.00    +0.000 NA
ATOM      8  H   UNL     1       4.118   4.622  14.701  0.00  0.00    +0.000 HD
ATOM      9  H   UNL     1       4.929   3.318  14.167  0.00  0.00    +0.000 HD
ENDBRANCH   1   7
BRANCH   2  10
ATOM     10  O   UNL     1       7.590   5.657  15.016  0.00  0.00    +0.000 OA
ATOM     11  H   UNL     1       8.552   5.768  14.966  0.00  0.00    +0.000 HD
ENDBRANCH   2  10
BRANCH   5  12
ATOM     12  O   UNL     1       5.838   3.795  18.799  0.00  0.00    +0.000 OA
ATOM     13  H   UNL     1       6.635   3.283  18.555  0.00  0.00    +0.000 HD
ENDBRANCH   5  12
BRANCH   6  14
ATOM     14  O   UNL     1       3.795   4.778  17.190  0.00  0.00    +0.000 OA
ATOM     15  H   UNL     1       3.300   4.886  16.354  0.00  0.00    +0.000 HD
ENDBRANCH   6  14
BRANCH   4  16
ATOM     16  C   UNL     1       8.293   5.398  19.184  0.00  0.00    +0.000 C 
BRANCH  16  17
ATOM     17  O   UNL     1       7.497   5.527  20.356  0.00  0.00    +0.000 OA
ATOM     18  H   UNL     1       7.037   6.384  20.304  0.00  0.00    +0.000 HD
ENDBRANCH  16  17
ENDBRANCH   4  16
TORSDOF 6
ENDMDL
MODEL 6
REMARK VINA RESULT:      -5.0      3.332      4.834
REMARK  Name = 
REMARK  6 active torsions:
REMARK  status: ('A' for Active; 'I' for Inactive)
REMARK    1  A    between atoms: N_1  and  C_2
REMARK    2  A    between atoms: C_3  and  O_4
REMARK    3  A    between atoms: C_6  and  C_7
REMARK    4  A    between atoms: C_7  and  O_8
REMARK    5  A    between atoms: C_9  and  O_10
REMARK    6  A    between atoms: C_11  and  O_12
REMARK                            x       y       z     vdW  Elec       q    Type
REMARK                         _______ _______ _______ _____ _____    ______ ____
ROOT
ATOM      1  C   UNL     1       1.933   2.578  19.120  0.00  0.00    +0.000 C 
ATOM      2  C   UNL     1       2.059   3.105  17.660  0.00  0.00    +0.000 C 
ATOM      3  O   UNL     1       3.420   3.228  17.246  0.00  0.00    +0.000 OA
ATOM      4  C   UNL     1       4.193   4.117  18.066  0.00  0.00    +0.000 C 
ATOM      5  C   UNL     1       4.245   3.560  19.496  0.00  0.00    +0.000 C 
ATOM      6  C   UNL     1       2.820   3.434  20.058  0.00  0.00    +0.000 C 
ENDROOT
BRANCH   1   7
ATOM      7  N   UNL     1       0.537   2.507  19.596  0.00  0.00    +0.000 NA
ATOM      8  H   UNL     1       0.021   3.328  19.277  0.00  0.00    +0.000 HD
ATOM      9  H   UNL     1       0.501   2.536  20.613  0.00  0.00    +0.000 HD
ENDBRANCH   1   7
BRANCH   2  10
ATOM     10  O   UNL     1       1.356   4.321  17.441  0.00  0.00    +0.000 OA
ATOM     11  H   UNL     1       1.543   4.639  16.545  0.00  0.00    +0.000 HD
ENDBRANCH   2  10
BRANCH   5  12
ATOM     12  O   UNL     1       4.866   2.259  19.509  0.00  0.00    +0.000 OA
ATOM     13  H   UNL     1       5.675   2.322  20.054  0.00  0.00    +0.000 HD
ENDBRANCH   5  12
BRANCH   6  14
ATOM     14  O   UNL     1       2.889   2.863  21.369  0.00  0.00    +0.000 OA
ATOM     15  H   UNL     1       3.830   2.886  21.629  0.00  0.00    +0.000 HD
ENDBRANCH   6  14
BRANCH   4  16
ATOM     16  C   UNL     1       5.589   4.252  17.448  0.00  0.00    +0.000 C 
BRANCH  16  17
ATOM     17  O   UNL     1       6.610   4.114  18.430  0.00  0.00    +0.000 OA
ATOM     18  H   UNL     1       7.314   3.563  18.044  0.00  0.00    +0.000 HD
ENDBRANCH  16  17
ENDBRANCH   4  16
TORSDOF 6
ENDMDL
MODEL 7
REMARK VINA RESULT:      -5.0      3.442      4.774
REMARK  Name = 
REMARK  6 active torsions:
REMARK  status: ('A' for Active; 'I' for Inactive)
REMARK    1  A    between atoms: N_1  and  C_2
REMARK    2  A    between atoms: C_3  and  O_4
REMARK    3  A    between atoms: C_6  and  C_7
REMARK    4  A    between atoms: C_7  and  O_8
REMARK    5  A    between atoms: C_9  and  O_10
REMARK    6  A    between atoms: C_11  and  O_12
REMARK                            x       y       z     vdW  Elec       q    Type
REMARK                         _______ _______ _______ _____ _____    ______ ____
ROOT
ATOM      1  C   UNL     1       3.634   2.241  19.010  0.00  0.00    +0.000 C 
ATOM      2  C   UNL     1       4.648   3.348  19.425  0.00  0.00    +0.000 C 
ATOM      3  O   UNL     1       4.005   4.590  19.714  0.00  0.00    +0.000 OA
ATOM      4  C   UNL     1       3.256   5.120  18.610  0.00  0.00    +0.000 C 
ATOM      5  C   UNL     1       2.127   4.142  18.256  0.00  0.00    +0.000 C 
ATOM      6  C   UNL     1       2.721   2.776  17.879  0.00  0.00    +0.000 C 
ENDROOT
BRANCH   1   7
ATOM      7  N   UNL     1       4.281   0.966  18.640  0.00  0.00    +0.000 NA
ATOM      8  H   UNL     1       5.234   0.945  19.005  0.00  0.00    +0.000 HD
ATOM      9  H   UNL     1       4.370   0.888  17.629  0.00  0.00    +0.000 HD
ENDBRANCH   1   7
BRANCH   2  10
ATOM     10  O   UNL     1       5.695   3.532  18.480  0.00  0.00    +0.000 OA
ATOM     11  H   UNL     1       6.536   3.619  18.952  0.00  0.00    +0.000 HD
ENDBRANCH   2  10
BRANCH   5  12
ATOM     12  O   UNL     1       1.239   3.969  19.378  0.00  0.00    +0.000 OA
ATOM     13  H   UNL     1       1.314   3.041  19.676  0.00  0.00    +0.000 HD
ENDBRANCH   5  12
BRANCH   6  14
ATOM     14  O   UNL     1       1.650   1.866  17.605  0.00  0.00    +0.000 OA
ATOM     15  H   UNL     1       1.064   1.889  18.387  0.00  0.00    +0.000 HD
ENDBRANCH   6  14
BRANCH   4  16
ATOM     16  C   UNL     1       2.721   6.500  19.008  0.00  0.00    +0.000 C 
BRANCH  16  17
ATOM     17  O   UNL     1       2.386   6.550  20.390  0.00  0.00    +0.000 OA
ATOM     18  H   UNL     1       3.193   6.792  20.878  0.00  0.00    +0.000 HD
ENDBRANCH  16  17
ENDBRANCH   4  16
TORSDOF 6
ENDMDL
MODEL 8
REMARK VINA RESULT:      -5.0      2.846      3.709
REMARK  Name = 
REMARK  6 active torsions:
REMARK  status: ('A' for Active; 'I' for Inactive)
REMARK    1  A    between atoms: N_1  and  C_2
REMARK    2  A    between atoms: C_3  and  O_4
REMARK    3  A    between atoms: C_6  and  C_7
REMARK    4  A    between atoms: C_7  and  O_8
REMARK    5  A    between atoms: C_9  and  O_10
REMARK    6  A    between atoms: C_11  and  O_12
REMARK                            x       y       z     vdW  Elec       q    Type
REMARK                         _______ _______ _______ _____ _____    ______ ____
ROOT
ATOM      1  C   UNL     1       4.815   3.825  19.101  0.00  0.00    +0.000 C 
ATOM      2  C   UNL     1       3.768   4.490  18.160  0.00  0.00    +0.000 C 
ATOM      3  O   UNL     1       2.427   4.251  18.589  0.00  0.00    +0.000 OA
ATOM      4  C   UNL     1       2.085   2.859  18.658  0.00  0.00    +0.000 C 
ATOM      5  C   UNL     1       2.980   2.174  19.700  0.00  0.00    +0.000 C 
ATOM      6  C   UNL     1       4.456   2.332  19.302  0.00  0.00    +0.000 C 
ENDROOT
BRANCH   1   7
ATOM      7  N   UNL     1       6.207   4.000  18.641  0.00  0.00    +0.000 NA
ATOM      8  H   UNL     1       6.850   3.593  19.323  0.00  0.00    +0.000 HD
ATOM      9  H   UNL     1       6.448   4.988  18.590  0.00  0.00    +0.000 HD
ENDBRANCH   1   7
BRANCH   2  10
ATOM     10  O   UNL     1       3.930   4.126  16.796  0.00  0.00    +0.000 OA
ATOM     11  H   UNL     1       4.752   3.622  16.697  0.00  0.00    +0.000 HD
ENDBRANCH   2  10
BRANCH   5  12
ATOM     12  O   UNL     1       2.784   2.765  21.001  0.00  0.00    +0.000 OA
ATOM     13  H   UNL     1       1.872   2.562  21.285  0.00  0.00    +0.000 HD
ENDBRANCH   5  12
BRANCH   6  14
ATOM     14  O   UNL     1       5.274   1.734  20.314  0.00  0.00    +0.000 OA
ATOM     15  H   UNL     1       6.158   2.141  20.227  0.00  0.00    +0.000 HD
ENDBRANCH   6  14
BRANCH   4  16
ATOM     16  C   UNL     1       0.597   2.744  19.012  0.00  0.00    +0.000 C 
BRANCH  16  17
ATOM     17  O   UNL     1       0.287   3.460  20.202  0.00  0.00    +0.000 OA
ATOM     18  H   UNL     1      -0.155   4.287  19.939  0.00  0.00    +0.000 HD
ENDBRANCH  16  17
ENDBRANCH   4  16
TORSDOF 6
ENDMDL
MODEL 9
REMARK VINA RESULT:      -5.0      2.025      3.945
REMARK  Name = 
REMARK  6 active torsions:
REMARK  status: ('A' for Active; 'I' for Inactive)
REMARK    1  A    between atoms: N_1  and  C_2
REMARK    2  A    between atoms: C_3  and  O_4
REMARK    3  A    between atoms: C_6  and  C_7
REMARK    4  A    between atoms: C_7  and  O_8
REMARK    5  A    between atoms: C_9  and  O_10
REMARK    6  A    between atoms: C_11  and  O_12
REMARK                            x       y       z     vdW  Elec       q    Type
REMARK                         _______ _______ _______ _____ _____    ______ ____
ROOT
ATOM      1  C   UNL     1       6.136   5.453  18.231  0.00  0.00    +0.000 C 
ATOM      2  C   UNL     1       7.560   5.212  17.649  0.00  0.00    +0.000 C 
ATOM      3  O   UNL     1       7.611   5.427  16.238  0.00  0.00    +0.000 OA
ATOM      4  C   UNL     1       6.720   4.583  15.494  0.00  0.00    +0.000 C 
ATOM      5  C   UNL     1       5.275   4.893  15.908  0.00  0.00    +0.000 C 
ATOM      6  C   UNL     1       5.099   4.643  17.414  0.00  0.00    +0.000 C 
ENDROOT
BRANCH   1   7
ATOM      7  N   UNL     1       6.041   5.171  19.677  0.00  0.00    +0.000 NA
ATOM      8  H   UNL     1       5.073   4.960  19.924  0.00  0.00    +0.000 HD
ATOM      9  H   UNL     1       6.292   5.994  20.221  0.00  0.00    +0.000 HD
ENDBRANCH   1   7
BRANCH   2  10
ATOM     10  O   UNL     1       8.091   3.936  17.981  0.00  0.00    +0.000 OA
ATOM     11  H   UNL     1       8.372   3.488  17.169  0.00  0.00    +0.000 HD
ENDBRANCH   2  10
BRANCH   5  12
ATOM     12  O   UNL     1       4.953   6.269  15.624  0.00  0.00    +0.000 OA
ATOM     13  H   UNL     1       5.517   6.560  14.881  0.00  0.00    +0.000 HD
ENDBRANCH   5  12
BRANCH   6  14
ATOM     14  O   UNL     1       3.761   4.990  17.787  0.00  0.00    +0.000 OA
ATOM     15  H   UNL     1       3.681   4.788  18.739  0.00  0.00    +0.000 HD
ENDBRANCH   6  14
BRANCH   4  16
ATOM     16  C   UNL     1       6.958   4.827  14.000  0.00  0.00    +0.000 C 
BRANCH  16  17
ATOM     17  O   UNL     1       8.089   5.662  13.781  0.00  0.00    +0.000 OA
ATOM     18  H   UNL     1       8.877   5.169  14.072  0.00  0.00    +0.000 HD
ENDBRANCH  16  17
ENDBRANCH   4  16
TORSDOF 6
ENDMDL
