MODEL 1
REMARK VINA RESULT:      -8.5      0.000      0.000
REMARK  Name = 
REMARK  4 active torsions:
REMARK  status: ('A' for Active; 'I' for Inactive)
REMARK    1  A    between atoms: O_1  and  C_2
REMARK    2  A    between atoms: C_5  and  C_6
REMARK    3  A    between atoms: C_6  and  C_7
REMARK    4  A    between atoms: C_10  and  O_11
REMARK                            x       y       z     vdW  Elec       q    Type
REMARK                         _______ _______ _______ _____ _____    ______ ____
ROOT
ATOM      1  C   UNL     1       3.008   5.964  18.754  0.00  0.00    +0.000 C 
ATOM      2  C   UNL     1       2.791   5.346  17.363  0.00  0.00    +0.000 C 
ATOM      3  C   UNL     1       3.919   4.279  17.277  0.00  0.00    +0.000 C 
ATOM      4  C   UNL     1       4.700   4.283  18.618  0.00  0.00    +0.000 C 
ATOM      5  C   UNL     1       4.654   5.807  18.715  0.00  0.00    +0.000 C 
ATOM      6  C   UNL     1       5.448   6.055  17.305  0.00  0.00    +0.000 C 
ATOM      7  C   UNL     1       6.974   5.788  17.337  0.00  0.00    +0.000 C 
ATOM      8  C   UNL     1       7.304   4.503  16.567  0.00  0.00    +0.000 C 
ATOM      9  C   UNL     1       6.023   3.972  15.956  0.00  0.00    +0.000 C 
ATOM     10  C   UNL     1       4.922   4.941  16.349  0.00  0.00    +0.000 C 
ENDROOT
BRANCH   1  14
ATOM     11  C   UNL     1       1.459   2.891  21.501  0.00  0.00    +0.000 A 
ATOM     12  C   UNL     1       0.870   3.051  20.265  0.00  0.00    +0.000 A 
ATOM     13  C   UNL     1       1.264   4.120  19.452  0.00  0.00    +0.000 A 
ATOM     14  C   UNL     1       2.309   5.003  19.819  0.00  0.00    +0.000 A 
ATOM     15  C   UNL     1       2.827   4.859  21.121  0.00  0.00    +0.000 A 
ATOM     16  C   UNL     1       2.411   3.803  21.947  0.00  0.00    +0.000 A 
BRANCH  11  17
ATOM     17  O   UNL     1       1.139   1.834  22.302  0.00  0.00    +0.000 OA
ATOM     18  H   UNL     1       0.643   1.188  21.767  0.00  0.00    +0.000 HD
ENDBRANCH  11  17
ENDBRANCH   1  14
BRANCH   1  19
ATOM     19  C   UNL     1       2.390   7.366  18.936  0.00  0.00    +0.000 A 
ATOM     20  C   UNL     1       1.809   7.773  20.151  0.00  0.00    +0.000 A 
ATOM     21  C   UNL     1       1.070   8.968  20.250  0.00  0.00    +0.000 A 
ATOM     22  C   UNL     1       0.914   9.783  19.140  0.00  0.00    +0.000 A 
ATOM     23  C   UNL     1       1.473   9.412  17.922  0.00  0.00    +0.000 A 
ATOM     24  C   UNL     1       2.197   8.202  17.819  0.00  0.00    +0.000 A 
BRANCH  22  25
ATOM     25  O   UNL     1       0.198  10.942  19.181  0.00  0.00    +0.000 OA
ATOM     26  H   UNL     1      -0.115  11.140  18.287  0.00  0.00    +0.000 HD
ENDBRANCH  22  25
ENDBRANCH   1  19
TORSDOF 4
ENDMDL
MODEL 2
REMARK VINA RESULT:      -8.3      0.205      1.001
REMARK  Name = 
REMARK  4 active torsions:
REMARK  status: ('A' for Active; 'I' for Inactive)
REMARK    1  A    between atoms: O_1  and  C_2
REMARK    2  A    between atoms: C_5  and  C_6
REMARK    3  A    between atoms: C_6  and  C_7
REMARK    4  A    between atoms: C_10  and  O_11
REMARK                            x       y       z     vdW  Elec       q    Type
REMARK                         _______ _______ _______ _____ _____    ______ ____
ROOT
ATOM      1  C   UNL     1       2.930   5.925  18.678  0.00  0.00    +0.000 C 
ATOM      2  C   UNL     1       2.798   5.233  17.311  0.00  0.00    +0.000 C 
ATOM      3  C   UNL     1       3.996   4.240  17.307  0.00  0.00    +0.000 C 
ATOM      4  C   UNL     1       4.732   4.357  18.669  0.00  0.00    +0.000 C 
ATOM      5  C   UNL     1       4.583   5.877  18.693  0.00  0.00    +0.000 C 
ATOM      6  C   UNL     1       5.403   6.114  17.296  0.00  0.00    +0.000 C 
ATOM      7  C   UNL     1       6.942   5.951  17.384  0.00  0.00    +0.000 C 
ATOM      8  C   UNL     1       7.380   4.659  16.685  0.00  0.00    +0.000 C 
ATOM      9  C   UNL     1       6.156   4.016  16.062  0.00  0.00    +0.000 C 
ATOM     10  C   UNL     1       4.982   4.926  16.379  0.00  0.00    +0.000 C 
ENDROOT
BRANCH   1  14
ATOM     11  C   UNL     1       1.487   2.874  21.505  0.00  0.00    +0.000 A 
ATOM     12  C   UNL     1       0.904   2.969  20.259  0.00  0.00    +0.000 A 
ATOM     13  C   UNL     1       1.260   4.029  19.417  0.00  0.00    +0.000 A 
ATOM     14  C   UNL     1       2.262   4.968  19.765  0.00  0.00    +0.000 A 
ATOM     15  C   UNL     1       2.771   4.887  21.076  0.00  0.00    +0.000 A 
ATOM     16  C   UNL     1       2.393   3.840  21.931  0.00  0.00    +0.000 A 
BRANCH  11  17
ATOM     17  O   UNL     1       1.204   1.828  22.335  0.00  0.00    +0.000 OA
ATOM     18  H   UNL     1       1.948   1.200  22.294  0.00  0.00    +0.000 HD
ENDBRANCH  11  17
ENDBRANCH   1  14
BRANCH   1  19
ATOM     19  C   UNL     1       2.217   7.289  18.777  0.00  0.00    +0.000 A 
ATOM     20  C   UNL     1       2.227   8.215  17.718  0.00  0.00    +0.000 A 
ATOM     21  C   UNL     1       1.752   9.531  17.884  0.00  0.00    +0.000 A 
ATOM     22  C   UNL     1       1.246   9.937  19.109  0.00  0.00    +0.000 A 
ATOM     23  C   UNL     1       1.222   9.050  20.179  0.00  0.00    +0.000 A 
ATOM     24  C   UNL     1       1.718   7.736  20.016  0.00  0.00    +0.000 A 
BRANCH  22  25
ATOM     25  O   UNL     1       0.787  11.202  19.325  0.00  0.00    +0.000 OA
ATOM     26  H   UNL     1      -0.030  11.321  18.822  0.00  0.00    +0.000 HD
ENDBRANCH  22  25
ENDBRANCH   1  19
TORSDOF 4
ENDMDL
MODEL 3
REMARK VINA RESULT:      -8.3      0.544      1.485
REMARK  Name = 
REMARK  4 active torsions:
REMARK  status: ('A' for Active; 'I' for Inactive)
REMARK    1  A    between atoms: O_1  and  C_2
REMARK    2  A    between atoms: C_5  and  C_6
REMARK    3  A    between atoms: C_6  and  C_7
REMARK    4  A    between atoms: C_10  and  O_11
REMARK                            x       y       z     vdW  Elec       q    Type
REMARK                         _______ _______ _______ _____ _____    ______ ____
ROOT
ATOM      1  C   UNL     1       3.153   5.539  18.523  0.00  0.00    +0.000 C 
ATOM      2  C   UNL     1       2.971   4.993  17.097  0.00  0.00    +0.000 C 
ATOM      3  C   UNL     1       4.225   4.094  16.905  0.00  0.00    +0.000 C 
ATOM      4  C   UNL     1       5.045   4.112  18.224  0.00  0.00    +0.000 C 
ATOM      5  C   UNL     1       4.802   5.606  18.430  0.00  0.00    +0.000 C 
ATOM      6  C   UNL     1       5.507   6.053  17.021  0.00  0.00    +0.000 C 
ATOM      7  C   UNL     1       7.056   5.990  16.995  0.00  0.00    +0.000 C 
ATOM      8  C   UNL     1       7.525   4.816  16.127  0.00  0.00    +0.000 C 
ATOM      9  C   UNL     1       6.304   4.161  15.512  0.00  0.00    +0.000 C 
ATOM     10  C   UNL     1       5.100   4.946  16.002  0.00  0.00    +0.000 C 
ENDROOT
BRANCH   1  14
ATOM     11  C   UNL     1       1.357   2.895  21.551  0.00  0.00    +0.000 A 
ATOM     12  C   UNL     1       2.548   3.530  21.831  0.00  0.00    +0.000 A 
ATOM     13  C   UNL     1       3.192   4.252  20.819  0.00  0.00    +0.000 A 
ATOM     14  C   UNL     1       2.624   4.424  19.533  0.00  0.00    +0.000 A 
ATOM     15  C   UNL     1       1.451   3.692  19.261  0.00  0.00    +0.000 A 
ATOM     16  C   UNL     1       0.820   2.945  20.268  0.00  0.00    +0.000 A 
BRANCH  11  17
ATOM     17  O   UNL     1       0.673   2.224  22.522  0.00  0.00    +0.000 OA
ATOM     18  H   UNL     1      -0.272   2.228  22.285  0.00  0.00    +0.000 HD
ENDBRANCH  11  17
ENDBRANCH   1  14
BRANCH   1  19
ATOM     19  C   UNL     1       2.363   6.831  18.821  0.00  0.00    +0.000 A 
ATOM     20  C   UNL     1       2.199   7.844  17.858  0.00  0.00    +0.000 A 
ATOM     21  C   UNL     1       1.656   9.099  18.195  0.00  0.00    +0.000 A 
ATOM     22  C   UNL     1       1.256   9.356  19.496  0.00  0.00    +0.000 A 
ATOM     23  C   UNL     1       1.405   8.380  20.475  0.00  0.00    +0.000 A 
ATOM     24  C   UNL     1       1.968   7.127  20.140  0.00  0.00    +0.000 A 
BRANCH  22  25
ATOM     25  O   UNL     1       0.738  10.558  19.875  0.00  0.00    +0.000 OA
ATOM     26  H   UNL     1       1.320  10.947  20.542  0.00  0.00    +0.000 HD
ENDBRANCH  22  25
ENDBRANCH   1  19
TORSDOF 4
ENDMDL
MODEL 4
REMARK VINA RESULT:      -8.3      0.566      1.114
REMARK  Name = 
REMARK  4 active torsions:
REMARK  status: ('A' for Active; 'I' for Inactive)
REMARK    1  A    between atoms: O_1  and  C_2
REMARK    2  A    between atoms: C_5  and  C_6
REMARK    3  A    between atoms: C_6  and  C_7
REMARK    4  A    between atoms: C_10  and  O_11
REMARK                            x       y       z     vdW  Elec       q    Type
REMARK                         _______ _______ _______ _____ _____    ______ ____
ROOT
ATOM      1  C   UNL     1       3.272   5.648  18.604  0.00  0.00    +0.000 C 
ATOM      2  C   UNL     1       3.012   5.240  17.145  0.00  0.00    +0.000 C 
ATOM      3  C   UNL     1       4.178   4.255  16.846  0.00  0.00    +0.000 C 
ATOM      4  C   UNL     1       5.025   4.093  18.138  0.00  0.00    +0.000 C 
ATOM      5  C   UNL     1       4.919   5.580  18.471  0.00  0.00    +0.000 C 
ATOM      6  C   UNL     1       5.630   6.079  17.083  0.00  0.00    +0.000 C 
ATOM      7  C   UNL     1       7.166   5.886  17.008  0.00  0.00    +0.000 C 
ATOM      8  C   UNL     1       7.511   4.752  16.035  0.00  0.00    +0.000 C 
ATOM      9  C   UNL     1       6.225   4.257  15.405  0.00  0.00    +0.000 C 
ATOM     10  C   UNL     1       5.105   5.100  15.990  0.00  0.00    +0.000 C 
ENDROOT
BRANCH   1  14
ATOM     11  C   UNL     1       1.362   2.931  21.495  0.00  0.00    +0.000 A 
ATOM     12  C   UNL     1       2.655   3.354  21.719  0.00  0.00    +0.000 A 
ATOM     13  C   UNL     1       3.312   4.096  20.731  0.00  0.00    +0.000 A 
ATOM     14  C   UNL     1       2.668   4.503  19.537  0.00  0.00    +0.000 A 
ATOM     15  C   UNL     1       1.379   3.982  19.308  0.00  0.00    +0.000 A 
ATOM     16  C   UNL     1       0.731   3.213  20.288  0.00  0.00    +0.000 A 
BRANCH  11  17
ATOM     17  O   UNL     1       0.669   2.249  22.453  0.00  0.00    +0.000 OA
ATOM     18  H   UNL     1       0.788   2.714  23.301  0.00  0.00    +0.000 HD
ENDBRANCH  11  17
ENDBRANCH   1  14
BRANCH   1  19
ATOM     19  C   UNL     1       2.605   6.974  19.027  0.00  0.00    +0.000 A 
ATOM     20  C   UNL     1       2.067   7.161  20.313  0.00  0.00    +0.000 A 
ATOM     21  C   UNL     1       1.285   8.289  20.627  0.00  0.00    +0.000 A 
ATOM     22  C   UNL     1       1.040   9.255  19.664  0.00  0.00    +0.000 A 
ATOM     23  C   UNL     1       1.554   9.103  18.382  0.00  0.00    +0.000 A 
ATOM     24  C   UNL     1       2.323   7.960  18.062  0.00  0.00    +0.000 A 
BRANCH  22  25
ATOM     25  O   UNL     1       0.279  10.357  19.914  0.00  0.00    +0.000 OA
ATOM     26  H   UNL     1      -0.254  10.546  19.130  0.00  0.00    +0.000 HD
ENDBRANCH  22  25
ENDBRANCH   1  19
TORSDOF 4
ENDMDL
MODEL 5
REMARK VINA RESULT:      -7.9      2.313      4.857
REMARK  Name = 
REMARK  4 active torsions:
REMARK  status: ('A' for Active; 'I' for Inactive)
REMARK    1  A    between atoms: O_1  and  C_2
REMARK    2  A    between atoms: C_5  and  C_6
REMARK    3  A    between atoms: C_6  and  C_7
REMARK    4  A    between atoms: C_10  and  O_11
REMARK                            x       y       z     vdW  Elec       q    Type
REMARK                         _______ _______ _______ _____ _____    ______ ____
ROOT
ATOM      1  C   UNL     1       3.147   6.077  18.594  0.00  0.00    +0.000 C 
ATOM      2  C   UNL     1       3.608   5.383  19.886  0.00  0.00    +0.000 C 
ATOM      3  C   UNL     1       3.606   3.878  19.492  0.00  0.00    +0.000 C 
ATOM      4  C   UNL     1       3.202   3.765  17.998  0.00  0.00    +0.000 C 
ATOM      5  C   UNL     1       2.137   4.851  18.136  0.00  0.00    +0.000 C 
ATOM      6  C   UNL     1       1.279   4.052  19.280  0.00  0.00    +0.000 C 
ATOM      7  C   UNL     1       0.437   2.854  18.773  0.00  0.00    +0.000 C 
ATOM      8  C   UNL     1       1.069   1.532  19.225  0.00  0.00    +0.000 C 
ATOM      9  C   UNL     1       2.268   1.851  20.096  0.00  0.00    +0.000 C 
ATOM     10  C   UNL     1       2.353   3.365  20.177  0.00  0.00    +0.000 C 
ENDROOT
BRANCH   1  14
ATOM     11  C   UNL     1       6.706   5.892  16.007  0.00  0.00    +0.000 A 
ATOM     12  C   UNL     1       6.868   6.041  17.368  0.00  0.00    +0.000 A 
ATOM     13  C   UNL     1       5.740   6.246  18.173  0.00  0.00    +0.000 A 
ATOM     14  C   UNL     1       4.425   6.227  17.649  0.00  0.00    +0.000 A 
ATOM     15  C   UNL     1       4.306   6.157  16.247  0.00  0.00    +0.000 A 
ATOM     16  C   UNL     1       5.439   5.978  15.438  0.00  0.00    +0.000 A 
BRANCH  11  17
ATOM     17  O   UNL     1       7.773   5.639  15.196  0.00  0.00    +0.000 OA
ATOM     18  H   UNL     1       8.073   4.728  15.363  0.00  0.00    +0.000 HD
ENDBRANCH  11  17
ENDBRANCH   1  14
BRANCH   1  19
ATOM     19  C   UNL     1       2.568   7.493  18.798  0.00  0.00    +0.000 A 
ATOM     20  C   UNL     1       1.891   7.859  19.976  0.00  0.00    +0.000 A 
ATOM     21  C   UNL     1       1.193   9.078  20.075  0.00  0.00    +0.000 A 
ATOM     22  C   UNL     1       1.171   9.956  19.004  0.00  0.00    +0.000 A 
ATOM     23  C   UNL     1       1.827   9.627  17.823  0.00  0.00    +0.000 A 
ATOM     24  C   UNL     1       2.511   8.394  17.718  0.00  0.00    +0.000 A 
BRANCH  22  25
ATOM     25  O   UNL     1       0.499  11.141  19.045  0.00  0.00    +0.000 OA
ATOM     26  H   UNL     1      -0.156  11.146  18.334  0.00  0.00    +0.000 HD
ENDBRANCH  22  25
ENDBRANCH   1  19
TORSDOF 4
ENDMDL
MODEL 6
REMARK VINA RESULT:      -7.9      3.778      6.832
REMARK  Name = 
REMARK  4 active torsions:
REMARK  status: ('A' for Active; 'I' for Inactive)
REMARK    1  A    between atoms: O_1  and  C_2
REMARK    2  A    between atoms: C_5  and  C_6
REMARK    3  A    between atoms: C_6  and  C_7
REMARK    4  A    between atoms: C_10  and  O_11
REMARK                            x       y       z     vdW  Elec       q    Type
REMARK                         _______ _______ _______ _____ _____    ______ ____
ROOT
ATOM      1  C   UNL     1       5.140   4.783  16.923  0.00  0.00    +0.000 C 
ATOM      2  C   UNL     1       3.728   5.384  16.821  0.00  0.00    +0.000 C 
ATOM      3  C   UNL     1       3.120   5.083  18.220  0.00  0.00    +0.000 C 
ATOM      4  C   UNL     1       4.201   4.377  19.082  0.00  0.00    +0.000 C 
ATOM      5  C   UNL     1       4.682   3.533  17.903  0.00  0.00    +0.000 C 
ATOM      6  C   UNL     1       3.233   2.811  17.655  0.00  0.00    +0.000 C 
ATOM      7  C   UNL     1       2.843   1.718  18.682  0.00  0.00    +0.000 C 
ATOM      8  C   UNL     1       1.723   2.225  19.598  0.00  0.00    +0.000 C 
ATOM      9  C   UNL     1       1.313   3.607  19.128  0.00  0.00    +0.000 C 
ATOM     10  C   UNL     1       2.180   3.928  17.923  0.00  0.00    +0.000 C 
ENDROOT
BRANCH   1  14
ATOM     11  C   UNL     1       8.100   7.614  18.539  0.00  0.00    +0.000 A 
ATOM     12  C   UNL     1       8.060   6.326  19.029  0.00  0.00    +0.000 A 
ATOM     13  C   UNL     1       7.028   5.471  18.623  0.00  0.00    +0.000 A 
ATOM     14  C   UNL     1       6.064   5.855  17.660  0.00  0.00    +0.000 A 
ATOM     15  C   UNL     1       6.087   7.202  17.248  0.00  0.00    +0.000 A 
ATOM     16  C   UNL     1       7.107   8.067  17.677  0.00  0.00    +0.000 A 
BRANCH  11  17
ATOM     17  O   UNL     1       9.117   8.461  18.871  0.00  0.00    +0.000 OA
ATOM     18  H   UNL     1       8.735   9.221  19.346  0.00  0.00    +0.000 HD
ENDBRANCH  11  17
ENDBRANCH   1  14
BRANCH   1  19
ATOM     19  C   UNL     1       5.803   4.472  15.565  0.00  0.00    +0.000 A 
ATOM     20  C   UNL     1       7.073   4.971  15.223  0.00  0.00    +0.000 A 
ATOM     21  C   UNL     1       7.583   4.854  13.916  0.00  0.00    +0.000 A 
ATOM     22  C   UNL     1       6.837   4.224  12.932  0.00  0.00    +0.000 A 
ATOM     23  C   UNL     1       5.576   3.721  13.233  0.00  0.00    +0.000 A 
ATOM     24  C   UNL     1       5.057   3.856  14.541  0.00  0.00    +0.000 A 
BRANCH  22  25
ATOM     25  O   UNL     1       7.279   4.098  11.650  0.00  0.00    +0.000 OA
ATOM     26  H   UNL     1       8.000   3.453  11.637  0.00  0.00    +0.000 HD
ENDBRANCH  22  25
ENDBRANCH   1  19
TORSDOF 4
ENDMDL
MODEL 7
REMARK VINA RESULT:      -7.8      0.883      4.777
REMARK  Name = 
REMARK  4 active torsions:
REMARK  status: ('A' for Active; 'I' for Inactive)
REMARK    1  A    between atoms: O_1  and  C_2
REMARK    2  A    between atoms: C_5  and  C_6
REMARK    3  A    between atoms: C_6  and  C_7
REMARK    4  A    between atoms: C_10  and  O_11
REMARK                            x       y       z     vdW  Elec       q    Type
REMARK                         _______ _______ _______ _____ _____    ______ ____
ROOT
ATOM      1  C   UNL     1       3.665   5.384  18.622  0.00  0.00    +0.000 C 
ATOM      2  C   UNL     1       5.148   5.523  19.005  0.00  0.00    +0.000 C 
ATOM      3  C   UNL     1       5.790   6.097  17.710  0.00  0.00    +0.000 C 
ATOM      4  C   UNL     1       4.665   6.314  16.662  0.00  0.00    +0.000 C 
ATOM      5  C   UNL     1       3.970   5.008  17.041  0.00  0.00    +0.000 C 
ATOM      6  C   UNL     1       5.256   4.062  16.678  0.00  0.00    +0.000 C 
ATOM      7  C   UNL     1       5.525   3.844  15.167  0.00  0.00    +0.000 C 
ATOM      8  C   UNL     1       6.774   4.621  14.733  0.00  0.00    +0.000 C 
ATOM      9  C   UNL     1       7.378   5.275  15.960  0.00  0.00    +0.000 C 
ATOM     10  C   UNL     1       6.499   4.885  17.135  0.00  0.00    +0.000 C 
ENDROOT
BRANCH   1  14
ATOM     11  C   UNL     1       1.274   9.060  19.025  0.00  0.00    +0.000 A 
ATOM     12  C   UNL     1       1.818   8.740  17.799  0.00  0.00    +0.000 A 
ATOM     13  C   UNL     1       2.697   7.654  17.704  0.00  0.00    +0.000 A 
ATOM     14  C   UNL     1       2.987   6.816  18.808  0.00  0.00    +0.000 A 
ATOM     15  C   UNL     1       2.480   7.225  20.058  0.00  0.00    +0.000 A 
ATOM     16  C   UNL     1       1.621   8.331  20.158  0.00  0.00    +0.000 A 
BRANCH  11  17
ATOM     17  O   UNL     1       0.376  10.079  19.151  0.00  0.00    +0.000 OA
ATOM     18  H   UNL     1       0.041  10.077  20.066  0.00  0.00    +0.000 HD
ENDBRANCH  11  17
ENDBRANCH   1  14
BRANCH   1  19
ATOM     19  C   UNL     1       2.868   4.390  19.492  0.00  0.00    +0.000 A 
ATOM     20  C   UNL     1       1.464   4.322  19.452  0.00  0.00    +0.000 A 
ATOM     21  C   UNL     1       0.736   3.562  20.388  0.00  0.00    +0.000 A 
ATOM     22  C   UNL     1       1.402   2.847  21.370  0.00  0.00    +0.000 A 
ATOM     23  C   UNL     1       2.789   2.892  21.442  0.00  0.00    +0.000 A 
ATOM     24  C   UNL     1       3.517   3.671  20.514  0.00  0.00    +0.000 A 
BRANCH  22  25
ATOM     25  O   UNL     1       0.743   2.108  22.306  0.00  0.00    +0.000 OA
ATOM     26  H   UNL     1       1.391   1.761  22.935  0.00  0.00    +0.000 HD
ENDBRANCH  22  25
ENDBRANCH   1  19
TORSDOF 4
ENDMDL
MODEL 8
REMARK VINA RESULT:      -7.8      3.570      6.921
REMARK  Name = 
REMARK  4 active torsions:
REMARK  status: ('A' for Active; 'I' for Inactive)
REMARK    1  A    between atoms: O_1  and  C_2
REMARK    2  A    between atoms: C_5  and  C_6
REMARK    3  A    between atoms: C_6  and  C_7
REMARK    4  A    between atoms: C_10  and  O_11
REMARK                            x       y       z     vdW  Elec       q    Type
REMARK                         _______ _______ _______ _____ _____    ______ ____
ROOT
ATOM      1  C   UNL     1       5.554   5.268  17.041  0.00  0.00    +0.000 C 
ATOM      2  C   UNL     1       4.246   6.078  17.039  0.00  0.00    +0.000 C 
ATOM      3  C   UNL     1       3.821   6.055  18.535  0.00  0.00    +0.000 C 
ATOM      4  C   UNL     1       4.906   5.292  19.340  0.00  0.00    +0.000 C 
ATOM      5  C   UNL     1       5.073   4.241  18.244  0.00  0.00    +0.000 C 
ATOM      6  C   UNL     1       3.514   3.744  18.297  0.00  0.00    +0.000 C 
ATOM      7  C   UNL     1       3.129   2.866  19.514  0.00  0.00    +0.000 C 
ATOM      8  C   UNL     1       2.248   3.661  20.485  0.00  0.00    +0.000 C 
ATOM      9  C   UNL     1       1.978   5.022  19.877  0.00  0.00    +0.000 C 
ATOM     10  C   UNL     1       2.688   5.045  18.535  0.00  0.00    +0.000 C 
ENDROOT
BRANCH   1  14
ATOM     11  C   UNL     1       8.404   8.197  18.680  0.00  0.00    +0.000 A 
ATOM     12  C   UNL     1       7.606   8.555  17.614  0.00  0.00    +0.000 A 
ATOM     13  C   UNL     1       6.807   7.583  17.001  0.00  0.00    +0.000 A 
ATOM     14  C   UNL     1       6.726   6.255  17.486  0.00  0.00    +0.000 A 
ATOM     15  C   UNL     1       7.617   5.908  18.521  0.00  0.00    +0.000 A 
ATOM     16  C   UNL     1       8.439   6.877  19.118  0.00  0.00    +0.000 A 
BRANCH  11  17
ATOM     17  O   UNL     1       9.158   9.126  19.337  0.00  0.00    +0.000 OA
ATOM     18  H   UNL     1       8.789  10.007  19.145  0.00  0.00    +0.000 HD
ENDBRANCH  11  17
ENDBRANCH   1  14
BRANCH   1  19
ATOM     19  C   UNL     1       5.950   4.686  15.668  0.00  0.00    +0.000 A 
ATOM     20  C   UNL     1       7.202   4.944  15.082  0.00  0.00    +0.000 A 
ATOM     21  C   UNL     1       7.480   4.582  13.749  0.00  0.00    +0.000 A 
ATOM     22  C   UNL     1       6.515   3.944  12.987  0.00  0.00    +0.000 A 
ATOM     23  C   UNL     1       5.265   3.675  13.532  0.00  0.00    +0.000 A 
ATOM     24  C   UNL     1       4.980   4.057  14.863  0.00  0.00    +0.000 A 
BRANCH  22  25
ATOM     25  O   UNL     1       6.730   3.586  11.690  0.00  0.00    +0.000 OA
ATOM     26  H   UNL     1       5.936   3.795  11.178  0.00  0.00    +0.000 HD
ENDBRANCH  22  25
ENDBRANCH   1  19
TORSDOF 4
ENDMDL
MODEL 9
REMARK VINA RESULT:      -7.7      2.245      5.761
REMARK  Name = 
REMARK  4 active torsions:
REMARK  status: ('A' for Active; 'I' for Inactive)
REMARK    1  A    between atoms: O_1  and  C_2
REMARK    2  A    between atoms: C_5  and  C_6
REMARK    3  A    between atoms: C_6  and  C_7
REMARK    4  A    between atoms: C_10  and  O_11
REMARK                            x       y       z     vdW  Elec       q    Type
REMARK                         _______ _______ _______ _____ _____    ______ ____
ROOT
ATOM      1  C   UNL     1       3.096   5.737  18.474  0.00  0.00    +0.000 C 
ATOM      2  C   UNL     1       1.891   4.895  18.021  0.00  0.00    +0.000 C 
ATOM      3  C   UNL     1       1.168   4.575  19.360  0.00  0.00    +0.000 C 
ATOM      4  C   UNL     1       1.939   5.275  20.512  0.00  0.00    +0.000 C 
ATOM      5  C   UNL     1       3.295   4.928  19.902  0.00  0.00    +0.000 C 
ATOM      6  C   UNL     1       3.052   3.310  19.945  0.00  0.00    +0.000 C 
ATOM      7  C   UNL     1       3.162   2.651  21.344  0.00  0.00    +0.000 C 
ATOM      8  C   UNL     1       1.773   2.237  21.846  0.00  0.00    +0.000 C 
ATOM      9  C   UNL     1       0.764   2.537  20.756  0.00  0.00    +0.000 C 
ATOM     10  C   UNL     1       1.545   3.123  19.593  0.00  0.00    +0.000 C 
ENDROOT
BRANCH   1  14
ATOM     11  C   UNL     1       1.140   9.659  18.903  0.00  0.00    +0.000 A 
ATOM     12  C   UNL     1       1.617   9.274  17.668  0.00  0.00    +0.000 A 
ATOM     13  C   UNL     1       2.367   8.096  17.561  0.00  0.00    +0.000 A 
ATOM     14  C   UNL     1       2.586   7.237  18.665  0.00  0.00    +0.000 A 
ATOM     15  C   UNL     1       2.156   7.705  19.922  0.00  0.00    +0.000 A 
ATOM     16  C   UNL     1       1.428   8.901  20.033  0.00  0.00    +0.000 A 
BRANCH  11  17
ATOM     17  O   UNL     1       0.363  10.772  19.041  0.00  0.00    +0.000 OA
ATOM     18  H   UNL     1      -0.496  10.597  18.617  0.00  0.00    +0.000 HD
ENDBRANCH  11  17
ENDBRANCH   1  14
BRANCH   1  19
ATOM     19  C   UNL     1       4.262   5.782  17.465  0.00  0.00    +0.000 A 
ATOM     20  C   UNL     1       4.339   4.896  16.374  0.00  0.00    +0.000 A 
ATOM     21  C   UNL     1       5.498   4.806  15.579  0.00  0.00    +0.000 A 
ATOM     22  C   UNL     1       6.593   5.609  15.853  0.00  0.00    +0.000 A 
ATOM     23  C   UNL     1       6.554   6.495  16.924  0.00  0.00    +0.000 A 
ATOM     24  C   UNL     1       5.398   6.570  17.733  0.00  0.00    +0.000 A 
BRANCH  22  25
ATOM     25  O   UNL     1       7.742   5.550  15.122  0.00  0.00    +0.000 OA
ATOM     26  H   UNL     1       8.474   5.341  15.719  0.00  0.00    +0.000 HD
ENDBRANCH  22  25
ENDBRANCH   1  19
TORSDOF 4
ENDMDL
