MODEL 1
REMARK VINA RESULT:      -7.3      0.000      0.000
REMARK  Name = 
REMARK  11 active torsions:
REMARK  status: ('A' for Active; 'I' for Inactive)
REMARK    1  A    between atoms: C_1  and  C_2
REMARK    2  A    between atoms: C_3  and  C_4
REMARK    3  A    between atoms: C_4  and  C_5
REMARK    4  A    between atoms: C_5  and  C_6
REMARK    5  A    between atoms: C_6  and  C_7
REMARK    6  A    between atoms: C_8  and  C_9
REMARK    7  A    between atoms: C_9  and  O_11
REMARK    8  A    between atoms: C_12  and  C_13
REMARK    9  A    between atoms: C_17  and  C_18
REMARK   10  A    between atoms: C_17  and  C_19
REMARK   11  A    between atoms: C_19  and  O_20
REMARK                            x       y       z     vdW  Elec       q    Type
REMARK                         _______ _______ _______ _____ _____    ______ ____
ROOT
ATOM      1  C   UNL     1       3.429   7.091  17.527  0.00  0.00    +0.000 C 
ATOM      2  C   UNL     1       4.493   6.089  17.101  0.00  0.00    +0.000 C 
ATOM      3  C   UNL     1       4.436   4.768  16.719  0.00  0.00    +0.000 C 
ATOM      4  C   UNL     1       3.384   3.876  17.478  0.00  0.00    +0.000 C 
ATOM      5  C   UNL     1       1.948   4.293  17.084  0.00  0.00    +0.000 C 
ATOM      6  C   UNL     1       3.464   2.301  17.256  0.00  0.00    +0.000 C 
ATOM      7  C   UNL     1       3.362   1.364  18.509  0.00  0.00    +0.000 C 
ATOM      8  C   UNL     1       3.804   1.936  19.926  0.00  0.00    +0.000 C 
ATOM      9  C   UNL     1       3.030   3.303  20.107  0.00  0.00    +0.000 C 
ATOM     10  C   UNL     1       2.941   4.431  21.174  0.00  0.00    +0.000 C 
ATOM     11  C   UNL     1       3.834   4.090  18.956  0.00  0.00    +0.000 C 
ATOM     12  C   UNL     1       4.900   5.239  19.416  0.00  0.00    +0.000 C 
ATOM     13  C   UNL     1       5.443   6.051  18.255  0.00  0.00    +0.000 C 
ATOM     14  O   UNL     1       6.471   6.726  18.288  0.00  0.00    +0.000 OA
ENDROOT
BRANCH   3  15
ATOM     15  C   UNL     1       5.782   4.075  16.375  0.00  0.00    +0.000 C 
BRANCH  15  16
ATOM     16  C   UNL     1       6.707   4.886  15.471  0.00  0.00    +0.000 C 
BRANCH  16  17
ATOM     17  C   UNL     1       6.588   4.476  14.016  0.00  0.00    +0.000 C 
ATOM     18  C   UNL     1       7.539   5.105  13.037  0.00  0.00    +0.000 C 
ATOM     19  C   UNL     1       5.629   3.587  13.643  0.00  0.00    +0.000 C 
BRANCH  19  20
ATOM     20  C   UNL     1       5.428   3.122  12.244  0.00  0.00    +0.000 C 
ATOM     21  O   UNL     1       4.543   3.538  11.496  0.00  0.00    +0.000 OA
BRANCH  20  22
ATOM     22  O   UNL     1       6.374   2.253  11.907  0.00  0.00    +0.000 OA
ATOM     23  H   UNL     1       6.380   1.403  12.406  0.00  0.00    +0.000 HD
ENDBRANCH  20  22
ENDBRANCH  19  20
ENDBRANCH  16  17
ENDBRANCH  15  16
ENDBRANCH   3  15
BRANCH   9  24
ATOM     24  C   UNL     1       1.560   2.736  20.298  0.00  0.00    +0.000 C 
BRANCH  24  25
ATOM     25  O   UNL     1       0.613   3.846  20.347  0.00  0.00    +0.000 OA
ATOM     26  H   UNL     1      -0.247   3.565  19.976  0.00  0.00    +0.000 HD
ENDBRANCH  24  25
ENDBRANCH   9  24
TORSDOF 7
ENDMDL
MODEL 2
REMARK VINA RESULT:      -6.6      3.339      7.609
REMARK  Name = 
REMARK  11 active torsions:
REMARK  status: ('A' for Active; 'I' for Inactive)
REMARK    1  A    between atoms: C_1  and  C_2
REMARK    2  A    between atoms: C_3  and  C_4
REMARK    3  A    between atoms: C_4  and  C_5
REMARK    4  A    between atoms: C_5  and  C_6
REMARK    5  A    between atoms: C_6  and  C_7
REMARK    6  A    between atoms: C_8  and  C_9
REMARK    7  A    between atoms: C_9  and  O_11
REMARK    8  A    between atoms: C_12  and  C_13
REMARK    9  A    between atoms: C_17  and  C_18
REMARK   10  A    between atoms: C_17  and  C_19
REMARK   11  A    between atoms: C_19  and  O_20
REMARK                            x       y       z     vdW  Elec       q    Type
REMARK                         _______ _______ _______ _____ _____    ______ ____
ROOT
ATOM      1  C   UNL     1       0.809   2.538  19.715  0.00  0.00    +0.000 C 
ATOM      2  C   UNL     1       1.091   3.886  20.362  0.00  0.00    +0.000 C 
ATOM      3  C   UNL     1       1.335   5.140  19.848  0.00  0.00    +0.000 C 
ATOM      4  C   UNL     1       2.190   5.188  18.527  0.00  0.00    +0.000 C 
ATOM      5  C   UNL     1       1.379   4.607  17.345  0.00  0.00    +0.000 C 
ATOM      6  C   UNL     1       2.714   6.613  18.046  0.00  0.00    +0.000 C 
ATOM      7  C   UNL     1       4.206   6.743  17.582  0.00  0.00    +0.000 C 
ATOM      8  C   UNL     1       5.275   5.717  18.161  0.00  0.00    +0.000 C 
ATOM      9  C   UNL     1       4.673   4.274  17.920  0.00  0.00    +0.000 C 
ATOM     10  C   UNL     1       5.085   2.804  18.210  0.00  0.00    +0.000 C 
ATOM     11  C   UNL     1       3.474   4.430  18.983  0.00  0.00    +0.000 C 
ATOM     12  C   UNL     1       3.572   3.582  20.376  0.00  0.00    +0.000 C 
ATOM     13  C   UNL     1       2.303   3.643  21.205  0.00  0.00    +0.000 C 
ATOM     14  O   UNL     1       2.232   3.379  22.404  0.00  0.00    +0.000 OA
ENDROOT
BRANCH   3  15
ATOM     15  C   UNL     1       1.607   6.280  20.867  0.00  0.00    +0.000 C 
BRANCH  15  16
ATOM     16  C   UNL     1       1.881   7.645  20.241  0.00  0.00    +0.000 C 
BRANCH  16  17
ATOM     17  C   UNL     1       0.977   8.725  20.806  0.00  0.00    +0.000 C 
ATOM     18  C   UNL     1       0.304   9.648  19.831  0.00  0.00    +0.000 C 
ATOM     19  C   UNL     1       0.826   8.838  22.153  0.00  0.00    +0.000 C 
BRANCH  19  20
ATOM     20  C   UNL     1      -0.034   9.862  22.807  0.00  0.00    +0.000 C 
ATOM     21  O   UNL     1       0.191  11.071  22.784  0.00  0.00    +0.000 OA
BRANCH  20  22
ATOM     22  O   UNL     1      -1.100   9.287  23.353  0.00  0.00    +0.000 OA
ATOM     23  H   UNL     1      -0.977   8.915  24.257  0.00  0.00    +0.000 HD
ENDBRANCH  20  22
ENDBRANCH  19  20
ENDBRANCH  16  17
ENDBRANCH  15  16
ENDBRANCH   3  15
BRANCH   9  24
ATOM     24  C   UNL     1       4.804   4.208  16.340  0.00  0.00    +0.000 C 
BRANCH  24  25
ATOM     25  O   UNL     1       5.824   3.228  15.978  0.00  0.00    +0.000 OA
ATOM     26  H   UNL     1       6.388   3.584  15.263  0.00  0.00    +0.000 HD
ENDBRANCH  24  25
ENDBRANCH   9  24
TORSDOF 7
ENDMDL
MODEL 3
REMARK VINA RESULT:      -6.5      3.043      6.756
REMARK  Name = 
REMARK  11 active torsions:
REMARK  status: ('A' for Active; 'I' for Inactive)
REMARK    1  A    between atoms: C_1  and  C_2
REMARK    2  A    between atoms: C_3  and  C_4
REMARK    3  A    between atoms: C_4  and  C_5
REMARK    4  A    between atoms: C_5  and  C_6
REMARK    5  A    between atoms: C_6  and  C_7
REMARK    6  A    between atoms: C_8  and  C_9
REMARK    7  A    between atoms: C_9  and  O_11
REMARK    8  A    between atoms: C_12  and  C_13
REMARK    9  A    between atoms: C_17  and  C_18
REMARK   10  A    between atoms: C_17  and  C_19
REMARK   11  A    between atoms: C_19  and  O_20
REMARK                            x       y       z     vdW  Elec       q    Type
REMARK                         _______ _______ _______ _____ _____    ______ ____
ROOT
ATOM      1  C   UNL     1       0.578   2.995  19.769  0.00  0.00    +0.000 C 
ATOM      2  C   UNL     1       1.109   4.290  20.367  0.00  0.00    +0.000 C 
ATOM      3  C   UNL     1       1.549   5.469  19.809  0.00  0.00    +0.000 C 
ATOM      4  C   UNL     1       2.357   5.336  18.465  0.00  0.00    +0.000 C 
ATOM      5  C   UNL     1       1.421   4.874  17.323  0.00  0.00    +0.000 C 
ATOM      6  C   UNL     1       3.103   6.636  17.927  0.00  0.00    +0.000 C 
ATOM      7  C   UNL     1       4.580   6.494  17.420  0.00  0.00    +0.000 C 
ATOM      8  C   UNL     1       5.474   5.313  18.001  0.00  0.00    +0.000 C 
ATOM      9  C   UNL     1       4.625   3.991  17.820  0.00  0.00    +0.000 C 
ATOM     10  C   UNL     1       4.786   2.479  18.143  0.00  0.00    +0.000 C 
ATOM     11  C   UNL     1       3.505   4.378  18.910  0.00  0.00    +0.000 C 
ATOM     12  C   UNL     1       3.499   3.561  20.325  0.00  0.00    +0.000 C 
ATOM     13  C   UNL     1       2.286   3.861  21.184  0.00  0.00    +0.000 C 
ATOM     14  O   UNL     1       2.209   3.644  22.393  0.00  0.00    +0.000 OA
ENDROOT
BRANCH   3  15
ATOM     15  C   UNL     1       2.045   6.570  20.786  0.00  0.00    +0.000 C 
BRANCH  15  16
ATOM     16  C   UNL     1       0.961   7.526  21.275  0.00  0.00    +0.000 C 
BRANCH  16  17
ATOM     17  C   UNL     1       1.005   8.859  20.552  0.00  0.00    +0.000 C 
ATOM     18  C   UNL     1       0.858  10.104  21.380  0.00  0.00    +0.000 C 
ATOM     19  C   UNL     1       1.150   8.887  19.200  0.00  0.00    +0.000 C 
BRANCH  19  20
ATOM     20  C   UNL     1       1.203  10.139  18.397  0.00  0.00    +0.000 C 
ATOM     21  O   UNL     1       2.232  10.778  18.181  0.00  0.00    +0.000 OA
BRANCH  20  22
ATOM     22  O   UNL     1       0.003  10.420  17.902  0.00  0.00    +0.000 OA
ATOM     23  H   UNL     1      -0.216  10.007  17.034  0.00  0.00    +0.000 HD
ENDBRANCH  20  22
ENDBRANCH  19  20
ENDBRANCH  16  17
ENDBRANCH  15  16
ENDBRANCH   3  15
BRANCH   9  24
ATOM     24  C   UNL     1       4.693   3.863  16.240  0.00  0.00    +0.000 C 
BRANCH  24  25
ATOM     25  O   UNL     1       6.004   3.353  15.850  0.00  0.00    +0.000 OA
ATOM     26  H   UNL     1       6.693   4.015  16.056  0.00  0.00    +0.000 HD
ENDBRANCH  24  25
ENDBRANCH   9  24
TORSDOF 7
ENDMDL
MODEL 4
REMARK VINA RESULT:      -6.4      3.486      7.449
REMARK  Name = 
REMARK  11 active torsions:
REMARK  status: ('A' for Active; 'I' for Inactive)
REMARK    1  A    between atoms: C_1  and  C_2
REMARK    2  A    between atoms: C_3  and  C_4
REMARK    3  A    between atoms: C_4  and  C_5
REMARK    4  A    between atoms: C_5  and  C_6
REMARK    5  A    between atoms: C_6  and  C_7
REMARK    6  A    between atoms: C_8  and  C_9
REMARK    7  A    between atoms: C_9  and  O_11
REMARK    8  A    between atoms: C_12  and  C_13
REMARK    9  A    between atoms: C_17  and  C_18
REMARK   10  A    between atoms: C_17  and  C_19
REMARK   11  A    between atoms: C_19  and  O_20
REMARK                            x       y       z     vdW  Elec       q    Type
REMARK                         _______ _______ _______ _____ _____    ______ ____
ROOT
ATOM      1  C   UNL     1       0.578   2.814  19.710  0.00  0.00    +0.000 C 
ATOM      2  C   UNL     1       1.070   4.117  20.325  0.00  0.00    +0.000 C 
ATOM      3  C   UNL     1       1.486   5.311  19.782  0.00  0.00    +0.000 C 
ATOM      4  C   UNL     1       2.312   5.210  18.446  0.00  0.00    +0.000 C 
ATOM      5  C   UNL     1       1.400   4.735  17.290  0.00  0.00    +0.000 C 
ATOM      6  C   UNL     1       3.031   6.533  17.927  0.00  0.00    +0.000 C 
ATOM      7  C   UNL     1       4.517   6.432  17.435  0.00  0.00    +0.000 C 
ATOM      8  C   UNL     1       5.433   5.269  18.016  0.00  0.00    +0.000 C 
ATOM      9  C   UNL     1       4.620   3.928  17.814  0.00  0.00    +0.000 C 
ATOM     10  C   UNL     1       4.815   2.418  18.127  0.00  0.00    +0.000 C 
ATOM     11  C   UNL     1       3.479   4.277  18.895  0.00  0.00    +0.000 C 
ATOM     12  C   UNL     1       3.479   3.448  20.302  0.00  0.00    +0.000 C 
ATOM     13  C   UNL     1       2.248   3.710  21.151  0.00  0.00    +0.000 C 
ATOM     14  O   UNL     1       2.163   3.481  22.357  0.00  0.00    +0.000 OA
ENDROOT
BRANCH   3  15
ATOM     15  C   UNL     1       1.944   6.415  20.773  0.00  0.00    +0.000 C 
BRANCH  15  16
ATOM     16  C   UNL     1       0.810   7.222  21.400  0.00  0.00    +0.000 C 
BRANCH  16  17
ATOM     17  C   UNL     1       0.802   8.662  20.923  0.00  0.00    +0.000 C 
ATOM     18  C   UNL     1       1.358   8.946  19.558  0.00  0.00    +0.000 C 
ATOM     19  C   UNL     1       0.322   9.638  21.741  0.00  0.00    +0.000 C 
BRANCH  19  20
ATOM     20  C   UNL     1       0.272  11.079  21.371  0.00  0.00    +0.000 C 
ATOM     21  O   UNL     1       1.225  11.851  21.464  0.00  0.00    +0.000 OA
BRANCH  20  22
ATOM     22  O   UNL     1      -0.920  11.384  20.869  0.00  0.00    +0.000 OA
ATOM     23  H   UNL     1      -1.022  12.300  20.520  0.00  0.00    +0.000 HD
ENDBRANCH  20  22
ENDBRANCH  19  20
ENDBRANCH  16  17
ENDBRANCH  15  16
ENDBRANCH   3  15
BRANCH   9  24
ATOM     24  C   UNL     1       4.708   3.815  16.234  0.00  0.00    +0.000 C 
BRANCH  24  25
ATOM     25  O   UNL     1       6.069   3.452  15.848  0.00  0.00    +0.000 OA
ATOM     26  H   UNL     1       6.683   3.632  16.588  0.00  0.00    +0.000 HD
ENDBRANCH  24  25
ENDBRANCH   9  24
TORSDOF 7
ENDMDL
MODEL 5
REMARK VINA RESULT:      -6.4      2.766      6.274
REMARK  Name = 
REMARK  11 active torsions:
REMARK  status: ('A' for Active; 'I' for Inactive)
REMARK    1  A    between atoms: C_1  and  C_2
REMARK    2  A    between atoms: C_3  and  C_4
REMARK    3  A    between atoms: C_4  and  C_5
REMARK    4  A    between atoms: C_5  and  C_6
REMARK    5  A    between atoms: C_6  and  C_7
REMARK    6  A    between atoms: C_8  and  C_9
REMARK    7  A    between atoms: C_9  and  O_11
REMARK    8  A    between atoms: C_12  and  C_13
REMARK    9  A    between atoms: C_17  and  C_18
REMARK   10  A    between atoms: C_17  and  C_19
REMARK   11  A    between atoms: C_19  and  O_20
REMARK                            x       y       z     vdW  Elec       q    Type
REMARK                         _______ _______ _______ _____ _____    ______ ____
ROOT
ATOM      1  C   UNL     1       6.445   6.270  17.931  0.00  0.00    +0.000 C 
ATOM      2  C   UNL     1       5.064   6.798  17.573  0.00  0.00    +0.000 C 
ATOM      3  C   UNL     1       3.827   6.663  18.163  0.00  0.00    +0.000 C 
ATOM      4  C   UNL     1       3.520   5.261  18.807  0.00  0.00    +0.000 C 
ATOM      5  C   UNL     1       4.399   5.046  20.061  0.00  0.00    +0.000 C 
ATOM      6  C   UNL     1       2.021   4.977  19.264  0.00  0.00    +0.000 C 
ATOM      7  C   UNL     1       1.375   3.597  18.892  0.00  0.00    +0.000 C 
ATOM      8  C   UNL     1       1.920   2.821  17.616  0.00  0.00    +0.000 C 
ATOM      9  C   UNL     1       3.491   2.746  17.786  0.00  0.00    +0.000 C 
ATOM     10  C   UNL     1       4.699   2.186  16.985  0.00  0.00    +0.000 C 
ATOM     11  C   UNL     1       3.743   4.322  17.581  0.00  0.00    +0.000 C 
ATOM     12  C   UNL     1       4.445   4.810  16.189  0.00  0.00    +0.000 C 
ATOM     13  C   UNL     1       4.820   6.281  16.191  0.00  0.00    +0.000 C 
ATOM     14  O   UNL     1       5.046   6.950  15.184  0.00  0.00    +0.000 OA
ENDROOT
BRANCH   3  15
ATOM     15  C   UNL     1       2.630   7.356  17.457  0.00  0.00    +0.000 C 
BRANCH  15  16
ATOM     16  C   UNL     1       2.499   8.850  17.738  0.00  0.00    +0.000 C 
BRANCH  16  17
ATOM     17  C   UNL     1       1.474   9.142  18.818  0.00  0.00    +0.000 C 
ATOM     18  C   UNL     1       0.294   9.993  18.445  0.00  0.00    +0.000 C 
ATOM     19  C   UNL     1       1.662   8.654  20.073  0.00  0.00    +0.000 C 
BRANCH  19  20
ATOM     20  C   UNL     1       0.720   8.883  21.202  0.00  0.00    +0.000 C 
ATOM     21  O   UNL     1      -0.288   8.209  21.410  0.00  0.00    +0.000 OA
BRANCH  20  22
ATOM     22  O   UNL     1       1.161   9.867  21.978  0.00  0.00    +0.000 OA
ATOM     23  H   UNL     1       0.864  10.775  21.736  0.00  0.00    +0.000 HD
ENDBRANCH  20  22
ENDBRANCH  19  20
ENDBRANCH  16  17
ENDBRANCH  15  16
ENDBRANCH   3  15
BRANCH   9  24
ATOM     24  C   UNL     1       3.563   1.719  18.994  0.00  0.00    +0.000 C 
BRANCH  24  25
ATOM     25  O   UNL     1       4.908   1.733  19.563  0.00  0.00    +0.000 OA
ATOM     26  H   UNL     1       5.546   2.059  18.899  0.00  0.00    +0.000 HD
ENDBRANCH  24  25
ENDBRANCH   9  24
TORSDOF 7
ENDMDL
MODEL 6
REMARK VINA RESULT:      -6.3      1.343      1.757
REMARK  Name = 
REMARK  11 active torsions:
REMARK  status: ('A' for Active; 'I' for Inactive)
REMARK    1  A    between atoms: C_1  and  C_2
REMARK    2  A    between atoms: C_3  and  C_4
REMARK    3  A    between atoms: C_4  and  C_5
REMARK    4  A    between atoms: C_5  and  C_6
REMARK    5  A    between atoms: C_6  and  C_7
REMARK    6  A    between atoms: C_8  and  C_9
REMARK    7  A    between atoms: C_9  and  O_11
REMARK    8  A    between atoms: C_12  and  C_13
REMARK    9  A    between atoms: C_17  and  C_18
REMARK   10  A    between atoms: C_17  and  C_19
REMARK   11  A    between atoms: C_19  and  O_20
REMARK                            x       y       z     vdW  Elec       q    Type
REMARK                         _______ _______ _______ _____ _____    ______ ____
ROOT
ATOM      1  C   UNL     1       3.379   7.282  17.598  0.00  0.00    +0.000 C 
ATOM      2  C   UNL     1       4.331   6.202  17.105  0.00  0.00    +0.000 C 
ATOM      3  C   UNL     1       4.149   4.886  16.742  0.00  0.00    +0.000 C 
ATOM      4  C   UNL     1       3.094   4.078  17.584  0.00  0.00    +0.000 C 
ATOM      5  C   UNL     1       1.667   4.599  17.293  0.00  0.00    +0.000 C 
ATOM      6  C   UNL     1       3.042   2.501  17.374  0.00  0.00    +0.000 C 
ATOM      7  C   UNL     1       2.964   1.579  18.640  0.00  0.00    +0.000 C 
ATOM      8  C   UNL     1       3.551   2.124  20.015  0.00  0.00    +0.000 C 
ATOM      9  C   UNL     1       2.894   3.546  20.239  0.00  0.00    +0.000 C 
ATOM     10  C   UNL     1       2.968   4.682  21.297  0.00  0.00    +0.000 C 
ATOM     11  C   UNL     1       3.667   4.265  19.024  0.00  0.00    +0.000 C 
ATOM     12  C   UNL     1       4.846   5.334  19.392  0.00  0.00    +0.000 C 
ATOM     13  C   UNL     1       5.359   6.098  18.186  0.00  0.00    +0.000 C 
ATOM     14  O   UNL     1       6.433   6.696  18.137  0.00  0.00    +0.000 OA
ENDROOT
BRANCH   3  15
ATOM     15  C   UNL     1       5.412   4.094  16.306  0.00  0.00    +0.000 C 
BRANCH  15  16
ATOM     16  C   UNL     1       5.260   3.315  15.002  0.00  0.00    +0.000 C 
BRANCH  16  17
ATOM     17  C   UNL     1       6.131   3.878  13.895  0.00  0.00    +0.000 C 
ATOM     18  C   UNL     1       5.927   3.339  12.508  0.00  0.00    +0.000 C 
ATOM     19  C   UNL     1       7.069   4.817  14.189  0.00  0.00    +0.000 C 
BRANCH  19  20
ATOM     20  C   UNL     1       7.974   5.431  13.179  0.00  0.00    +0.000 C 
ATOM     21  O   UNL     1       9.009   6.035  13.454  0.00  0.00    +0.000 OA
BRANCH  20  22
ATOM     22  O   UNL     1       7.536   5.173  11.952  0.00  0.00    +0.000 OA
ATOM     23  H   UNL     1       7.162   4.273  11.805  0.00  0.00    +0.000 HD
ENDBRANCH  20  22
ENDBRANCH  19  20
ENDBRANCH  16  17
ENDBRANCH  15  16
ENDBRANCH   3  15
BRANCH   9  24
ATOM     24  C   UNL     1       1.405   3.089  20.542  0.00  0.00    +0.000 C 
BRANCH  24  25
ATOM     25  O   UNL     1       1.322   2.576  21.907  0.00  0.00    +0.000 OA
ATOM     26  H   UNL     1       1.849   3.141  22.506  0.00  0.00    +0.000 HD
ENDBRANCH  24  25
ENDBRANCH   9  24
TORSDOF 7
ENDMDL
MODEL 7
REMARK VINA RESULT:      -6.3      3.102      6.245
REMARK  Name = 
REMARK  11 active torsions:
REMARK  status: ('A' for Active; 'I' for Inactive)
REMARK    1  A    between atoms: C_1  and  C_2
REMARK    2  A    between atoms: C_3  and  C_4
REMARK    3  A    between atoms: C_4  and  C_5
REMARK    4  A    between atoms: C_5  and  C_6
REMARK    5  A    between atoms: C_6  and  C_7
REMARK    6  A    between atoms: C_8  and  C_9
REMARK    7  A    between atoms: C_9  and  O_11
REMARK    8  A    between atoms: C_12  and  C_13
REMARK    9  A    between atoms: C_17  and  C_18
REMARK   10  A    between atoms: C_17  and  C_19
REMARK   11  A    between atoms: C_19  and  O_20
REMARK                            x       y       z     vdW  Elec       q    Type
REMARK                         _______ _______ _______ _____ _____    ______ ____
ROOT
ATOM      1  C   UNL     1       6.572   6.228  17.820  0.00  0.00    +0.000 C 
ATOM      2  C   UNL     1       5.201   6.801  17.493  0.00  0.00    +0.000 C 
ATOM      3  C   UNL     1       3.973   6.703  18.109  0.00  0.00    +0.000 C 
ATOM      4  C   UNL     1       3.636   5.309  18.756  0.00  0.00    +0.000 C 
ATOM      5  C   UNL     1       4.534   5.062  19.991  0.00  0.00    +0.000 C 
ATOM      6  C   UNL     1       2.138   5.072  19.244  0.00  0.00    +0.000 C 
ATOM      7  C   UNL     1       1.441   3.714  18.883  0.00  0.00    +0.000 C 
ATOM      8  C   UNL     1       1.935   2.925  17.593  0.00  0.00    +0.000 C 
ATOM      9  C   UNL     1       3.506   2.799  17.730  0.00  0.00    +0.000 C 
ATOM     10  C   UNL     1       4.678   2.205  16.901  0.00  0.00    +0.000 C 
ATOM     11  C   UNL     1       3.803   4.368  17.523  0.00  0.00    +0.000 C 
ATOM     12  C   UNL     1       4.490   4.838  16.118  0.00  0.00    +0.000 C 
ATOM     13  C   UNL     1       4.911   6.296  16.116  0.00  0.00    +0.000 C 
ATOM     14  O   UNL     1       5.138   6.961  15.106  0.00  0.00    +0.000 OA
ENDROOT
BRANCH   3  15
ATOM     15  C   UNL     1       2.784   7.435  17.430  0.00  0.00    +0.000 C 
BRANCH  15  16
ATOM     16  C   UNL     1       2.673   8.921  17.764  0.00  0.00    +0.000 C 
BRANCH  16  17
ATOM     17  C   UNL     1       1.455   9.226  18.616  0.00  0.00    +0.000 C 
ATOM     18  C   UNL     1       1.374   8.581  19.970  0.00  0.00    +0.000 C 
ATOM     19  C   UNL     1       0.480  10.040  18.128  0.00  0.00    +0.000 C 
BRANCH  19  20
ATOM     20  C   UNL     1      -0.752  10.400  18.881  0.00  0.00    +0.000 C 
ATOM     21  O   UNL     1      -0.767  11.115  19.882  0.00  0.00    +0.000 OA
BRANCH  20  22
ATOM     22  O   UNL     1      -1.824   9.897  18.279  0.00  0.00    +0.000 OA
ATOM     23  H   UNL     1      -2.194  10.428  17.536  0.00  0.00    +0.000 HD
ENDBRANCH  20  22
ENDBRANCH  19  20
ENDBRANCH  16  17
ENDBRANCH  15  16
ENDBRANCH   3  15
BRANCH   9  24
ATOM     24  C   UNL     1       3.571   1.767  18.933  0.00  0.00    +0.000 C 
BRANCH  24  25
ATOM     25  O   UNL     1       4.921   1.753  19.488  0.00  0.00    +0.000 OA
ATOM     26  H   UNL     1       5.408   0.972  19.157  0.00  0.00    +0.000 HD
ENDBRANCH  24  25
ENDBRANCH   9  24
TORSDOF 7
ENDMDL
MODEL 8
REMARK VINA RESULT:      -6.2      8.770     12.570
REMARK  Name = 
REMARK  11 active torsions:
REMARK  status: ('A' for Active; 'I' for Inactive)
REMARK    1  A    between atoms: C_1  and  C_2
REMARK    2  A    between atoms: C_3  and  C_4
REMARK    3  A    between atoms: C_4  and  C_5
REMARK    4  A    between atoms: C_5  and  C_6
REMARK    5  A    between atoms: C_6  and  C_7
REMARK    6  A    between atoms: C_8  and  C_9
REMARK    7  A    between atoms: C_9  and  O_11
REMARK    8  A    between atoms: C_12  and  C_13
REMARK    9  A    between atoms: C_17  and  C_18
REMARK   10  A    between atoms: C_17  and  C_19
REMARK   11  A    between atoms: C_19  and  O_20
REMARK                            x       y       z     vdW  Elec       q    Type
REMARK                         _______ _______ _______ _____ _____    ______ ____
ROOT
ATOM      1  C   UNL     1      -0.385  13.288  18.411  0.00  0.00    +0.000 C 
ATOM      2  C   UNL     1      -1.622  13.016  19.253  0.00  0.00    +0.000 C 
ATOM      3  C   UNL     1      -1.807  12.770  20.595  0.00  0.00    +0.000 C 
ATOM      4  C   UNL     1      -0.697  11.904  21.297  0.00  0.00    +0.000 C 
ATOM      5  C   UNL     1       0.625  12.702  21.387  0.00  0.00    +0.000 C 
ATOM      6  C   UNL     1      -0.999  11.379  22.770  0.00  0.00    +0.000 C 
ATOM      7  C   UNL     1      -0.677   9.883  23.111  0.00  0.00    +0.000 C 
ATOM      8  C   UNL     1      -0.674   8.817  21.931  0.00  0.00    +0.000 C 
ATOM      9  C   UNL     1       0.263   9.413  20.804  0.00  0.00    +0.000 C 
ATOM     10  C   UNL     1       0.744   8.999  19.385  0.00  0.00    +0.000 C 
ATOM     11  C   UNL     1      -0.724  10.622  20.408  0.00  0.00    +0.000 C 
ATOM     12  C   UNL     1      -1.506  10.534  18.977  0.00  0.00    +0.000 C 
ATOM     13  C   UNL     1      -2.241  11.812  18.617  0.00  0.00    +0.000 C 
ATOM     14  O   UNL     1      -3.146  11.893  17.789  0.00  0.00    +0.000 OA
ENDROOT
BRANCH   3  15
ATOM     15  C   UNL     1      -3.263  12.511  21.071  0.00  0.00    +0.000 C 
BRANCH  15  16
ATOM     16  C   UNL     1      -3.865  13.626  21.921  0.00  0.00    +0.000 C 
BRANCH  16  17
ATOM     17  C   UNL     1      -4.760  13.087  23.021  0.00  0.00    +0.000 C 
ATOM     18  C   UNL     1      -4.095  12.509  24.238  0.00  0.00    +0.000 C 
ATOM     19  C   UNL     1      -6.111  13.120  22.866  0.00  0.00    +0.000 C 
BRANCH  19  20
ATOM     20  C   UNL     1      -7.075  12.616  23.882  0.00  0.00    +0.000 C 
ATOM     21  O   UNL     1      -7.462  11.450  23.950  0.00  0.00    +0.000 OA
BRANCH  20  22
ATOM     22  O   UNL     1      -7.396  13.584  24.732  0.00  0.00    +0.000 OA
ATOM     23  H   UNL     1      -8.193  14.116  24.502  0.00  0.00    +0.000 HD
ENDBRANCH  20  22
ENDBRANCH  19  20
ENDBRANCH  16  17
ENDBRANCH  15  16
ENDBRANCH   3  15
BRANCH   9  24
ATOM     24  C   UNL     1       1.662   9.266  21.537  0.00  0.00    +0.000 C 
BRANCH  24  25
ATOM     25  O   UNL     1       2.157   7.903  21.372  0.00  0.00    +0.000 OA
ATOM     26  H   UNL     1       2.870   7.728  22.018  0.00  0.00    +0.000 HD
ENDBRANCH  24  25
ENDBRANCH   9  24
TORSDOF 7
ENDMDL
MODEL 9
REMARK VINA RESULT:      -6.2      2.024      2.856
REMARK  Name = 
REMARK  11 active torsions:
REMARK  status: ('A' for Active; 'I' for Inactive)
REMARK    1  A    between atoms: C_1  and  C_2
REMARK    2  A    between atoms: C_3  and  C_4
REMARK    3  A    between atoms: C_4  and  C_5
REMARK    4  A    between atoms: C_5  and  C_6
REMARK    5  A    between atoms: C_6  and  C_7
REMARK    6  A    between atoms: C_8  and  C_9
REMARK    7  A    between atoms: C_9  and  O_11
REMARK    8  A    between atoms: C_12  and  C_13
REMARK    9  A    between atoms: C_17  and  C_18
REMARK   10  A    between atoms: C_17  and  C_19
REMARK   11  A    between atoms: C_19  and  O_20
REMARK                            x       y       z     vdW  Elec       q    Type
REMARK                         _______ _______ _______ _____ _____    ______ ____
ROOT
ATOM      1  C   UNL     1       1.406   6.592  17.434  0.00  0.00    +0.000 C 
ATOM      2  C   UNL     1       2.768   6.647  18.111  0.00  0.00    +0.000 C 
ATOM      3  C   UNL     1       3.824   5.766  18.164  0.00  0.00    +0.000 C 
ATOM      4  C   UNL     1       3.446   4.240  18.241  0.00  0.00    +0.000 C 
ATOM      5  C   UNL     1       2.825   3.777  16.902  0.00  0.00    +0.000 C 
ATOM      6  C   UNL     1       4.617   3.211  18.565  0.00  0.00    +0.000 C 
ATOM      7  C   UNL     1       4.353   2.089  19.628  0.00  0.00    +0.000 C 
ATOM      8  C   UNL     1       3.263   2.351  20.756  0.00  0.00    +0.000 C 
ATOM      9  C   UNL     1       1.952   2.813  20.001  0.00  0.00    +0.000 C 
ATOM     10  C   UNL     1       0.512   3.256  20.382  0.00  0.00    +0.000 C 
ATOM     11  C   UNL     1       2.546   4.228  19.515  0.00  0.00    +0.000 C 
ATOM     12  C   UNL     1       1.978   5.582  20.230  0.00  0.00    +0.000 C 
ATOM     13  C   UNL     1       2.451   6.858  19.557  0.00  0.00    +0.000 C 
ATOM     14  O   UNL     1       2.441   7.972  20.077  0.00  0.00    +0.000 OA
ENDROOT
BRANCH   3  15
ATOM     15  C   UNL     1       5.059   6.196  19.001  0.00  0.00    +0.000 C 
BRANCH  15  16
ATOM     16  C   UNL     1       6.227   6.742  18.184  0.00  0.00    +0.000 C 
BRANCH  16  17
ATOM     17  C   UNL     1       6.762   5.722  17.197  0.00  0.00    +0.000 C 
ATOM     18  C   UNL     1       7.664   4.646  17.730  0.00  0.00    +0.000 C 
ATOM     19  C   UNL     1       6.434   5.823  15.881  0.00  0.00    +0.000 C 
BRANCH  19  20
ATOM     20  C   UNL     1       6.906   4.877  14.834  0.00  0.00    +0.000 C 
ATOM     21  O   UNL     1       6.374   3.795  14.589  0.00  0.00    +0.000 OA
BRANCH  20  22
ATOM     22  O   UNL     1       7.931   5.399  14.169  0.00  0.00    +0.000 OA
ATOM     23  H   UNL     1       7.724   6.164  13.584  0.00  0.00    +0.000 HD
ENDBRANCH  20  22
ENDBRANCH  19  20
ENDBRANCH  16  17
ENDBRANCH  15  16
ENDBRANCH   3  15
BRANCH   9  24
ATOM     24  C   UNL     1       1.559   1.436  19.316  0.00  0.00    +0.000 C 
BRANCH  24  25
ATOM     25  O   UNL     1       0.415   1.642  18.433  0.00  0.00    +0.000 OA
ATOM     26  H   UNL     1       0.619   1.301  17.539  0.00  0.00    +0.000 HD
ENDBRANCH  24  25
ENDBRANCH   9  24
TORSDOF 7
ENDMDL
