MODEL 1
REMARK VINA RESULT:      -8.0      0.000      0.000
REMARK  Name = 
REMARK  14 active torsions:
REMARK  status: ('A' for Active; 'I' for Inactive)
REMARK    1  A    between atoms: C_1  and  C_2
REMARK    2  A    between atoms: C_2  and  C_3
REMARK    3  A    between atoms: C_2  and  C_4
REMARK    4  A    between atoms: C_9  and  C_10
REMARK    5  A    between atoms: C_10  and  C_11
REMARK    6  A    between atoms: C_11  and  C_12
REMARK    7  A    between atoms: C_11  and  C_13
REMARK    8  A    between atoms: C_11  and  C_14
REMARK    9  A    between atoms: C_14  and  O_16
REMARK   10  A    between atoms: C_17  and  S_18
REMARK   11  A    between atoms: S_18  and  C_19
REMARK   12  A    between atoms: C_19  and  C_20
REMARK   13  A    between atoms: C_19  and  C_21
REMARK   14  A    between atoms: C_19  and  C_22
REMARK                            x       y       z     vdW  Elec       q    Type
REMARK                         _______ _______ _______ _____ _____    ______ ____
ROOT
ATOM      1  C   UNL     1       1.001   9.169  20.009  0.00  0.00    +0.000 A 
ATOM      2  C   UNL     1       1.324   9.960  18.899  0.00  0.00    +0.000 A 
ATOM      3  C   UNL     1       2.173   9.498  17.887  0.00  0.00    +0.000 A 
ATOM      4  C   UNL     1       2.727   8.222  18.033  0.00  0.00    +0.000 A 
ATOM      5  N   UNL     1       3.597   7.536  17.218  0.00  0.00    +0.000 N 
ATOM      6  C   UNL     1       4.028   6.371  17.818  0.00  0.00    +0.000 A 
ATOM      7  C   UNL     1       3.236   6.214  18.946  0.00  0.00    +0.000 A 
ATOM      8  C   UNL     1       2.454   7.399  19.121  0.00  0.00    +0.000 A 
ATOM      9  C   UNL     1       1.559   7.878  20.106  0.00  0.00    +0.000 A 
ATOM     10  H   UNL     1       3.929   7.889  16.332  0.00  0.00    +0.000 HD
ENDROOT
BRANCH   1  12
ATOM     11  C   UNL     1      -0.815  10.754  20.642  0.00  0.00    +0.000 C 
ATOM     12  C   UNL     1       0.145   9.679  21.160  0.00  0.00    +0.000 C 
ATOM     13  C   UNL     1      -0.632   8.601  21.923  0.00  0.00    +0.000 C 
ENDBRANCH   1  12
BRANCH   6  14
ATOM     14  C   UNL     1       5.081   5.497  17.197  0.00  0.00    +0.000 C 
BRANCH  14  15
ATOM     15  C   UNL     1       6.558   5.728  17.639  0.00  0.00    +0.000 C 
ATOM     16  C   UNL     1       7.050   7.142  17.285  0.00  0.00    +0.000 C 
ATOM     17  C   UNL     1       6.725   5.454  19.143  0.00  0.00    +0.000 C 
BRANCH  15  18
ATOM     18  C   UNL     1       7.416   4.720  16.853  0.00  0.00    +0.000 C 
ATOM     19  O   UNL     1       7.399   4.596  15.637  0.00  0.00    +0.000 OA
BRANCH  18  20
ATOM     20  O   UNL     1       8.245   3.962  17.609  0.00  0.00    +0.000 OA
ATOM     21  H   UNL     1       7.932   3.060  17.803  0.00  0.00    +0.000 HD
ENDBRANCH  18  20
ENDBRANCH  15  18
ENDBRANCH  14  15
ENDBRANCH   6  14
BRANCH   7  22
ATOM     22  S   UNL     1       3.277   4.878  20.076  0.00  0.00    +0.000 S 
BRANCH  22  23
ATOM     23  C   UNL     1       2.139   3.622  19.339  0.00  0.00    +0.000 C 
ATOM     24  C   UNL     1       1.507   4.121  18.034  0.00  0.00    +0.000 C 
ATOM     25  C   UNL     1       3.012   2.391  19.029  0.00  0.00    +0.000 C 
ATOM     26  C   UNL     1       1.043   3.209  20.330  0.00  0.00    +0.000 C 
ENDBRANCH  22  23
ENDBRANCH   7  22
TORSDOF 7
ENDMDL
MODEL 2
REMARK VINA RESULT:      -7.9      0.352      1.018
REMARK  Name = 
REMARK  14 active torsions:
REMARK  status: ('A' for Active; 'I' for Inactive)
REMARK    1  A    between atoms: C_1  and  C_2
REMARK    2  A    between atoms: C_2  and  C_3
REMARK    3  A    between atoms: C_2  and  C_4
REMARK    4  A    between atoms: C_9  and  C_10
REMARK    5  A    between atoms: C_10  and  C_11
REMARK    6  A    between atoms: C_11  and  C_12
REMARK    7  A    between atoms: C_11  and  C_13
REMARK    8  A    between atoms: C_11  and  C_14
REMARK    9  A    between atoms: C_14  and  O_16
REMARK   10  A    between atoms: C_17  and  S_18
REMARK   11  A    between atoms: S_18  and  C_19
REMARK   12  A    between atoms: C_19  and  C_20
REMARK   13  A    between atoms: C_19  and  C_21
REMARK   14  A    between atoms: C_19  and  C_22
REMARK                            x       y       z     vdW  Elec       q    Type
REMARK                         _______ _______ _______ _____ _____    ______ ____
ROOT
ATOM      1  C   UNL     1       0.889   9.116  19.907  0.00  0.00    +0.000 A 
ATOM      2  C   UNL     1       1.274   9.919  18.826  0.00  0.00    +0.000 A 
ATOM      3  C   UNL     1       2.186   9.471  17.864  0.00  0.00    +0.000 A 
ATOM      4  C   UNL     1       2.737   8.196  18.031  0.00  0.00    +0.000 A 
ATOM      5  N   UNL     1       3.659   7.522  17.264  0.00  0.00    +0.000 N 
ATOM      6  C   UNL     1       4.059   6.354  17.879  0.00  0.00    +0.000 A 
ATOM      7  C   UNL     1       3.200   6.182  18.955  0.00  0.00    +0.000 A 
ATOM      8  C   UNL     1       2.403   7.361  19.093  0.00  0.00    +0.000 A 
ATOM      9  C   UNL     1       1.447   7.827  20.025  0.00  0.00    +0.000 A 
ATOM     10  H   UNL     1       4.042   7.886  16.404  0.00  0.00    +0.000 HD
ENDROOT
BRANCH   1  12
ATOM     11  C   UNL     1       0.563   9.265  22.373  0.00  0.00    +0.000 C 
ATOM     12  C   UNL     1      -0.038   9.610  21.008  0.00  0.00    +0.000 C 
ATOM     13  C   UNL     1      -0.386  11.101  20.947  0.00  0.00    +0.000 C 
ENDBRANCH   1  12
BRANCH   6  14
ATOM     14  C   UNL     1       5.153   5.491  17.315  0.00  0.00    +0.000 C 
BRANCH  14  15
ATOM     15  C   UNL     1       6.611   5.784  17.782  0.00  0.00    +0.000 C 
ATOM     16  C   UNL     1       7.068   7.198  17.389  0.00  0.00    +0.000 C 
ATOM     17  C   UNL     1       6.750   5.568  19.299  0.00  0.00    +0.000 C 
BRANCH  15  18
ATOM     18  C   UNL     1       7.518   4.775  17.054  0.00  0.00    +0.000 C 
ATOM     19  O   UNL     1       8.315   4.033  17.611  0.00  0.00    +0.000 OA
BRANCH  18  20
ATOM     20  O   UNL     1       7.364   4.733  15.710  0.00  0.00    +0.000 OA
ATOM     21  H   UNL     1       7.661   3.912  15.277  0.00  0.00    +0.000 HD
ENDBRANCH  18  20
ENDBRANCH  15  18
ENDBRANCH  14  15
ENDBRANCH   6  14
BRANCH   7  22
ATOM     22  S   UNL     1       3.180   4.836  20.073  0.00  0.00    +0.000 S 
BRANCH  22  23
ATOM     23  C   UNL     1       2.154   3.554  19.225  0.00  0.00    +0.000 C 
ATOM     24  C   UNL     1       1.480   4.106  17.963  0.00  0.00    +0.000 C 
ATOM     25  C   UNL     1       3.128   2.432  18.818  0.00  0.00    +0.000 C 
ATOM     26  C   UNL     1       1.097   2.967  20.171  0.00  0.00    +0.000 C 
ENDBRANCH  22  23
ENDBRANCH   7  22
TORSDOF 7
ENDMDL
MODEL 3
REMARK VINA RESULT:      -7.8      0.921      1.530
REMARK  Name = 
REMARK  14 active torsions:
REMARK  status: ('A' for Active; 'I' for Inactive)
REMARK    1  A    between atoms: C_1  and  C_2
REMARK    2  A    between atoms: C_2  and  C_3
REMARK    3  A    between atoms: C_2  and  C_4
REMARK    4  A    between atoms: C_9  and  C_10
REMARK    5  A    between atoms: C_10  and  C_11
REMARK    6  A    between atoms: C_11  and  C_12
REMARK    7  A    between atoms: C_11  and  C_13
REMARK    8  A    between atoms: C_11  and  C_14
REMARK    9  A    between atoms: C_14  and  O_16
REMARK   10  A    between atoms: C_17  and  S_18
REMARK   11  A    between atoms: S_18  and  C_19
REMARK   12  A    between atoms: C_19  and  C_20
REMARK   13  A    between atoms: C_19  and  C_21
REMARK   14  A    between atoms: C_19  and  C_22
REMARK                            x       y       z     vdW  Elec       q    Type
REMARK                         _______ _______ _______ _____ _____    ______ ____
ROOT
ATOM      1  C   UNL     1       1.053   9.273  20.076  0.00  0.00    +0.000 A 
ATOM      2  C   UNL     1       1.318  10.031  18.928  0.00  0.00    +0.000 A 
ATOM      3  C   UNL     1       2.059   9.515  17.859  0.00  0.00    +0.000 A 
ATOM      4  C   UNL     1       2.564   8.217  17.982  0.00  0.00    +0.000 A 
ATOM      5  N   UNL     1       3.331   7.478  17.111  0.00  0.00    +0.000 N 
ATOM      6  C   UNL     1       3.756   6.304  17.695  0.00  0.00    +0.000 A 
ATOM      7  C   UNL     1       3.054   6.201  18.887  0.00  0.00    +0.000 A 
ATOM      8  C   UNL     1       2.345   7.423  19.104  0.00  0.00    +0.000 A 
ATOM      9  C   UNL     1       1.557   7.959  20.150  0.00  0.00    +0.000 A 
ATOM     10  H   UNL     1       3.604   7.802  16.195  0.00  0.00    +0.000 HD
ENDROOT
BRANCH   1  12
ATOM     11  C   UNL     1      -0.690  10.892  20.817  0.00  0.00    +0.000 C 
ATOM     12  C   UNL     1       0.320   9.840  21.283  0.00  0.00    +0.000 C 
ATOM     13  C   UNL     1      -0.372   8.802  22.172  0.00  0.00    +0.000 C 
ENDBRANCH   1  12
BRANCH   6  14
ATOM     14  C   UNL     1       4.713   5.371  17.006  0.00  0.00    +0.000 C 
BRANCH  14  15
ATOM     15  C   UNL     1       6.237   5.624  17.215  0.00  0.00    +0.000 C 
ATOM     16  C   UNL     1       7.084   4.991  16.099  0.00  0.00    +0.000 C 
ATOM     17  C   UNL     1       6.528   7.129  17.332  0.00  0.00    +0.000 C 
BRANCH  15  18
ATOM     18  C   UNL     1       6.620   4.941  18.542  0.00  0.00    +0.000 C 
ATOM     19  O   UNL     1       7.291   5.464  19.420  0.00  0.00    +0.000 OA
BRANCH  18  20
ATOM     20  O   UNL     1       6.134   3.689  18.702  0.00  0.00    +0.000 OA
ATOM     21  H   UNL     1       5.711   3.507  19.560  0.00  0.00    +0.000 HD
ENDBRANCH  18  20
ENDBRANCH  15  18
ENDBRANCH  14  15
ENDBRANCH   6  14
BRANCH   7  22
ATOM     22  S   UNL     1       3.128   4.881  20.035  0.00  0.00    +0.000 S 
BRANCH  22  23
ATOM     23  C   UNL     1       2.089   3.556  19.274  0.00  0.00    +0.000 C 
ATOM     24  C   UNL     1       2.912   2.304  18.944  0.00  0.00    +0.000 C 
ATOM     25  C   UNL     1       1.030   3.189  20.331  0.00  0.00    +0.000 C 
ATOM     26  C   UNL     1       1.372   4.060  18.015  0.00  0.00    +0.000 C 
ENDBRANCH  22  23
ENDBRANCH   7  22
TORSDOF 7
ENDMDL
MODEL 4
REMARK VINA RESULT:      -7.6      0.912      1.413
REMARK  Name = 
REMARK  14 active torsions:
REMARK  status: ('A' for Active; 'I' for Inactive)
REMARK    1  A    between atoms: C_1  and  C_2
REMARK    2  A    between atoms: C_2  and  C_3
REMARK    3  A    between atoms: C_2  and  C_4
REMARK    4  A    between atoms: C_9  and  C_10
REMARK    5  A    between atoms: C_10  and  C_11
REMARK    6  A    between atoms: C_11  and  C_12
REMARK    7  A    between atoms: C_11  and  C_13
REMARK    8  A    between atoms: C_11  and  C_14
REMARK    9  A    between atoms: C_14  and  O_16
REMARK   10  A    between atoms: C_17  and  S_18
REMARK   11  A    between atoms: S_18  and  C_19
REMARK   12  A    between atoms: C_19  and  C_20
REMARK   13  A    between atoms: C_19  and  C_21
REMARK   14  A    between atoms: C_19  and  C_22
REMARK                            x       y       z     vdW  Elec       q    Type
REMARK                         _______ _______ _______ _____ _____    ______ ____
ROOT
ATOM      1  C   UNL     1       1.147   9.049  20.178  0.00  0.00    +0.000 A 
ATOM      2  C   UNL     1       1.311   9.865  19.052  0.00  0.00    +0.000 A 
ATOM      3  C   UNL     1       2.017   9.431  17.924  0.00  0.00    +0.000 A 
ATOM      4  C   UNL     1       2.592   8.157  17.965  0.00  0.00    +0.000 A 
ATOM      5  N   UNL     1       3.345   7.495  17.024  0.00  0.00    +0.000 N 
ATOM      6  C   UNL     1       3.860   6.322  17.534  0.00  0.00    +0.000 A 
ATOM      7  C   UNL     1       3.231   6.135  18.757  0.00  0.00    +0.000 A 
ATOM      8  C   UNL     1       2.474   7.310  19.062  0.00  0.00    +0.000 A 
ATOM      9  C   UNL     1       1.720   7.761  20.170  0.00  0.00    +0.000 A 
ATOM     10  H   UNL     1       3.551   7.869  16.109  0.00  0.00    +0.000 HD
ENDROOT
BRANCH   1  12
ATOM     11  C   UNL     1      -0.171  10.903  21.194  0.00  0.00    +0.000 C 
ATOM     12  C   UNL     1       0.454   9.529  21.446  0.00  0.00    +0.000 C 
ATOM     13  C   UNL     1      -0.593   8.569  22.019  0.00  0.00    +0.000 C 
ENDBRANCH   1  12
BRANCH   6  14
ATOM     14  C   UNL     1       4.824   5.469  16.757  0.00  0.00    +0.000 C 
BRANCH  14  15
ATOM     15  C   UNL     1       6.345   5.739  16.957  0.00  0.00    +0.000 C 
ATOM     16  C   UNL     1       7.169   5.334  15.724  0.00  0.00    +0.000 C 
ATOM     17  C   UNL     1       6.593   7.214  17.317  0.00  0.00    +0.000 C 
BRANCH  15  18
ATOM     18  C   UNL     1       6.798   4.859  18.137  0.00  0.00    +0.000 C 
ATOM     19  O   UNL     1       7.687   5.158  18.922  0.00  0.00    +0.000 OA
BRANCH  18  20
ATOM     20  O   UNL     1       6.116   3.700  18.281  0.00  0.00    +0.000 OA
ATOM     21  H   UNL     1       6.661   2.894  18.338  0.00  0.00    +0.000 HD
ENDBRANCH  18  20
ENDBRANCH  15  18
ENDBRANCH  14  15
ENDBRANCH   6  14
BRANCH   7  22
ATOM     22  S   UNL     1       3.434   4.776  19.842  0.00  0.00    +0.000 S 
BRANCH  22  23
ATOM     23  C   UNL     1       1.986   3.685  19.482  0.00  0.00    +0.000 C 
ATOM     24  C   UNL     1       0.802   3.985  20.409  0.00  0.00    +0.000 C 
ATOM     25  C   UNL     1       1.572   3.997  18.031  0.00  0.00    +0.000 C 
ATOM     26  C   UNL     1       2.366   2.202  19.577  0.00  0.00    +0.000 C 
ENDBRANCH  22  23
ENDBRANCH   7  22
TORSDOF 7
ENDMDL
MODEL 5
REMARK VINA RESULT:      -7.5      0.822      1.252
REMARK  Name = 
REMARK  14 active torsions:
REMARK  status: ('A' for Active; 'I' for Inactive)
REMARK    1  A    between atoms: C_1  and  C_2
REMARK    2  A    between atoms: C_2  and  C_3
REMARK    3  A    between atoms: C_2  and  C_4
REMARK    4  A    between atoms: C_9  and  C_10
REMARK    5  A    between atoms: C_10  and  C_11
REMARK    6  A    between atoms: C_11  and  C_12
REMARK    7  A    between atoms: C_11  and  C_13
REMARK    8  A    between atoms: C_11  and  C_14
REMARK    9  A    between atoms: C_14  and  O_16
REMARK   10  A    between atoms: C_17  and  S_18
REMARK   11  A    between atoms: S_18  and  C_19
REMARK   12  A    between atoms: C_19  and  C_20
REMARK   13  A    between atoms: C_19  and  C_21
REMARK   14  A    between atoms: C_19  and  C_22
REMARK                            x       y       z     vdW  Elec       q    Type
REMARK                         _______ _______ _______ _____ _____    ______ ____
ROOT
ATOM      1  C   UNL     1       1.234   8.813  20.143  0.00  0.00    +0.000 A 
ATOM      2  C   UNL     1       1.437   9.599  19.001  0.00  0.00    +0.000 A 
ATOM      3  C   UNL     1       2.161   9.126  17.900  0.00  0.00    +0.000 A 
ATOM      4  C   UNL     1       2.712   7.844  17.985  0.00  0.00    +0.000 A 
ATOM      5  N   UNL     1       3.475   7.146  17.077  0.00  0.00    +0.000 N 
ATOM      6  C   UNL     1       3.958   5.977  17.627  0.00  0.00    +0.000 A 
ATOM      7  C   UNL     1       3.298   5.830  18.838  0.00  0.00    +0.000 A 
ATOM      8  C   UNL     1       2.555   7.025  19.099  0.00  0.00    +0.000 A 
ATOM      9  C   UNL     1       1.784   7.515  20.178  0.00  0.00    +0.000 A 
ATOM     10  H   UNL     1       3.707   7.495  16.159  0.00  0.00    +0.000 HD
ENDROOT
BRANCH   1  12
ATOM     11  C   UNL     1      -0.709   8.468  21.664  0.00  0.00    +0.000 C 
ATOM     12  C   UNL     1       0.522   9.334  21.383  0.00  0.00    +0.000 C 
ATOM     13  C   UNL     1       1.391   9.439  22.640  0.00  0.00    +0.000 C 
ENDBRANCH   1  12
BRANCH   6  14
ATOM     14  C   UNL     1       4.923   5.089  16.892  0.00  0.00    +0.000 C 
BRANCH  14  15
ATOM     15  C   UNL     1       6.390   5.593  16.741  0.00  0.00    +0.000 C 
ATOM     16  C   UNL     1       6.918   5.410  15.309  0.00  0.00    +0.000 C 
ATOM     17  C   UNL     1       6.508   7.062  17.181  0.00  0.00    +0.000 C 
BRANCH  15  18
ATOM     18  C   UNL     1       7.252   4.725  17.677  0.00  0.00    +0.000 C 
ATOM     19  O   UNL     1       8.241   4.099  17.323  0.00  0.00    +0.000 OA
BRANCH  18  20
ATOM     20  O   UNL     1       6.857   4.711  18.971  0.00  0.00    +0.000 OA
ATOM     21  H   UNL     1       7.269   5.381  19.545  0.00  0.00    +0.000 HD
ENDBRANCH  18  20
ENDBRANCH  15  18
ENDBRANCH  14  15
ENDBRANCH   6  14
BRANCH   7  22
ATOM     22  S   UNL     1       3.452   4.495  19.959  0.00  0.00    +0.000 S 
BRANCH  22  23
ATOM     23  C   UNL     1       2.181   3.277  19.395  0.00  0.00    +0.000 C 
ATOM     24  C   UNL     1       1.369   3.809  18.208  0.00  0.00    +0.000 C 
ATOM     25  C   UNL     1       2.963   2.029  18.943  0.00  0.00    +0.000 C 
ATOM     26  C   UNL     1       1.240   2.879  20.540  0.00  0.00    +0.000 C 
ENDBRANCH  22  23
ENDBRANCH   7  22
TORSDOF 7
ENDMDL
MODEL 6
REMARK VINA RESULT:      -7.5      1.057      1.758
REMARK  Name = 
REMARK  14 active torsions:
REMARK  status: ('A' for Active; 'I' for Inactive)
REMARK    1  A    between atoms: C_1  and  C_2
REMARK    2  A    between atoms: C_2  and  C_3
REMARK    3  A    between atoms: C_2  and  C_4
REMARK    4  A    between atoms: C_9  and  C_10
REMARK    5  A    between atoms: C_10  and  C_11
REMARK    6  A    between atoms: C_11  and  C_12
REMARK    7  A    between atoms: C_11  and  C_13
REMARK    8  A    between atoms: C_11  and  C_14
REMARK    9  A    between atoms: C_14  and  O_16
REMARK   10  A    between atoms: C_17  and  S_18
REMARK   11  A    between atoms: S_18  and  C_19
REMARK   12  A    between atoms: C_19  and  C_20
REMARK   13  A    between atoms: C_19  and  C_21
REMARK   14  A    between atoms: C_19  and  C_22
REMARK                            x       y       z     vdW  Elec       q    Type
REMARK                         _______ _______ _______ _____ _____    ______ ____
ROOT
ATOM      1  C   UNL     1       0.953   8.988  20.068  0.00  0.00    +0.000 A 
ATOM      2  C   UNL     1       1.318   9.801  18.986  0.00  0.00    +0.000 A 
ATOM      3  C   UNL     1       2.198   9.354  17.994  0.00  0.00    +0.000 A 
ATOM      4  C   UNL     1       2.737   8.071  18.130  0.00  0.00    +0.000 A 
ATOM      5  N   UNL     1       3.629   7.395  17.330  0.00  0.00    +0.000 N 
ATOM      6  C   UNL     1       4.031   6.215  17.919  0.00  0.00    +0.000 A 
ATOM      7  C   UNL     1       3.200   6.040  19.016  0.00  0.00    +0.000 A 
ATOM      8  C   UNL     1       2.422   7.226  19.190  0.00  0.00    +0.000 A 
ATOM      9  C   UNL     1       1.498   7.691  20.155  0.00  0.00    +0.000 A 
ATOM     10  H   UNL     1       3.993   7.765  16.464  0.00  0.00    +0.000 HD
ENDROOT
BRANCH   1  12
ATOM     11  C   UNL     1       0.786   9.289  22.536  0.00  0.00    +0.000 C 
ATOM     12  C   UNL     1       0.062   9.480  21.200  0.00  0.00    +0.000 C 
ATOM     13  C   UNL     1      -0.424  10.927  21.066  0.00  0.00    +0.000 C 
ENDBRANCH   1  12
BRANCH   6  14
ATOM     14  C   UNL     1       5.098   5.346  17.315  0.00  0.00    +0.000 C 
BRANCH  14  15
ATOM     15  C   UNL     1       6.546   5.494  17.873  0.00  0.00    +0.000 C 
ATOM     16  C   UNL     1       6.586   5.387  19.406  0.00  0.00    +0.000 C 
ATOM     17  C   UNL     1       7.485   4.460  17.230  0.00  0.00    +0.000 C 
BRANCH  15  18
ATOM     18  C   UNL     1       7.025   6.905  17.486  0.00  0.00    +0.000 C 
ATOM     19  O   UNL     1       6.554   7.571  16.576  0.00  0.00    +0.000 OA
BRANCH  18  20
ATOM     20  O   UNL     1       8.022   7.402  18.255  0.00  0.00    +0.000 OA
ATOM     21  H   UNL     1       8.922   7.114  18.017  0.00  0.00    +0.000 HD
ENDBRANCH  18  20
ENDBRANCH  15  18
ENDBRANCH  14  15
ENDBRANCH   6  14
BRANCH   7  22
ATOM     22  S   UNL     1       3.194   4.679  20.118  0.00  0.00    +0.000 S 
BRANCH  22  23
ATOM     23  C   UNL     1       2.198   3.390  19.246  0.00  0.00    +0.000 C 
ATOM     24  C   UNL     1       3.062   2.202  18.806  0.00  0.00    +0.000 C 
ATOM     25  C   UNL     1       1.157   2.896  20.268  0.00  0.00    +0.000 C 
ATOM     26  C   UNL     1       1.458   3.977  18.037  0.00  0.00    +0.000 C 
ENDBRANCH  22  23
ENDBRANCH   7  22
TORSDOF 7
ENDMDL
MODEL 7
REMARK VINA RESULT:      -7.5      1.059      1.350
REMARK  Name = 
REMARK  14 active torsions:
REMARK  status: ('A' for Active; 'I' for Inactive)
REMARK    1  A    between atoms: C_1  and  C_2
REMARK    2  A    between atoms: C_2  and  C_3
REMARK    3  A    between atoms: C_2  and  C_4
REMARK    4  A    between atoms: C_9  and  C_10
REMARK    5  A    between atoms: C_10  and  C_11
REMARK    6  A    between atoms: C_11  and  C_12
REMARK    7  A    between atoms: C_11  and  C_13
REMARK    8  A    between atoms: C_11  and  C_14
REMARK    9  A    between atoms: C_14  and  O_16
REMARK   10  A    between atoms: C_17  and  S_18
REMARK   11  A    between atoms: S_18  and  C_19
REMARK   12  A    between atoms: C_19  and  C_20
REMARK   13  A    between atoms: C_19  and  C_21
REMARK   14  A    between atoms: C_19  and  C_22
REMARK                            x       y       z     vdW  Elec       q    Type
REMARK                         _______ _______ _______ _____ _____    ______ ____
ROOT
ATOM      1  C   UNL     1       1.412   8.725  20.109  0.00  0.00    +0.000 A 
ATOM      2  C   UNL     1       1.586   9.483  18.943  0.00  0.00    +0.000 A 
ATOM      3  C   UNL     1       2.253   8.972  17.824  0.00  0.00    +0.000 A 
ATOM      4  C   UNL     1       2.780   7.680  17.914  0.00  0.00    +0.000 A 
ATOM      5  N   UNL     1       3.491   6.948  16.991  0.00  0.00    +0.000 N 
ATOM      6  C   UNL     1       3.971   5.780  17.546  0.00  0.00    +0.000 A 
ATOM      7  C   UNL     1       3.357   5.672  18.785  0.00  0.00    +0.000 A 
ATOM      8  C   UNL     1       2.651   6.887  19.050  0.00  0.00    +0.000 A 
ATOM      9  C   UNL     1       1.935   7.417  20.149  0.00  0.00    +0.000 A 
ATOM     10  H   UNL     1       3.693   7.272  16.057  0.00  0.00    +0.000 HD
ENDROOT
BRANCH   1  12
ATOM     11  C   UNL     1       0.472  10.777  21.164  0.00  0.00    +0.000 C 
ATOM     12  C   UNL     1       0.762   9.287  21.364  0.00  0.00    +0.000 C 
ATOM     13  C   UNL     1      -0.506   8.560  21.823  0.00  0.00    +0.000 C 
ENDBRANCH   1  12
BRANCH   6  14
ATOM     14  C   UNL     1       4.886   4.856  16.792  0.00  0.00    +0.000 C 
BRANCH  14  15
ATOM     15  C   UNL     1       6.387   5.261  16.687  0.00  0.00    +0.000 C 
ATOM     16  C   UNL     1       6.580   6.785  16.763  0.00  0.00    +0.000 C 
ATOM     17  C   UNL     1       7.218   4.553  17.771  0.00  0.00    +0.000 C 
BRANCH  15  18
ATOM     18  C   UNL     1       6.876   4.792  15.304  0.00  0.00    +0.000 C 
ATOM     19  O   UNL     1       6.427   3.827  14.702  0.00  0.00    +0.000 OA
BRANCH  18  20
ATOM     20  O   UNL     1       7.853   5.550  14.755  0.00  0.00    +0.000 OA
ATOM     21  H   UNL     1       8.748   5.409  15.113  0.00  0.00    +0.000 HD
ENDBRANCH  18  20
ENDBRANCH  15  18
ENDBRANCH  14  15
ENDBRANCH   6  14
BRANCH   7  22
ATOM     22  S   UNL     1       3.528   4.356  19.927  0.00  0.00    +0.000 S 
BRANCH  22  23
ATOM     23  C   UNL     1       2.355   3.066  19.317  0.00  0.00    +0.000 C 
ATOM     24  C   UNL     1       3.088   1.909  18.627  0.00  0.00    +0.000 C 
ATOM     25  C   UNL     1       1.634   2.524  20.566  0.00  0.00    +0.000 C 
ATOM     26  C   UNL     1       1.308   3.665  18.368  0.00  0.00    +0.000 C 
ENDBRANCH  22  23
ENDBRANCH   7  22
TORSDOF 7
ENDMDL
MODEL 8
REMARK VINA RESULT:      -7.5      0.950      1.333
REMARK  Name = 
REMARK  14 active torsions:
REMARK  status: ('A' for Active; 'I' for Inactive)
REMARK    1  A    between atoms: C_1  and  C_2
REMARK    2  A    between atoms: C_2  and  C_3
REMARK    3  A    between atoms: C_2  and  C_4
REMARK    4  A    between atoms: C_9  and  C_10
REMARK    5  A    between atoms: C_10  and  C_11
REMARK    6  A    between atoms: C_11  and  C_12
REMARK    7  A    between atoms: C_11  and  C_13
REMARK    8  A    between atoms: C_11  and  C_14
REMARK    9  A    between atoms: C_14  and  O_16
REMARK   10  A    between atoms: C_17  and  S_18
REMARK   11  A    between atoms: S_18  and  C_19
REMARK   12  A    between atoms: C_19  and  C_20
REMARK   13  A    between atoms: C_19  and  C_21
REMARK   14  A    between atoms: C_19  and  C_22
REMARK                            x       y       z     vdW  Elec       q    Type
REMARK                         _______ _______ _______ _____ _____    ______ ____
ROOT
ATOM      1  C   UNL     1       1.101   9.049  19.858  0.00  0.00    +0.000 A 
ATOM      2  C   UNL     1       1.460   9.714  18.678  0.00  0.00    +0.000 A 
ATOM      3  C   UNL     1       2.301   9.125  17.727  0.00  0.00    +0.000 A 
ATOM      4  C   UNL     1       2.808   7.852  18.005  0.00  0.00    +0.000 A 
ATOM      5  N   UNL     1       3.660   7.058  17.272  0.00  0.00    +0.000 N 
ATOM      6  C   UNL     1       4.045   5.945  17.990  0.00  0.00    +0.000 A 
ATOM      7  C   UNL     1       3.239   5.929  19.119  0.00  0.00    +0.000 A 
ATOM      8  C   UNL     1       2.498   7.151  19.166  0.00  0.00    +0.000 A 
ATOM      9  C   UNL     1       1.613   7.756  20.088  0.00  0.00    +0.000 A 
ATOM     10  H   UNL     1       4.011   7.310  16.359  0.00  0.00    +0.000 HD
ENDROOT
BRANCH   1  12
ATOM     11  C   UNL     1       0.650   9.131  22.307  0.00  0.00    +0.000 C 
ATOM     12  C   UNL     1       0.255   9.701  20.942  0.00  0.00    +0.000 C 
ATOM     13  C   UNL     1       0.303  11.231  20.975  0.00  0.00    +0.000 C 
ENDBRANCH   1  12
BRANCH   6  14
ATOM     14  C   UNL     1       5.072   4.978  17.471  0.00  0.00    +0.000 C 
BRANCH  14  15
ATOM     15  C   UNL     1       6.473   5.550  17.097  0.00  0.00    +0.000 C 
ATOM     16  C   UNL     1       6.708   6.942  17.707  0.00  0.00    +0.000 C 
ATOM     17  C   UNL     1       7.587   4.577  17.514  0.00  0.00    +0.000 C 
BRANCH  15  18
ATOM     18  C   UNL     1       6.493   5.698  15.564  0.00  0.00    +0.000 C 
ATOM     19  O   UNL     1       5.583   6.177  14.903  0.00  0.00    +0.000 OA
BRANCH  18  20
ATOM     20  O   UNL     1       7.629   5.273  14.963  0.00  0.00    +0.000 OA
ATOM     21  H   UNL     1       8.457   5.473  15.436  0.00  0.00    +0.000 HD
ENDBRANCH  18  20
ENDBRANCH  15  18
ENDBRANCH  14  15
ENDBRANCH   6  14
BRANCH   7  22
ATOM     22  S   UNL     1       3.225   4.711  20.377  0.00  0.00    +0.000 S 
BRANCH  22  23
ATOM     23  C   UNL     1       2.178   3.354  19.687  0.00  0.00    +0.000 C 
ATOM     24  C   UNL     1       1.380   3.816  18.462  0.00  0.00    +0.000 C 
ATOM     25  C   UNL     1       3.156   2.245  19.253  0.00  0.00    +0.000 C 
ATOM     26  C   UNL     1       1.229   2.784  20.749  0.00  0.00    +0.000 C 
ENDBRANCH  22  23
ENDBRANCH   7  22
TORSDOF 7
ENDMDL
MODEL 9
REMARK VINA RESULT:      -7.4      0.998      1.295
REMARK  Name = 
REMARK  14 active torsions:
REMARK  status: ('A' for Active; 'I' for Inactive)
REMARK    1  A    between atoms: C_1  and  C_2
REMARK    2  A    between atoms: C_2  and  C_3
REMARK    3  A    between atoms: C_2  and  C_4
REMARK    4  A    between atoms: C_9  and  C_10
REMARK    5  A    between atoms: C_10  and  C_11
REMARK    6  A    between atoms: C_11  and  C_12
REMARK    7  A    between atoms: C_11  and  C_13
REMARK    8  A    between atoms: C_11  and  C_14
REMARK    9  A    between atoms: C_14  and  O_16
REMARK   10  A    between atoms: C_17  and  S_18
REMARK   11  A    between atoms: S_18  and  C_19
REMARK   12  A    between atoms: C_19  and  C_20
REMARK   13  A    between atoms: C_19  and  C_21
REMARK   14  A    between atoms: C_19  and  C_22
REMARK                            x       y       z     vdW  Elec       q    Type
REMARK                         _______ _______ _______ _____ _____    ______ ____
ROOT
ATOM      1  C   UNL     1       1.115   9.068  20.091  0.00  0.00    +0.000 A 
ATOM      2  C   UNL     1       1.374   9.756  18.899  0.00  0.00    +0.000 A 
ATOM      3  C   UNL     1       2.118   9.180  17.863  0.00  0.00    +0.000 A 
ATOM      4  C   UNL     1       2.633   7.896  18.066  0.00  0.00    +0.000 A 
ATOM      5  N   UNL     1       3.406   7.111  17.242  0.00  0.00    +0.000 N 
ATOM      6  C   UNL     1       3.840   5.978  17.897  0.00  0.00    +0.000 A 
ATOM      7  C   UNL     1       3.140   5.944  19.094  0.00  0.00    +0.000 A 
ATOM      8  C   UNL     1       2.421   7.172  19.235  0.00  0.00    +0.000 A 
ATOM      9  C   UNL     1       1.630   7.765  20.246  0.00  0.00    +0.000 A 
ATOM     10  H   UNL     1       3.676   7.380  16.307  0.00  0.00    +0.000 HD
ENDROOT
BRANCH   1  12
ATOM     11  C   UNL     1      -0.543  10.810  20.743  0.00  0.00    +0.000 C 
ATOM     12  C   UNL     1       0.378   9.703  21.262  0.00  0.00    +0.000 C 
ATOM     13  C   UNL     1      -0.411   8.728  22.142  0.00  0.00    +0.000 C 
ENDBRANCH   1  12
BRANCH   6  14
ATOM     14  C   UNL     1       4.804   5.012  17.266  0.00  0.00    +0.000 C 
BRANCH  14  15
ATOM     15  C   UNL     1       6.205   5.560  16.857  0.00  0.00    +0.000 C 
ATOM     16  C   UNL     1       6.539   6.879  17.574  0.00  0.00    +0.000 C 
ATOM     17  C   UNL     1       7.297   4.508  17.115  0.00  0.00    +0.000 C 
BRANCH  15  18
ATOM     18  C   UNL     1       6.142   5.848  15.346  0.00  0.00    +0.000 C 
ATOM     19  O   UNL     1       6.805   5.262  14.501  0.00  0.00    +0.000 OA
BRANCH  18  20
ATOM     20  O   UNL     1       5.259   6.806  14.982  0.00  0.00    +0.000 OA
ATOM     21  H   UNL     1       5.596   7.720  14.999  0.00  0.00    +0.000 HD
ENDBRANCH  18  20
ENDBRANCH  15  18
ENDBRANCH  14  15
ENDBRANCH   6  14
BRANCH   7  22
ATOM     22  S   UNL     1       3.224   4.698  20.321  0.00  0.00    +0.000 S 
BRANCH  22  23
ATOM     23  C   UNL     1       2.157   3.339  19.665  0.00  0.00    +0.000 C 
ATOM     24  C   UNL     1       1.346   3.789  18.445  0.00  0.00    +0.000 C 
ATOM     25  C   UNL     1       3.120   2.216  19.235  0.00  0.00    +0.000 C 
ATOM     26  C   UNL     1       1.218   2.792  20.748  0.00  0.00    +0.000 C 
ENDBRANCH  22  23
ENDBRANCH   7  22
TORSDOF 7
ENDMDL
