MODEL 1
REMARK VINA RESULT:     -10.7      0.000      0.000
REMARK  Name = 
REMARK  3 active torsions:
REMARK  status: ('A' for Active; 'I' for Inactive)
REMARK    1  A    between atoms: C_8  and  C_9
REMARK    2  A    between atoms: C_10  and  C_11
REMARK    3  A    between atoms: C_25  and  C_26
REMARK                            x       y       z     vdW  Elec       q    Type
REMARK                         _______ _______ _______ _____ _____    ______ ____
ROOT
ATOM      1  O   UNL     1       2.914   2.127  17.469  0.00  0.00    +0.000 OA
ATOM      2  C   UNL     1       2.370   2.578  18.479  0.00  0.00    +0.000 A 
ATOM      3  N   UNL     1       1.529   1.835  19.243  0.00  0.00    +0.000 N 
ATOM      4  C   UNL     1       0.998   2.290  20.410  0.00  0.00    +0.000 A 
ATOM      5  N   UNL     1       1.192   3.484  20.844  0.00  0.00    +0.000 NA
ATOM      6  C   UNL     1       1.873   4.340  20.013  0.00  0.00    +0.000 A 
ATOM      7  C   UNL     1       2.536   3.969  18.886  0.00  0.00    +0.000 A 
ATOM      8  C   UNL     1       3.032   5.007  17.868  0.00  0.00    +0.000 C 
ATOM      9  C   UNL     1       2.281   6.357  18.170  0.00  0.00    +0.000 C 
ATOM     10  C   UNL     1       1.830   6.647  19.408  0.00  0.00    +0.000 C 
ATOM     11  O   UNL     1       1.745   5.676  20.385  0.00  0.00    +0.000 OA
ATOM     12  H   UNL     1       1.364   0.890  18.940  0.00  0.00    +0.000 HD
ENDROOT
BRANCH   8  13
ATOM     13  C   UNL     1       4.547   5.367  17.802  0.00  0.00    +0.000 A 
ATOM     14  C   UNL     1       5.458   4.404  17.359  0.00  0.00    +0.000 A 
ATOM     15  N   UNL     1       6.176   4.283  18.559  0.00  0.00    +0.000 N 
ATOM     16  C   UNL     1       6.584   5.595  18.807  0.00  0.00    +0.000 A 
ATOM     17  C   UNL     1       7.881   5.979  19.165  0.00  0.00    +0.000 A 
ATOM     18  C   UNL     1       8.412   6.996  18.383  0.00  0.00    +0.000 A 
ATOM     19  C   UNL     1       7.595   7.683  17.487  0.00  0.00    +0.000 A 
ATOM     20  C   UNL     1       6.188   7.449  17.417  0.00  0.00    +0.000 A 
ATOM     21  C   UNL     1       5.586   6.371  18.157  0.00  0.00    +0.000 A 
ATOM     22  H   UNL     1       5.799   3.780  19.348  0.00  0.00    +0.000 HD
BRANCH  14  23
ATOM     23  C   UNL     1       5.953   4.431  15.970  0.00  0.00    +0.000 A 
ATOM     24  C   UNL     1       7.241   4.785  15.608  0.00  0.00    +0.000 A 
ATOM     25  C   UNL     1       7.596   4.744  14.254  0.00  0.00    +0.000 A 
ATOM     26  C   UNL     1       6.675   4.359  13.272  0.00  0.00    +0.000 A 
ATOM     27  C   UNL     1       5.364   4.091  13.615  0.00  0.00    +0.000 A 
ATOM     28  C   UNL     1       5.017   4.161  14.950  0.00  0.00    +0.000 A 
ENDBRANCH  14  23
ENDBRANCH   8  13
BRANCH  10  29
ATOM     29  C   UNL     1       1.568   8.014  19.926  0.00  0.00    +0.000 A 
ATOM     30  C   UNL     1       1.465   9.116  19.061  0.00  0.00    +0.000 A 
ATOM     31  C   UNL     1       1.039  10.367  19.534  0.00  0.00    +0.000 A 
ATOM     32  C   UNL     1       0.696  10.525  20.874  0.00  0.00    +0.000 A 
ATOM     33 CL   UNL     1       0.109  12.040  21.444  0.00  0.00    +0.000 Cl
ATOM     34  C   UNL     1       0.796   9.450  21.751  0.00  0.00    +0.000 A 
ATOM     35  C   UNL     1       1.229   8.206  21.277  0.00  0.00    +0.000 A 
ENDBRANCH  10  29
TORSDOF 3
ENDMDL
MODEL 2
REMARK VINA RESULT:     -10.3      0.584      1.030
REMARK  Name = 
REMARK  3 active torsions:
REMARK  status: ('A' for Active; 'I' for Inactive)
REMARK    1  A    between atoms: C_8  and  C_9
REMARK    2  A    between atoms: C_10  and  C_11
REMARK    3  A    between atoms: C_25  and  C_26
REMARK                            x       y       z     vdW  Elec       q    Type
REMARK                         _______ _______ _______ _____ _____    ______ ____
ROOT
ATOM      1  O   UNL     1       3.347   1.902  18.429  0.00  0.00    +0.000 OA
ATOM      2  C   UNL     1       2.758   2.521  19.319  0.00  0.00    +0.000 A 
ATOM      3  N   UNL     1       1.987   1.899  20.246  0.00  0.00    +0.000 N 
ATOM      4  C   UNL     1       1.409   2.559  21.286  0.00  0.00    +0.000 A 
ATOM      5  N   UNL     1       1.488   3.832  21.432  0.00  0.00    +0.000 NA
ATOM      6  C   UNL     1       2.090   4.534  20.415  0.00  0.00    +0.000 A 
ATOM      7  C   UNL     1       2.790   3.977  19.392  0.00  0.00    +0.000 A 
ATOM      8  C   UNL     1       3.192   4.795  18.156  0.00  0.00    +0.000 C 
ATOM      9  C   UNL     1       2.316   6.103  18.153  0.00  0.00    +0.000 C 
ATOM     10  C   UNL     1       1.834   6.627  19.299  0.00  0.00    +0.000 C 
ATOM     11  O   UNL     1       1.836   5.902  20.474  0.00  0.00    +0.000 OA
ATOM     12  H   UNL     1       1.913   0.898  20.170  0.00  0.00    +0.000 HD
ENDROOT
BRANCH   8  13
ATOM     13  C   UNL     1       4.667   5.269  17.984  0.00  0.00    +0.000 A 
ATOM     14  C   UNL     1       5.620   4.369  17.500  0.00  0.00    +0.000 A 
ATOM     15  N   UNL     1       6.421   4.331  18.652  0.00  0.00    +0.000 N 
ATOM     16  C   UNL     1       6.740   5.676  18.849  0.00  0.00    +0.000 A 
ATOM     17  C   UNL     1       8.023   6.167  19.113  0.00  0.00    +0.000 A 
ATOM     18  C   UNL     1       8.422   7.203  18.281  0.00  0.00    +0.000 A 
ATOM     19  C   UNL     1       7.498   7.804  17.428  0.00  0.00    +0.000 A 
ATOM     20  C   UNL     1       6.113   7.461  17.455  0.00  0.00    +0.000 A 
ATOM     21  C   UNL     1       5.645   6.357  18.252  0.00  0.00    +0.000 A 
ATOM     22  H   UNL     1       6.136   3.818  19.473  0.00  0.00    +0.000 HD
BRANCH  14  23
ATOM     23  C   UNL     1       6.022   4.402  16.081  0.00  0.00    +0.000 A 
ATOM     24  C   UNL     1       7.284   4.752  15.635  0.00  0.00    +0.000 A 
ATOM     25  C   UNL     1       7.548   4.717  14.261  0.00  0.00    +0.000 A 
ATOM     26  C   UNL     1       6.561   4.342  13.340  0.00  0.00    +0.000 A 
ATOM     27  C   UNL     1       5.276   4.078  13.769  0.00  0.00    +0.000 A 
ATOM     28  C   UNL     1       5.018   4.141  15.125  0.00  0.00    +0.000 A 
ENDBRANCH  14  23
ENDBRANCH   8  13
BRANCH  10  29
ATOM     29  C   UNL     1       1.442   8.045  19.494  0.00  0.00    +0.000 A 
ATOM     30  C   UNL     1       1.091   8.540  20.762  0.00  0.00    +0.000 A 
ATOM     31  C   UNL     1       0.899   9.913  20.973  0.00  0.00    +0.000 A 
ATOM     32  C   UNL     1       1.070  10.810  19.922  0.00  0.00    +0.000 A 
ATOM     33 CL   UNL     1       0.900  12.502  20.192  0.00  0.00    +0.000 Cl
ATOM     34  C   UNL     1       1.410  10.344  18.656  0.00  0.00    +0.000 A 
ATOM     35  C   UNL     1       1.593   8.972  18.448  0.00  0.00    +0.000 A 
ENDBRANCH  10  29
TORSDOF 3
ENDMDL
MODEL 3
REMARK VINA RESULT:      -8.9      1.313      3.170
REMARK  Name = 
REMARK  3 active torsions:
REMARK  status: ('A' for Active; 'I' for Inactive)
REMARK    1  A    between atoms: C_8  and  C_9
REMARK    2  A    between atoms: C_10  and  C_11
REMARK    3  A    between atoms: C_25  and  C_26
REMARK                            x       y       z     vdW  Elec       q    Type
REMARK                         _______ _______ _______ _____ _____    ______ ____
ROOT
ATOM      1  O   UNL     1       2.741   1.838  18.435  0.00  0.00    +0.000 OA
ATOM      2  C   UNL     1       2.605   2.645  19.357  0.00  0.00    +0.000 A 
ATOM      3  N   UNL     1       2.223   2.265  20.603  0.00  0.00    +0.000 N 
ATOM      4  C   UNL     1       2.161   3.131  21.651  0.00  0.00    +0.000 A 
ATOM      5  N   UNL     1       2.388   4.389  21.528  0.00  0.00    +0.000 NA
ATOM      6  C   UNL     1       2.586   4.859  20.252  0.00  0.00    +0.000 A 
ATOM      7  C   UNL     1       2.775   4.080  19.155  0.00  0.00    +0.000 A 
ATOM      8  C   UNL     1       2.711   4.663  17.735  0.00  0.00    +0.000 C 
ATOM      9  C   UNL     1       2.009   6.068  17.835  0.00  0.00    +0.000 C 
ATOM     10  C   UNL     1       2.067   6.801  18.967  0.00  0.00    +0.000 C 
ATOM     11  O   UNL     1       2.482   6.245  20.160  0.00  0.00    +0.000 OA
ATOM     12  H   UNL     1       2.049   1.284  20.739  0.00  0.00    +0.000 HD
ENDROOT
BRANCH   8  13
ATOM     13  C   UNL     1       4.026   4.898  16.932  0.00  0.00    +0.000 A 
ATOM     14  C   UNL     1       4.748   6.077  17.137  0.00  0.00    +0.000 A 
ATOM     15  N   UNL     1       4.598   6.597  15.842  0.00  0.00    +0.000 N 
ATOM     16  C   UNL     1       5.108   5.575  15.039  0.00  0.00    +0.000 A 
ATOM     17  C   UNL     1       6.018   5.754  13.991  0.00  0.00    +0.000 A 
ATOM     18  C   UNL     1       7.134   4.932  14.057  0.00  0.00    +0.000 A 
ATOM     19  C   UNL     1       7.177   3.889  14.981  0.00  0.00    +0.000 A 
ATOM     20  C   UNL     1       6.056   3.564  15.803  0.00  0.00    +0.000 A 
ATOM     21  C   UNL     1       4.892   4.410  15.825  0.00  0.00    +0.000 A 
ATOM     22  H   UNL     1       3.729   7.007  15.539  0.00  0.00    +0.000 HD
BRANCH  14  23
ATOM     23  C   UNL     1       5.932   6.081  18.016  0.00  0.00    +0.000 A 
ATOM     24  C   UNL     1       6.072   5.289  19.142  0.00  0.00    +0.000 A 
ATOM     25  C   UNL     1       7.260   5.368  19.879  0.00  0.00    +0.000 A 
ATOM     26  C   UNL     1       8.296   6.231  19.500  0.00  0.00    +0.000 A 
ATOM     27  C   UNL     1       8.128   7.089  18.431  0.00  0.00    +0.000 A 
ATOM     28  C   UNL     1       6.942   7.023  17.726  0.00  0.00    +0.000 A 
ENDBRANCH  14  23
ENDBRANCH   8  13
BRANCH  10  29
ATOM     29  C   UNL     1       1.894   8.273  19.043  0.00  0.00    +0.000 A 
ATOM     30  C   UNL     1       2.244   9.108  17.968  0.00  0.00    +0.000 A 
ATOM     31  C   UNL     1       1.912  10.471  17.974  0.00  0.00    +0.000 A 
ATOM     32  C   UNL     1       1.214  11.013  19.050  0.00  0.00    +0.000 A 
ATOM     33 CL   UNL     1       0.747  12.670  19.032  0.00  0.00    +0.000 Cl
ATOM     34  C   UNL     1       0.863  10.209  20.130  0.00  0.00    +0.000 A 
ATOM     35  C   UNL     1       1.203   8.850  20.123  0.00  0.00    +0.000 A 
ENDBRANCH  10  29
TORSDOF 3
ENDMDL
MODEL 4
REMARK VINA RESULT:      -8.3      5.157      9.550
REMARK  Name = 
REMARK  3 active torsions:
REMARK  status: ('A' for Active; 'I' for Inactive)
REMARK    1  A    between atoms: C_8  and  C_9
REMARK    2  A    between atoms: C_10  and  C_11
REMARK    3  A    between atoms: C_25  and  C_26
REMARK                            x       y       z     vdW  Elec       q    Type
REMARK                         _______ _______ _______ _____ _____    ______ ____
ROOT
ATOM      1  O   UNL     1      -2.952  12.707  19.633  0.00  0.00    +0.000 OA
ATOM      2  C   UNL     1      -2.701  11.771  18.872  0.00  0.00    +0.000 A 
ATOM      3  N   UNL     1      -3.664  11.145  18.148  0.00  0.00    +0.000 N 
ATOM      4  C   UNL     1      -3.386  10.175  17.236  0.00  0.00    +0.000 A 
ATOM      5  N   UNL     1      -2.200   9.724  17.039  0.00  0.00    +0.000 NA
ATOM      6  C   UNL     1      -1.217  10.183  17.883  0.00  0.00    +0.000 A 
ATOM      7  C   UNL     1      -1.355  11.220  18.749  0.00  0.00    +0.000 A 
ATOM      8  C   UNL     1      -0.316  11.494  19.847  0.00  0.00    +0.000 C 
ATOM      9  C   UNL     1       0.561  10.196  19.997  0.00  0.00    +0.000 C 
ATOM     10  C   UNL     1       0.737   9.345  18.965  0.00  0.00    +0.000 C 
ATOM     11  O   UNL     1      -0.058   9.411  17.839  0.00  0.00    +0.000 OA
ATOM     12  H   UNL     1      -4.604  11.481  18.268  0.00  0.00    +0.000 HD
ENDROOT
BRANCH   8  13
ATOM     13  C   UNL     1       0.691  12.673  19.687  0.00  0.00    +0.000 A 
ATOM     14  C   UNL     1       0.422  13.677  18.752  0.00  0.00    +0.000 A 
ATOM     15  N   UNL     1       1.528  13.438  17.921  0.00  0.00    +0.000 N 
ATOM     16  C   UNL     1       2.604  13.550  18.804  0.00  0.00    +0.000 A 
ATOM     17  C   UNL     1       3.769  14.286  18.561  0.00  0.00    +0.000 A 
ATOM     18  C   UNL     1       4.107  15.172  19.574  0.00  0.00    +0.000 A 
ATOM     19  C   UNL     1       3.435  15.122  20.794  0.00  0.00    +0.000 A 
ATOM     20  C   UNL     1       2.469  14.110  21.082  0.00  0.00    +0.000 A 
ATOM     21  C   UNL     1       2.032  13.200  20.056  0.00  0.00    +0.000 A 
ATOM     22  H   UNL     1       1.551  12.651  17.291  0.00  0.00    +0.000 HD
BRANCH  14  23
ATOM     23  C   UNL     1      -0.164  14.959  19.185  0.00  0.00    +0.000 A 
ATOM     24  C   UNL     1      -0.983  15.110  20.290  0.00  0.00    +0.000 A 
ATOM     25  C   UNL     1      -1.454  16.389  20.611  0.00  0.00    +0.000 A 
ATOM     26  C   UNL     1      -1.116  17.505  19.835  0.00  0.00    +0.000 A 
ATOM     27  C   UNL     1      -0.374  17.349  18.681  0.00  0.00    +0.000 A 
ATOM     28  C   UNL     1       0.064  16.079  18.358  0.00  0.00    +0.000 A 
ENDBRANCH  14  23
ENDBRANCH   8  13
BRANCH  10  29
ATOM     29  C   UNL     1       1.875   8.404  18.815  0.00  0.00    +0.000 A 
ATOM     30  C   UNL     1       2.062   7.334  19.707  0.00  0.00    +0.000 A 
ATOM     31  C   UNL     1       3.027   6.346  19.458  0.00  0.00    +0.000 A 
ATOM     32  C   UNL     1       3.806   6.408  18.306  0.00  0.00    +0.000 A 
ATOM     33 CL   UNL     1       4.944   5.163  17.962  0.00  0.00    +0.000 Cl
ATOM     34  C   UNL     1       3.644   7.461  17.411  0.00  0.00    +0.000 A 
ATOM     35  C   UNL     1       2.686   8.449  17.667  0.00  0.00    +0.000 A 
ENDBRANCH  10  29
TORSDOF 3
ENDMDL
MODEL 5
REMARK VINA RESULT:      -8.2      6.797      9.840
REMARK  Name = 
REMARK  3 active torsions:
REMARK  status: ('A' for Active; 'I' for Inactive)
REMARK    1  A    between atoms: C_8  and  C_9
REMARK    2  A    between atoms: C_10  and  C_11
REMARK    3  A    between atoms: C_25  and  C_26
REMARK                            x       y       z     vdW  Elec       q    Type
REMARK                         _______ _______ _______ _____ _____    ______ ____
ROOT
ATOM      1  O   UNL     1      -5.612  12.549  21.213  0.00  0.00    +0.000 OA
ATOM      2  C   UNL     1      -4.717  12.596  22.060  0.00  0.00    +0.000 A 
ATOM      3  N   UNL     1      -4.978  12.595  23.392  0.00  0.00    +0.000 N 
ATOM      4  C   UNL     1      -3.998  12.552  24.335  0.00  0.00    +0.000 A 
ATOM      5  N   UNL     1      -2.748  12.582  24.040  0.00  0.00    +0.000 NA
ATOM      6  C   UNL     1      -2.430  12.782  22.719  0.00  0.00    +0.000 A 
ATOM      7  C   UNL     1      -3.313  12.731  21.688  0.00  0.00    +0.000 A 
ATOM      8  C   UNL     1      -2.941  13.236  20.285  0.00  0.00    +0.000 C 
ATOM      9  C   UNL     1      -1.651  14.125  20.433  0.00  0.00    +0.000 C 
ATOM     10  C   UNL     1      -0.772  13.925  21.438  0.00  0.00    +0.000 C 
ATOM     11  O   UNL     1      -1.098  13.144  22.529  0.00  0.00    +0.000 OA
ATOM     12  H   UNL     1      -5.947  12.559  23.660  0.00  0.00    +0.000 HD
ENDROOT
BRANCH   8  13
ATOM     13  C   UNL     1      -2.628  12.214  19.150  0.00  0.00    +0.000 A 
ATOM     14  C   UNL     1      -1.310  12.066  18.711  0.00  0.00    +0.000 A 
ATOM     15  N   UNL     1      -1.515  12.518  17.397  0.00  0.00    +0.000 N 
ATOM     16  C   UNL     1      -2.524  11.670  16.936  0.00  0.00    +0.000 A 
ATOM     17  C   UNL     1      -2.514  11.005  15.705  0.00  0.00    +0.000 A 
ATOM     18  C   UNL     1      -2.752   9.640  15.791  0.00  0.00    +0.000 A 
ATOM     19  C   UNL     1      -3.178   9.083  16.995  0.00  0.00    +0.000 A 
ATOM     20  C   UNL     1      -3.485   9.890  18.132  0.00  0.00    +0.000 A 
ATOM     21  C   UNL     1      -3.206  11.302  18.127  0.00  0.00    +0.000 A 
ATOM     22  H   UNL     1      -1.631  13.498  17.191  0.00  0.00    +0.000 HD
BRANCH  14  23
ATOM     23  C   UNL     1      -0.485  10.945  19.197  0.00  0.00    +0.000 A 
ATOM     24  C   UNL     1      -0.585  10.391  20.461  0.00  0.00    +0.000 A 
ATOM     25  C   UNL     1       0.239   9.310  20.791  0.00  0.00    +0.000 A 
ATOM     26  C   UNL     1       1.158   8.788  19.872  0.00  0.00    +0.000 A 
ATOM     27  C   UNL     1       1.328   9.391  18.641  0.00  0.00    +0.000 A 
ATOM     28  C   UNL     1       0.529  10.475  18.334  0.00  0.00    +0.000 A 
ENDBRANCH  14  23
ENDBRANCH   8  13
BRANCH  10  29
ATOM     29  C   UNL     1       0.657  14.326  21.419  0.00  0.00    +0.000 A 
ATOM     30  C   UNL     1       1.117  15.428  22.158  0.00  0.00    +0.000 A 
ATOM     31  C   UNL     1       2.490  15.692  22.282  0.00  0.00    +0.000 A 
ATOM     32  C   UNL     1       3.418  14.848  21.679  0.00  0.00    +0.000 A 
ATOM     33 CL   UNL     1       5.104  15.130  21.882  0.00  0.00    +0.000 Cl
ATOM     34  C   UNL     1       2.987  13.754  20.935  0.00  0.00    +0.000 A 
ATOM     35  C   UNL     1       1.616  13.499  20.808  0.00  0.00    +0.000 A 
ENDBRANCH  10  29
TORSDOF 3
ENDMDL
MODEL 6
REMARK VINA RESULT:      -8.0      6.090     11.403
REMARK  Name = 
REMARK  3 active torsions:
REMARK  status: ('A' for Active; 'I' for Inactive)
REMARK    1  A    between atoms: C_8  and  C_9
REMARK    2  A    between atoms: C_10  and  C_11
REMARK    3  A    between atoms: C_25  and  C_26
REMARK                            x       y       z     vdW  Elec       q    Type
REMARK                         _______ _______ _______ _____ _____    ______ ____
ROOT
ATOM      1  O   UNL     1      -0.779  16.429  18.758  0.00  0.00    +0.000 OA
ATOM      2  C   UNL     1       0.269  15.794  18.896  0.00  0.00    +0.000 A 
ATOM      3  N   UNL     1       1.480  16.311  18.565  0.00  0.00    +0.000 N 
ATOM      4  C   UNL     1       2.649  15.657  18.800  0.00  0.00    +0.000 A 
ATOM      5  N   UNL     1       2.696  14.469  19.285  0.00  0.00    +0.000 NA
ATOM      6  C   UNL     1       1.496  13.823  19.454  0.00  0.00    +0.000 A 
ATOM      7  C   UNL     1       0.274  14.410  19.357  0.00  0.00    +0.000 A 
ATOM      8  C   UNL     1      -1.014  13.576  19.282  0.00  0.00    +0.000 C 
ATOM      9  C   UNL     1      -0.599  12.102  18.921  0.00  0.00    +0.000 C 
ATOM     10  C   UNL     1       0.616  11.614  19.250  0.00  0.00    +0.000 C 
ATOM     11  O   UNL     1       1.639  12.451  19.649  0.00  0.00    +0.000 OA
ATOM     12  H   UNL     1       1.482  17.246  18.194  0.00  0.00    +0.000 HD
ENDROOT
BRANCH   8  13
ATOM     13  C   UNL     1      -1.941  13.465  20.531  0.00  0.00    +0.000 A 
ATOM     14  C   UNL     1      -3.249  13.951  20.454  0.00  0.00    +0.000 A 
ATOM     15  N   UNL     1      -3.112  14.963  21.418  0.00  0.00    +0.000 N 
ATOM     16  C   UNL     1      -2.673  14.259  22.542  0.00  0.00    +0.000 A 
ATOM     17  C   UNL     1      -3.196  14.398  23.832  0.00  0.00    +0.000 A 
ATOM     18  C   UNL     1      -3.561  13.202  24.433  0.00  0.00    +0.000 A 
ATOM     19  C   UNL     1      -3.206  11.990  23.844  0.00  0.00    +0.000 A 
ATOM     20  C   UNL     1      -2.377  11.932  22.683  0.00  0.00    +0.000 A 
ATOM     21  C   UNL     1      -2.013  13.133  21.979  0.00  0.00    +0.000 A 
ATOM     22  H   UNL     1      -2.623  15.820  21.214  0.00  0.00    +0.000 HD
BRANCH  14  23
ATOM     23  C   UNL     1      -4.374  13.027  20.220  0.00  0.00    +0.000 A 
ATOM     24  C   UNL     1      -5.461  12.890  21.065  0.00  0.00    +0.000 A 
ATOM     25  C   UNL     1      -6.478  11.995  20.715  0.00  0.00    +0.000 A 
ATOM     26  C   UNL     1      -6.411  11.240  19.537  0.00  0.00    +0.000 A 
ATOM     27  C   UNL     1      -5.289  11.304  18.735  0.00  0.00    +0.000 A 
ATOM     28  C   UNL     1      -4.278  12.171  19.102  0.00  0.00    +0.000 A 
ENDBRANCH  14  23
ENDBRANCH   8  13
BRANCH  10  29
ATOM     29  C   UNL     1       0.946  10.177  19.415  0.00  0.00    +0.000 A 
ATOM     30  C   UNL     1       1.623   9.462  18.412  0.00  0.00    +0.000 A 
ATOM     31  C   UNL     1       2.091   8.160  18.645  0.00  0.00    +0.000 A 
ATOM     32  C   UNL     1       1.901   7.563  19.889  0.00  0.00    +0.000 A 
ATOM     33 CL   UNL     1       2.531   5.992  20.200  0.00  0.00    +0.000 Cl
ATOM     34  C   UNL     1       1.226   8.248  20.895  0.00  0.00    +0.000 A 
ATOM     35  C   UNL     1       0.754   9.544  20.655  0.00  0.00    +0.000 A 
ENDBRANCH  10  29
TORSDOF 3
ENDMDL
MODEL 7
REMARK VINA RESULT:      -8.0      5.674     10.321
REMARK  Name = 
REMARK  3 active torsions:
REMARK  status: ('A' for Active; 'I' for Inactive)
REMARK    1  A    between atoms: C_8  and  C_9
REMARK    2  A    between atoms: C_10  and  C_11
REMARK    3  A    between atoms: C_25  and  C_26
REMARK                            x       y       z     vdW  Elec       q    Type
REMARK                         _______ _______ _______ _____ _____    ______ ____
ROOT
ATOM      1  O   UNL     1      -3.639  13.719  20.794  0.00  0.00    +0.000 OA
ATOM      2  C   UNL     1      -3.457  12.865  19.923  0.00  0.00    +0.000 A 
ATOM      3  N   UNL     1      -4.474  12.360  19.179  0.00  0.00    +0.000 N 
ATOM      4  C   UNL     1      -4.273  11.488  18.153  0.00  0.00    +0.000 A 
ATOM      5  N   UNL     1      -3.115  11.019  17.855  0.00  0.00    +0.000 NA
ATOM      6  C   UNL     1      -2.081  11.344  18.700  0.00  0.00    +0.000 A 
ATOM      7  C   UNL     1      -2.142  12.283  19.681  0.00  0.00    +0.000 A 
ATOM      8  C   UNL     1      -1.049  12.394  20.755  0.00  0.00    +0.000 C 
ATOM      9  C   UNL     1      -0.221  11.056  20.722  0.00  0.00    +0.000 C 
ATOM     10  C   UNL     1      -0.121  10.320  19.595  0.00  0.00    +0.000 C 
ATOM     11  O   UNL     1      -0.958  10.540  18.520  0.00  0.00    +0.000 OA
ATOM     12  H   UNL     1      -5.394  12.714  19.377  0.00  0.00    +0.000 HD
ENDROOT
BRANCH   8  13
ATOM     13  C   UNL     1      -0.002  13.546  20.681  0.00  0.00    +0.000 A 
ATOM     14  C   UNL     1       0.139  14.264  19.491  0.00  0.00    +0.000 A 
ATOM     15  N   UNL     1       1.462  13.882  19.216  0.00  0.00    +0.000 N 
ATOM     16  C   UNL     1       2.140  14.271  20.372  0.00  0.00    +0.000 A 
ATOM     17  C   UNL     1       3.345  14.983  20.396  0.00  0.00    +0.000 A 
ATOM     18  C   UNL     1       3.325  16.114  21.201  0.00  0.00    +0.000 A 
ATOM     19  C   UNL     1       2.248  16.339  22.057  0.00  0.00    +0.000 A 
ATOM     20  C   UNL     1       1.199  15.383  22.217  0.00  0.00    +0.000 A 
ATOM     21  C   UNL     1       1.131  14.220  21.371  0.00  0.00    +0.000 A 
ATOM     22  H   UNL     1       1.680  12.964  18.861  0.00  0.00    +0.000 HD
BRANCH  14  23
ATOM     23  C   UNL     1      -0.507  15.581  19.335  0.00  0.00    +0.000 A 
ATOM     24  C   UNL     1      -1.534  16.047  20.136  0.00  0.00    +0.000 A 
ATOM     25  C   UNL     1      -2.044  17.329  19.902  0.00  0.00    +0.000 A 
ATOM     26  C   UNL     1      -1.538  18.137  18.876  0.00  0.00    +0.000 A 
ATOM     27  C   UNL     1      -0.576  17.646  18.016  0.00  0.00    +0.000 A 
ATOM     28  C   UNL     1      -0.097  16.369  18.239  0.00  0.00    +0.000 A 
ENDBRANCH  14  23
ENDBRANCH   8  13
BRANCH  10  29
ATOM     29  C   UNL     1       0.970   9.361  19.292  0.00  0.00    +0.000 A 
ATOM     30  C   UNL     1       1.347   8.367  20.211  0.00  0.00    +0.000 A 
ATOM     31  C   UNL     1       2.248   7.354  19.851  0.00  0.00    +0.000 A 
ATOM     32  C   UNL     1       2.773   7.315  18.562  0.00  0.00    +0.000 A 
ATOM     33 CL   UNL     1       3.827   6.037  18.094  0.00  0.00    +0.000 Cl
ATOM     34  C   UNL     1       2.421   8.292  17.636  0.00  0.00    +0.000 A 
ATOM     35  C   UNL     1       1.527   9.305  18.002  0.00  0.00    +0.000 A 
ENDBRANCH  10  29
TORSDOF 3
ENDMDL
MODEL 8
REMARK VINA RESULT:      -8.0      5.616      9.959
REMARK  Name = 
REMARK  3 active torsions:
REMARK  status: ('A' for Active; 'I' for Inactive)
REMARK    1  A    between atoms: C_8  and  C_9
REMARK    2  A    between atoms: C_10  and  C_11
REMARK    3  A    between atoms: C_25  and  C_26
REMARK                            x       y       z     vdW  Elec       q    Type
REMARK                         _______ _______ _______ _____ _____    ______ ____
ROOT
ATOM      1  O   UNL     1      -2.477  14.414  21.691  0.00  0.00    +0.000 OA
ATOM      2  C   UNL     1      -2.553  13.559  20.807  0.00  0.00    +0.000 A 
ATOM      3  N   UNL     1      -3.732  13.215  20.229  0.00  0.00    +0.000 N 
ATOM      4  C   UNL     1      -3.816  12.341  19.189  0.00  0.00    +0.000 A 
ATOM      5  N   UNL     1      -2.795  11.717  18.721  0.00  0.00    +0.000 NA
ATOM      6  C   UNL     1      -1.610  11.877  19.398  0.00  0.00    +0.000 A 
ATOM      7  C   UNL     1      -1.386  12.799  20.371  0.00  0.00    +0.000 A 
ATOM      8  C   UNL     1      -0.139  12.735  21.266  0.00  0.00    +0.000 C 
ATOM      9  C   UNL     1       0.474  11.293  21.115  0.00  0.00    +0.000 C 
ATOM     10  C   UNL     1       0.296  10.569  19.990  0.00  0.00    +0.000 C 
ATOM     11  O   UNL     1      -0.654  10.925  19.053  0.00  0.00    +0.000 OA
ATOM     12  H   UNL     1      -4.551  13.694  20.562  0.00  0.00    +0.000 HD
ENDROOT
BRANCH   8  13
ATOM     13  C   UNL     1       1.039  13.727  21.028  0.00  0.00    +0.000 A 
ATOM     14  C   UNL     1       1.419  14.032  19.719  0.00  0.00    +0.000 A 
ATOM     15  N   UNL     1       2.711  13.487  19.784  0.00  0.00    +0.000 N 
ATOM     16  C   UNL     1       3.274  14.161  20.869  0.00  0.00    +0.000 A 
ATOM     17  C   UNL     1       4.542  14.753  20.877  0.00  0.00    +0.000 A 
ATOM     18  C   UNL     1       4.552  16.074  21.302  0.00  0.00    +0.000 A 
ATOM     19  C   UNL     1       3.407  16.631  21.870  0.00  0.00    +0.000 A 
ATOM     20  C   UNL     1       2.240  15.852  22.131  0.00  0.00    +0.000 A 
ATOM     21  C   UNL     1       2.144  14.494  21.663  0.00  0.00    +0.000 A 
ATOM     22  H   UNL     1       2.862  12.490  19.753  0.00  0.00    +0.000 HD
BRANCH  14  23
ATOM     23  C   UNL     1       0.962  15.282  19.083  0.00  0.00    +0.000 A 
ATOM     24  C   UNL     1      -0.360  15.686  19.015  0.00  0.00    +0.000 A 
ATOM     25  C   UNL     1      -0.661  16.910  18.406  0.00  0.00    +0.000 A 
ATOM     26  C   UNL     1       0.345  17.721  17.866  0.00  0.00    +0.000 A 
ATOM     27  C   UNL     1       1.655  17.284  17.849  0.00  0.00    +0.000 A 
ATOM     28  C   UNL     1       1.939  16.062  18.429  0.00  0.00    +0.000 A 
ENDBRANCH  14  23
ENDBRANCH   8  13
BRANCH  10  29
ATOM     29  C   UNL     1       1.180   9.469  19.530  0.00  0.00    +0.000 A 
ATOM     30  C   UNL     1       1.493   8.385  20.366  0.00  0.00    +0.000 A 
ATOM     31  C   UNL     1       2.176   7.264  19.869  0.00  0.00    +0.000 A 
ATOM     32  C   UNL     1       2.541   7.209  18.527  0.00  0.00    +0.000 A 
ATOM     33 CL   UNL     1       3.320   5.809  17.898  0.00  0.00    +0.000 Cl
ATOM     34  C   UNL     1       2.248   8.274  17.680  0.00  0.00    +0.000 A 
ATOM     35  C   UNL     1       1.573   9.394  18.182  0.00  0.00    +0.000 A 
ENDBRANCH  10  29
TORSDOF 3
ENDMDL
MODEL 9
REMARK VINA RESULT:      -7.8      5.927      9.743
REMARK  Name = 
REMARK  3 active torsions:
REMARK  status: ('A' for Active; 'I' for Inactive)
REMARK    1  A    between atoms: C_8  and  C_9
REMARK    2  A    between atoms: C_10  and  C_11
REMARK    3  A    between atoms: C_25  and  C_26
REMARK                            x       y       z     vdW  Elec       q    Type
REMARK                         _______ _______ _______ _____ _____    ______ ____
ROOT
ATOM      1  O   UNL     1       2.940  13.481  20.957  0.00  0.00    +0.000 OA
ATOM      2  C   UNL     1       2.149  14.339  21.354  0.00  0.00    +0.000 A 
ATOM      3  N   UNL     1       2.558  15.558  21.788  0.00  0.00    +0.000 N 
ATOM      4  C   UNL     1       1.689  16.545  22.139  0.00  0.00    +0.000 A 
ATOM      5  N   UNL     1       0.416  16.377  22.158  0.00  0.00    +0.000 NA
ATOM      6  C   UNL     1      -0.042  15.104  21.919  0.00  0.00    +0.000 A 
ATOM      7  C   UNL     1       0.717  14.076  21.456  0.00  0.00    +0.000 A 
ATOM      8  C   UNL     1       0.207  12.627  21.478  0.00  0.00    +0.000 C 
ATOM      9  C   UNL     1      -1.025  12.578  22.456  0.00  0.00    +0.000 C 
ATOM     10  C   UNL     1      -1.792  13.668  22.674  0.00  0.00    +0.000 C 
ATOM     11  O   UNL     1      -1.373  14.926  22.290  0.00  0.00    +0.000 OA
ATOM     12  H   UNL     1       3.549  15.730  21.774  0.00  0.00    +0.000 HD
ENDROOT
BRANCH   8  13
ATOM     13  C   UNL     1      -0.268  11.951  20.157  0.00  0.00    +0.000 A 
ATOM     14  C   UNL     1       0.674  11.637  19.174  0.00  0.00    +0.000 A 
ATOM     15  N   UNL     1       0.179  12.498  18.181  0.00  0.00    +0.000 N 
ATOM     16  C   UNL     1      -1.151  12.089  18.056  0.00  0.00    +0.000 A 
ATOM     17  C   UNL     1      -1.804  11.842  16.844  0.00  0.00    +0.000 A 
ATOM     18  C   UNL     1      -2.441  10.611  16.779  0.00  0.00    +0.000 A 
ATOM     19  C   UNL     1      -2.571   9.833  17.928  0.00  0.00    +0.000 A 
ATOM     20  C   UNL     1      -2.161  10.309  19.211  0.00  0.00    +0.000 A 
ATOM     21  C   UNL     1      -1.444  11.551  19.338  0.00  0.00    +0.000 A 
ATOM     22  H   UNL     1       0.335  13.493  18.224  0.00  0.00    +0.000 HD
BRANCH  14  23
ATOM     23  C   UNL     1       1.189  10.261  19.048  0.00  0.00    +0.000 A 
ATOM     24  C   UNL     1       1.582   9.681  17.855  0.00  0.00    +0.000 A 
ATOM     25  C   UNL     1       2.079   8.373  17.873  0.00  0.00    +0.000 A 
ATOM     26  C   UNL     1       2.179   7.648  19.068  0.00  0.00    +0.000 A 
ATOM     27  C   UNL     1       1.705   8.187  20.248  0.00  0.00    +0.000 A 
ATOM     28  C   UNL     1       1.191   9.469  20.216  0.00  0.00    +0.000 A 
ENDBRANCH  14  23
ENDBRANCH   8  13
BRANCH  10  29
ATOM     29  C   UNL     1      -3.198  13.645  23.147  0.00  0.00    +0.000 A 
ATOM     30  C   UNL     1      -4.191  14.423  22.527  0.00  0.00    +0.000 A 
ATOM     31  C   UNL     1      -5.545  14.261  22.858  0.00  0.00    +0.000 A 
ATOM     32  C   UNL     1      -5.923  13.310  23.801  0.00  0.00    +0.000 A 
ATOM     33 CL   UNL     1      -7.589  13.062  24.161  0.00  0.00    +0.000 Cl
ATOM     34  C   UNL     1      -4.958  12.533  24.434  0.00  0.00    +0.000 A 
ATOM     35  C   UNL     1      -3.607  12.702  24.106  0.00  0.00    +0.000 A 
ENDBRANCH  10  29
TORSDOF 3
ENDMDL
