MODEL 1
REMARK VINA RESULT:      -7.4      0.000      0.000
REMARK  Name = 
REMARK  6 active torsions:
REMARK  status: ('A' for Active; 'I' for Inactive)
REMARK    1  A    between atoms: C_2  and  O_3
REMARK    2  A    between atoms: C_2  and  C_11
REMARK    3  A    between atoms: O_3  and  C_4
REMARK    4  A    between atoms: C_4  and  C_5
REMARK    5  A    between atoms: C_14  and  C_15
REMARK    6  A    between atoms: C_18  and  N_19
REMARK                            x       y       z     vdW  Elec       q    Type
REMARK                         _______ _______ _______ _____ _____    ______ ____
ROOT
ATOM      1  C   UNL     1       5.391   5.297  17.047  0.00  0.00    +0.000 C 
ATOM      2  C   UNL     1       5.714   5.152  18.520  0.00  0.00    +0.000 C 
ATOM      3  O   UNL     1       4.664   5.834  19.195  0.00  0.00    +0.000 OA
ATOM      4  C   UNL     1       3.963   6.461  18.224  0.00  0.00    +0.000 C 
ATOM      5  N   UNL     1       4.274   6.271  16.983  0.00  0.00    +0.000 NA
ENDROOT
BRANCH   4   6
ATOM      6  C   UNL     1       2.869   7.314  18.724  0.00  0.00    +0.000 A 
ATOM      7  C   UNL     1       2.397   8.398  17.971  0.00  0.00    +0.000 A 
ATOM      8  C   UNL     1       1.428   9.255  18.500  0.00  0.00    +0.000 A 
ATOM      9  C   UNL     1       0.926   9.023  19.786  0.00  0.00    +0.000 A 
ATOM     10  C   UNL     1       1.363   7.920  20.533  0.00  0.00    +0.000 A 
ATOM     11  C   UNL     1       2.336   7.067  19.998  0.00  0.00    +0.000 A 
BRANCH   9  12
ATOM     12  N   UNL     1      -0.049   9.959  20.362  0.00  0.00    +0.000 N 
ATOM     13  O   UNL     1      -0.588  10.771  19.601  0.00  0.00    +0.000 OA
ATOM     14  O   UNL     1      -0.263   9.886  21.582  0.00  0.00    +0.000 OA
ENDBRANCH   9  12
ENDBRANCH   4   6
BRANCH   1  16
ATOM     15  O   UNL     1       5.852   3.362  15.696  0.00  0.00    +0.000 OA
ATOM     16  C   UNL     1       5.053   3.950  16.417  0.00  0.00    +0.000 C 
BRANCH  16  17
ATOM     17  O   UNL     1       3.774   3.545  16.641  0.00  0.00    +0.000 OA
BRANCH  17  18
ATOM     18  C   UNL     1       3.621   2.516  17.633  0.00  0.00    +0.000 C 
BRANCH  18  19
ATOM     19  C   UNL     1       2.826   2.897  18.864  0.00  0.00    +0.000 A 
ATOM     20  C   UNL     1       1.558   3.482  18.800  0.00  0.00    +0.000 A 
ATOM     21  C   UNL     1       0.834   3.734  19.971  0.00  0.00    +0.000 A 
ATOM     22  C   UNL     1       1.365   3.396  21.217  0.00  0.00    +0.000 A 
ATOM     23  C   UNL     1       2.618   2.798  21.294  0.00  0.00    +0.000 A 
ATOM     24  C   UNL     1       3.341   2.548  20.126  0.00  0.00    +0.000 A 
ENDBRANCH  18  19
ENDBRANCH  17  18
ENDBRANCH  16  17
ENDBRANCH   1  16
TORSDOF 6
ENDMDL
MODEL 2
REMARK VINA RESULT:      -7.4      4.008      6.722
REMARK  Name = 
REMARK  6 active torsions:
REMARK  status: ('A' for Active; 'I' for Inactive)
REMARK    1  A    between atoms: C_2  and  O_3
REMARK    2  A    between atoms: C_2  and  C_11
REMARK    3  A    between atoms: O_3  and  C_4
REMARK    4  A    between atoms: C_4  and  C_5
REMARK    5  A    between atoms: C_14  and  C_15
REMARK    6  A    between atoms: C_18  and  N_19
REMARK                            x       y       z     vdW  Elec       q    Type
REMARK                         _______ _______ _______ _____ _____    ______ ____
ROOT
ATOM      1  C   UNL     1       7.840   6.090  18.225  0.00  0.00    +0.000 C 
ATOM      2  C   UNL     1       7.047   7.234  17.627  0.00  0.00    +0.000 C 
ATOM      3  O   UNL     1       6.417   6.682  16.477  0.00  0.00    +0.000 OA
ATOM      4  C   UNL     1       6.957   5.451  16.330  0.00  0.00    +0.000 C 
ATOM      5  N   UNL     1       7.784   5.003  17.218  0.00  0.00    +0.000 NA
ENDROOT
BRANCH   4   6
ATOM      6  C   UNL     1       6.505   4.733  15.124  0.00  0.00    +0.000 A 
ATOM      7  C   UNL     1       7.275   4.731  13.954  0.00  0.00    +0.000 A 
ATOM      8  C   UNL     1       6.788   4.128  12.790  0.00  0.00    +0.000 A 
ATOM      9  C   UNL     1       5.527   3.520  12.801  0.00  0.00    +0.000 A 
ATOM     10  C   UNL     1       4.764   3.483  13.977  0.00  0.00    +0.000 A 
ATOM     11  C   UNL     1       5.257   4.091  15.137  0.00  0.00    +0.000 A 
BRANCH   9  12
ATOM     12  N   UNL     1       4.993   2.940  11.562  0.00  0.00    +0.000 N 
ATOM     13  O   UNL     1       4.077   3.543  10.990  0.00  0.00    +0.000 OA
ATOM     14  O   UNL     1       5.486   1.872  11.170  0.00  0.00    +0.000 OA
ENDBRANCH   9  12
ENDBRANCH   4   6
BRANCH   1  16
ATOM     15  O   UNL     1       8.026   5.374  20.513  0.00  0.00    +0.000 OA
ATOM     16  C   UNL     1       7.285   5.681  19.585  0.00  0.00    +0.000 C 
BRANCH  16  17
ATOM     17  O   UNL     1       5.929   5.586  19.619  0.00  0.00    +0.000 OA
BRANCH  17  18
ATOM     18  C   UNL     1       5.402   4.261  19.439  0.00  0.00    +0.000 C 
BRANCH  18  19
ATOM     19  C   UNL     1       4.085   4.169  18.697  0.00  0.00    +0.000 A 
ATOM     20  C   UNL     1       3.556   2.961  18.234  0.00  0.00    +0.000 A 
ATOM     21  C   UNL     1       2.293   2.926  17.630  0.00  0.00    +0.000 A 
ATOM     22  C   UNL     1       1.542   4.094  17.492  0.00  0.00    +0.000 A 
ATOM     23  C   UNL     1       2.050   5.300  17.964  0.00  0.00    +0.000 A 
ATOM     24  C   UNL     1       3.310   5.335  18.564  0.00  0.00    +0.000 A 
ENDBRANCH  18  19
ENDBRANCH  17  18
ENDBRANCH  16  17
ENDBRANCH   1  16
TORSDOF 6
ENDMDL
MODEL 3
REMARK VINA RESULT:      -7.4      0.512      1.094
REMARK  Name = 
REMARK  6 active torsions:
REMARK  status: ('A' for Active; 'I' for Inactive)
REMARK    1  A    between atoms: C_2  and  O_3
REMARK    2  A    between atoms: C_2  and  C_11
REMARK    3  A    between atoms: O_3  and  C_4
REMARK    4  A    between atoms: C_4  and  C_5
REMARK    5  A    between atoms: C_14  and  C_15
REMARK    6  A    between atoms: C_18  and  N_19
REMARK                            x       y       z     vdW  Elec       q    Type
REMARK                         _______ _______ _______ _____ _____    ______ ____
ROOT
ATOM      1  C   UNL     1       5.325   5.472  17.200  0.00  0.00    +0.000 C 
ATOM      2  C   UNL     1       5.431   5.215  18.689  0.00  0.00    +0.000 C 
ATOM      3  O   UNL     1       4.339   5.924  19.262  0.00  0.00    +0.000 OA
ATOM      4  C   UNL     1       3.819   6.656  18.252  0.00  0.00    +0.000 C 
ATOM      5  N   UNL     1       4.288   6.522  17.054  0.00  0.00    +0.000 NA
ENDROOT
BRANCH   4   6
ATOM      6  C   UNL     1       2.719   7.550  18.659  0.00  0.00    +0.000 A 
ATOM      7  C   UNL     1       2.237   8.541  17.793  0.00  0.00    +0.000 A 
ATOM      8  C   UNL     1       1.261   9.443  18.228  0.00  0.00    +0.000 A 
ATOM      9  C   UNL     1       0.763   9.348  19.533  0.00  0.00    +0.000 A 
ATOM     10  C   UNL     1       1.211   8.337  20.395  0.00  0.00    +0.000 A 
ATOM     11  C   UNL     1       2.190   7.439  19.953  0.00  0.00    +0.000 A 
BRANCH   9  12
ATOM     12  N   UNL     1      -0.219  10.334  20.006  0.00  0.00    +0.000 N 
ATOM     13  O   UNL     1      -0.746  11.072  19.165  0.00  0.00    +0.000 OA
ATOM     14  O   UNL     1      -0.450  10.374  21.224  0.00  0.00    +0.000 OA
ENDBRANCH   9  12
ENDBRANCH   4   6
BRANCH   1  16
ATOM     15  O   UNL     1       5.055   4.145  15.212  0.00  0.00    +0.000 OA
ATOM     16  C   UNL     1       4.999   4.193  16.436  0.00  0.00    +0.000 C 
BRANCH  16  17
ATOM     17  O   UNL     1       4.544   3.184  17.226  0.00  0.00    +0.000 OA
BRANCH  17  18
ATOM     18  C   UNL     1       3.114   3.068  17.312  0.00  0.00    +0.000 C 
BRANCH  18  19
ATOM     19  C   UNL     1       2.530   3.106  18.708  0.00  0.00    +0.000 A 
ATOM     20  C   UNL     1       3.146   2.500  19.807  0.00  0.00    +0.000 A 
ATOM     21  C   UNL     1       2.603   2.641  21.090  0.00  0.00    +0.000 A 
ATOM     22  C   UNL     1       1.448   3.398  21.290  0.00  0.00    +0.000 A 
ATOM     23  C   UNL     1       0.835   4.021  20.207  0.00  0.00    +0.000 A 
ATOM     24  C   UNL     1       1.375   3.878  18.928  0.00  0.00    +0.000 A 
ENDBRANCH  18  19
ENDBRANCH  17  18
ENDBRANCH  16  17
ENDBRANCH   1  16
TORSDOF 6
ENDMDL
MODEL 4
REMARK VINA RESULT:      -7.3      5.032      7.615
REMARK  Name = 
REMARK  6 active torsions:
REMARK  status: ('A' for Active; 'I' for Inactive)
REMARK    1  A    between atoms: C_2  and  O_3
REMARK    2  A    between atoms: C_2  and  C_11
REMARK    3  A    between atoms: O_3  and  C_4
REMARK    4  A    between atoms: C_4  and  C_5
REMARK    5  A    between atoms: C_14  and  C_15
REMARK    6  A    between atoms: C_18  and  N_19
REMARK                            x       y       z     vdW  Elec       q    Type
REMARK                         _______ _______ _______ _____ _____    ______ ____
ROOT
ATOM      1  C   UNL     1       7.846   6.009  18.617  0.00  0.00    +0.000 C 
ATOM      2  C   UNL     1       7.756   4.902  17.587  0.00  0.00    +0.000 C 
ATOM      3  O   UNL     1       6.467   4.330  17.775  0.00  0.00    +0.000 OA
ATOM      4  C   UNL     1       5.984   4.900  18.902  0.00  0.00    +0.000 C 
ATOM      5  N   UNL     1       6.660   5.833  19.490  0.00  0.00    +0.000 NA
ENDROOT
BRANCH   4   6
ATOM      6  C   UNL     1       4.678   4.369  19.335  0.00  0.00    +0.000 A 
ATOM      7  C   UNL     1       3.637   5.230  19.709  0.00  0.00    +0.000 A 
ATOM      8  C   UNL     1       2.439   4.712  20.209  0.00  0.00    +0.000 A 
ATOM      9  C   UNL     1       2.281   3.325  20.329  0.00  0.00    +0.000 A 
ATOM     10  C   UNL     1       3.302   2.454  19.923  0.00  0.00    +0.000 A 
ATOM     11  C   UNL     1       4.499   2.981  19.425  0.00  0.00    +0.000 A 
BRANCH   9  12
ATOM     12  N   UNL     1       1.044   2.786  20.910  0.00  0.00    +0.000 N 
ATOM     13  O   UNL     1       0.066   2.655  20.165  0.00  0.00    +0.000 OA
ATOM     14  O   UNL     1       1.053   2.506  22.119  0.00  0.00    +0.000 OA
ENDBRANCH   9  12
ENDBRANCH   4   6
BRANCH   1  16
ATOM     15  O   UNL     1       7.460   7.568  16.827  0.00  0.00    +0.000 OA
ATOM     16  C   UNL     1       7.907   7.381  17.954  0.00  0.00    +0.000 C 
BRANCH  16  17
ATOM     17  O   UNL     1       8.590   8.309  18.675  0.00  0.00    +0.000 OA
BRANCH  17  18
ATOM     18  C   UNL     1       8.513   9.654  18.175  0.00  0.00    +0.000 C 
BRANCH  18  19
ATOM     19  C   UNL     1       9.433  10.659  18.836  0.00  0.00    +0.000 A 
ATOM     20  C   UNL     1       9.482  10.851  20.219  0.00  0.00    +0.000 A 
ATOM     21  C   UNL     1      10.413  11.734  20.780  0.00  0.00    +0.000 A 
ATOM     22  C   UNL     1      11.313  12.423  19.966  0.00  0.00    +0.000 A 
ATOM     23  C   UNL     1      11.287  12.228  18.589  0.00  0.00    +0.000 A 
ATOM     24  C   UNL     1      10.357  11.350  18.030  0.00  0.00    +0.000 A 
ENDBRANCH  18  19
ENDBRANCH  17  18
ENDBRANCH  16  17
ENDBRANCH   1  16
TORSDOF 6
ENDMDL
MODEL 5
REMARK VINA RESULT:      -7.3      4.128      6.789
REMARK  Name = 
REMARK  6 active torsions:
REMARK  status: ('A' for Active; 'I' for Inactive)
REMARK    1  A    between atoms: C_2  and  O_3
REMARK    2  A    between atoms: C_2  and  C_11
REMARK    3  A    between atoms: O_3  and  C_4
REMARK    4  A    between atoms: C_4  and  C_5
REMARK    5  A    between atoms: C_14  and  C_15
REMARK    6  A    between atoms: C_18  and  N_19
REMARK                            x       y       z     vdW  Elec       q    Type
REMARK                         _______ _______ _______ _____ _____    ______ ____
ROOT
ATOM      1  C   UNL     1       7.838   5.782  18.170  0.00  0.00    +0.000 C 
ATOM      2  C   UNL     1       7.195   7.037  17.619  0.00  0.00    +0.000 C 
ATOM      3  O   UNL     1       6.539   6.620  16.428  0.00  0.00    +0.000 OA
ATOM      4  C   UNL     1       6.942   5.346  16.225  0.00  0.00    +0.000 C 
ATOM      5  N   UNL     1       7.690   4.761  17.104  0.00  0.00    +0.000 NA
ENDROOT
BRANCH   4   6
ATOM      6  C   UNL     1       6.446   4.748  14.972  0.00  0.00    +0.000 A 
ATOM      7  C   UNL     1       5.155   4.209  14.891  0.00  0.00    +0.000 A 
ATOM      8  C   UNL     1       4.733   3.559  13.727  0.00  0.00    +0.000 A 
ATOM      9  C   UNL     1       5.608   3.454  12.639  0.00  0.00    +0.000 A 
ATOM     10  C   UNL     1       6.888   4.022  12.695  0.00  0.00    +0.000 A 
ATOM     11  C   UNL     1       7.303   4.669  13.865  0.00  0.00    +0.000 A 
BRANCH   9  12
ATOM     12  N   UNL     1       5.183   2.719  11.439  0.00  0.00    +0.000 N 
ATOM     13  O   UNL     1       4.199   3.142  10.821  0.00  0.00    +0.000 OA
ATOM     14  O   UNL     1       5.832   1.709  11.126  0.00  0.00    +0.000 OA
ENDBRANCH   9  12
ENDBRANCH   4   6
BRANCH   1  16
ATOM     15  O   UNL     1       7.737   5.625  20.568  0.00  0.00    +0.000 OA
ATOM     16  C   UNL     1       7.204   5.367  19.494  0.00  0.00    +0.000 C 
BRANCH  16  17
ATOM     17  O   UNL     1       6.085   4.608  19.353  0.00  0.00    +0.000 OA
BRANCH  17  18
ATOM     18  C   UNL     1       4.842   5.315  19.492  0.00  0.00    +0.000 C 
BRANCH  18  19
ATOM     19  C   UNL     1       3.589   4.511  19.216  0.00  0.00    +0.000 A 
ATOM     20  C   UNL     1       2.413   4.656  19.957  0.00  0.00    +0.000 A 
ATOM     21  C   UNL     1       1.259   3.946  19.601  0.00  0.00    +0.000 A 
ATOM     22  C   UNL     1       1.266   3.095  18.496  0.00  0.00    +0.000 A 
ATOM     23  C   UNL     1       2.425   2.954  17.739  0.00  0.00    +0.000 A 
ATOM     24  C   UNL     1       3.575   3.660  18.096  0.00  0.00    +0.000 A 
ENDBRANCH  18  19
ENDBRANCH  17  18
ENDBRANCH  16  17
ENDBRANCH   1  16
TORSDOF 6
ENDMDL
MODEL 6
REMARK VINA RESULT:      -7.2      0.647      1.630
REMARK  Name = 
REMARK  6 active torsions:
REMARK  status: ('A' for Active; 'I' for Inactive)
REMARK    1  A    between atoms: C_2  and  O_3
REMARK    2  A    between atoms: C_2  and  C_11
REMARK    3  A    between atoms: O_3  and  C_4
REMARK    4  A    between atoms: C_4  and  C_5
REMARK    5  A    between atoms: C_14  and  C_15
REMARK    6  A    between atoms: C_18  and  N_19
REMARK                            x       y       z     vdW  Elec       q    Type
REMARK                         _______ _______ _______ _____ _____    ______ ____
ROOT
ATOM      1  C   UNL     1       5.078   5.336  17.424  0.00  0.00    +0.000 C 
ATOM      2  C   UNL     1       5.154   5.135  18.923  0.00  0.00    +0.000 C 
ATOM      3  O   UNL     1       4.114   5.947  19.456  0.00  0.00    +0.000 OA
ATOM      4  C   UNL     1       3.656   6.672  18.411  0.00  0.00    +0.000 C 
ATOM      5  N   UNL     1       4.122   6.453  17.224  0.00  0.00    +0.000 NA
ENDROOT
BRANCH   4   6
ATOM      6  C   UNL     1       2.623   7.661  18.769  0.00  0.00    +0.000 A 
ATOM      7  C   UNL     1       2.069   7.693  20.056  0.00  0.00    +0.000 A 
ATOM      8  C   UNL     1       1.023   8.572  20.352  0.00  0.00    +0.000 A 
ATOM      9  C   UNL     1       0.534   9.426  19.355  0.00  0.00    +0.000 A 
ATOM     10  C   UNL     1       1.106   9.429  18.075  0.00  0.00    +0.000 A 
ATOM     11  C   UNL     1       2.151   8.544  17.786  0.00  0.00    +0.000 A 
BRANCH   9  12
ATOM     12  N   UNL     1      -0.604  10.306  19.653  0.00  0.00    +0.000 N 
ATOM     13  O   UNL     1      -0.721  10.728  20.810  0.00  0.00    +0.000 OA
ATOM     14  O   UNL     1      -1.388  10.563  18.726  0.00  0.00    +0.000 OA
ENDBRANCH   9  12
ENDBRANCH   4   6
BRANCH   1  16
ATOM     15  O   UNL     1       5.486   3.336  16.152  0.00  0.00    +0.000 OA
ATOM     16  C   UNL     1       4.662   4.053  16.712  0.00  0.00    +0.000 C 
BRANCH  16  17
ATOM     17  O   UNL     1       3.317   3.860  16.669  0.00  0.00    +0.000 OA
BRANCH  17  18
ATOM     18  C   UNL     1       2.841   2.698  17.368  0.00  0.00    +0.000 C 
BRANCH  18  19
ATOM     19  C   UNL     1       2.405   2.922  18.800  0.00  0.00    +0.000 A 
ATOM     20  C   UNL     1       3.081   2.377  19.895  0.00  0.00    +0.000 A 
ATOM     21  C   UNL     1       2.682   2.688  21.201  0.00  0.00    +0.000 A 
ATOM     22  C   UNL     1       1.611   3.555  21.426  0.00  0.00    +0.000 A 
ATOM     23  C   UNL     1       0.940   4.117  20.345  0.00  0.00    +0.000 A 
ATOM     24  C   UNL     1       1.337   3.805  19.043  0.00  0.00    +0.000 A 
ENDBRANCH  18  19
ENDBRANCH  17  18
ENDBRANCH  16  17
ENDBRANCH   1  16
TORSDOF 6
ENDMDL
MODEL 7
REMARK VINA RESULT:      -7.1      4.032      6.662
REMARK  Name = 
REMARK  6 active torsions:
REMARK  status: ('A' for Active; 'I' for Inactive)
REMARK    1  A    between atoms: C_2  and  O_3
REMARK    2  A    between atoms: C_2  and  C_11
REMARK    3  A    between atoms: O_3  and  C_4
REMARK    4  A    between atoms: C_4  and  C_5
REMARK    5  A    between atoms: C_14  and  C_15
REMARK    6  A    between atoms: C_18  and  N_19
REMARK                            x       y       z     vdW  Elec       q    Type
REMARK                         _______ _______ _______ _____ _____    ______ ____
ROOT
ATOM      1  C   UNL     1       7.843   5.915  18.196  0.00  0.00    +0.000 C 
ATOM      2  C   UNL     1       7.247   7.135  17.525  0.00  0.00    +0.000 C 
ATOM      3  O   UNL     1       6.622   6.638  16.347  0.00  0.00    +0.000 OA
ATOM      4  C   UNL     1       7.002   5.343  16.261  0.00  0.00    +0.000 C 
ATOM      5  N   UNL     1       7.706   4.816  17.210  0.00  0.00    +0.000 NA
ENDROOT
BRANCH   4   6
ATOM      6  C   UNL     1       6.534   4.657  15.043  0.00  0.00    +0.000 A 
ATOM      7  C   UNL     1       7.247   4.755  13.840  0.00  0.00    +0.000 A 
ATOM      8  C   UNL     1       6.740   4.180  12.671  0.00  0.00    +0.000 A 
ATOM      9  C   UNL     1       5.517   3.498  12.709  0.00  0.00    +0.000 A 
ATOM     10  C   UNL     1       4.815   3.361  13.915  0.00  0.00    +0.000 A 
ATOM     11  C   UNL     1       5.328   3.942  15.080  0.00  0.00    +0.000 A 
BRANCH   9  12
ATOM     12  N   UNL     1       4.958   2.946  11.468  0.00  0.00    +0.000 N 
ATOM     13  O   UNL     1       4.094   3.608  10.879  0.00  0.00    +0.000 OA
ATOM     14  O   UNL     1       5.379   1.842  11.091  0.00  0.00    +0.000 OA
ENDBRANCH   9  12
ENDBRANCH   4   6
BRANCH   1  16
ATOM     15  O   UNL     1       7.799   5.429  20.551  0.00  0.00    +0.000 OA
ATOM     16  C   UNL     1       7.155   5.621  19.525  0.00  0.00    +0.000 C 
BRANCH  16  17
ATOM     17  O   UNL     1       5.805   5.485  19.427  0.00  0.00    +0.000 OA
BRANCH  17  18
ATOM     18  C   UNL     1       5.329   4.133  19.336  0.00  0.00    +0.000 C 
BRANCH  18  19
ATOM     19  C   UNL     1       3.875   3.969  18.947  0.00  0.00    +0.000 A 
ATOM     20  C   UNL     1       3.189   4.896  18.156  0.00  0.00    +0.000 A 
ATOM     21  C   UNL     1       1.870   4.649  17.758  0.00  0.00    +0.000 A 
ATOM     22  C   UNL     1       1.226   3.469  18.135  0.00  0.00    +0.000 A 
ATOM     23  C   UNL     1       1.902   2.531  18.908  0.00  0.00    +0.000 A 
ATOM     24  C   UNL     1       3.217   2.778  19.307  0.00  0.00    +0.000 A 
ENDBRANCH  18  19
ENDBRANCH  17  18
ENDBRANCH  16  17
ENDBRANCH   1  16
TORSDOF 6
ENDMDL
MODEL 8
REMARK VINA RESULT:      -7.1      0.572      1.144
REMARK  Name = 
REMARK  6 active torsions:
REMARK  status: ('A' for Active; 'I' for Inactive)
REMARK    1  A    between atoms: C_2  and  O_3
REMARK    2  A    between atoms: C_2  and  C_11
REMARK    3  A    between atoms: O_3  and  C_4
REMARK    4  A    between atoms: C_4  and  C_5
REMARK    5  A    between atoms: C_14  and  C_15
REMARK    6  A    between atoms: C_18  and  N_19
REMARK                            x       y       z     vdW  Elec       q    Type
REMARK                         _______ _______ _______ _____ _____    ______ ____
ROOT
ATOM      1  C   UNL     1       5.457   5.501  16.832  0.00  0.00    +0.000 C 
ATOM      2  C   UNL     1       5.746   5.294  18.304  0.00  0.00    +0.000 C 
ATOM      3  O   UNL     1       4.712   5.995  18.984  0.00  0.00    +0.000 OA
ATOM      4  C   UNL     1       4.055   6.682  18.022  0.00  0.00    +0.000 C 
ATOM      5  N   UNL     1       4.382   6.521  16.781  0.00  0.00    +0.000 NA
ENDROOT
BRANCH   4   6
ATOM      6  C   UNL     1       2.988   7.563  18.532  0.00  0.00    +0.000 A 
ATOM      7  C   UNL     1       2.431   7.362  19.802  0.00  0.00    +0.000 A 
ATOM      8  C   UNL     1       1.354   8.144  20.232  0.00  0.00    +0.000 A 
ATOM      9  C   UNL     1       0.838   9.134  19.388  0.00  0.00    +0.000 A 
ATOM     10  C   UNL     1       1.412   9.369  18.130  0.00  0.00    +0.000 A 
ATOM     11  C   UNL     1       2.488   8.581  17.706  0.00  0.00    +0.000 A 
BRANCH   9  12
ATOM     12  N   UNL     1      -0.330   9.914  19.818  0.00  0.00    +0.000 N 
ATOM     13  O   UNL     1      -1.060  10.391  18.941  0.00  0.00    +0.000 OA
ATOM     14  O   UNL     1      -0.507  10.057  21.037  0.00  0.00    +0.000 OA
ENDBRANCH   9  12
ENDBRANCH   4   6
BRANCH   1  16
ATOM     15  O   UNL     1       5.148   4.056  14.934  0.00  0.00    +0.000 OA
ATOM     16  C   UNL     1       5.076   4.190  16.151  0.00  0.00    +0.000 C 
BRANCH  16  17
ATOM     17  O   UNL     1       4.560   3.261  16.999  0.00  0.00    +0.000 OA
BRANCH  17  18
ATOM     18  C   UNL     1       3.130   3.281  17.135  0.00  0.00    +0.000 C 
BRANCH  18  19
ATOM     19  C   UNL     1       2.601   3.388  18.549  0.00  0.00    +0.000 A 
ATOM     20  C   UNL     1       1.384   4.000  18.863  0.00  0.00    +0.000 A 
ATOM     21  C   UNL     1       0.906   3.994  20.179  0.00  0.00    +0.000 A 
ATOM     22  C   UNL     1       1.633   3.368  21.192  0.00  0.00    +0.000 A 
ATOM     23  C   UNL     1       2.837   2.740  20.891  0.00  0.00    +0.000 A 
ATOM     24  C   UNL     1       3.315   2.748  19.579  0.00  0.00    +0.000 A 
ENDBRANCH  18  19
ENDBRANCH  17  18
ENDBRANCH  16  17
ENDBRANCH   1  16
TORSDOF 6
ENDMDL
MODEL 9
REMARK VINA RESULT:      -7.1      1.114      1.571
REMARK  Name = 
REMARK  6 active torsions:
REMARK  status: ('A' for Active; 'I' for Inactive)
REMARK    1  A    between atoms: C_2  and  O_3
REMARK    2  A    between atoms: C_2  and  C_11
REMARK    3  A    between atoms: O_3  and  C_4
REMARK    4  A    between atoms: C_4  and  C_5
REMARK    5  A    between atoms: C_14  and  C_15
REMARK    6  A    between atoms: C_18  and  N_19
REMARK                            x       y       z     vdW  Elec       q    Type
REMARK                         _______ _______ _______ _____ _____    ______ ____
ROOT
ATOM      1  C   UNL     1       4.391   5.034  16.907  0.00  0.00    +0.000 C 
ATOM      2  C   UNL     1       5.286   6.253  16.828  0.00  0.00    +0.000 C 
ATOM      3  O   UNL     1       4.610   7.254  17.579  0.00  0.00    +0.000 OA
ATOM      4  C   UNL     1       3.396   6.730  17.860  0.00  0.00    +0.000 C 
ATOM      5  N   UNL     1       3.129   5.510  17.523  0.00  0.00    +0.000 NA
ENDROOT
BRANCH   4   6
ATOM      6  C   UNL     1       2.487   7.655  18.563  0.00  0.00    +0.000 A 
ATOM      7  C   UNL     1       1.996   8.805  17.930  0.00  0.00    +0.000 A 
ATOM      8  C   UNL     1       1.215   9.721  18.639  0.00  0.00    +0.000 A 
ATOM      9  C   UNL     1       0.919   9.482  19.987  0.00  0.00    +0.000 A 
ATOM     10  C   UNL     1       1.373   8.316  20.620  0.00  0.00    +0.000 A 
ATOM     11  C   UNL     1       2.157   7.404  19.903  0.00  0.00    +0.000 A 
BRANCH   9  12
ATOM     12  N   UNL     1       0.147  10.475  20.745  0.00  0.00    +0.000 N 
ATOM     13  O   UNL     1       0.641  10.912  21.792  0.00  0.00    +0.000 OA
ATOM     14  O   UNL     1      -0.960  10.807  20.295  0.00  0.00    +0.000 OA
ENDBRANCH   9  12
ENDBRANCH   4   6
BRANCH   1  16
ATOM     15  O   UNL     1       6.040   4.111  18.395  0.00  0.00    +0.000 OA
ATOM     16  C   UNL     1       5.056   3.907  17.691  0.00  0.00    +0.000 C 
BRANCH  16  17
ATOM     17  O   UNL     1       4.528   2.679  17.442  0.00  0.00    +0.000 OA
BRANCH  17  18
ATOM     18  C   UNL     1       4.090   1.952  18.601  0.00  0.00    +0.000 C 
BRANCH  18  19
ATOM     19  C   UNL     1       2.907   2.539  19.341  0.00  0.00    +0.000 A 
ATOM     20  C   UNL     1       3.035   3.254  20.536  0.00  0.00    +0.000 A 
ATOM     21  C   UNL     1       1.915   3.847  21.131  0.00  0.00    +0.000 A 
ATOM     22  C   UNL     1       0.658   3.742  20.533  0.00  0.00    +0.000 A 
ATOM     23  C   UNL     1       0.519   3.048  19.335  0.00  0.00    +0.000 A 
ATOM     24  C   UNL     1       1.636   2.455  18.743  0.00  0.00    +0.000 A 
ENDBRANCH  18  19
ENDBRANCH  17  18
ENDBRANCH  16  17
ENDBRANCH   1  16
TORSDOF 6
ENDMDL
