MODEL 1
REMARK VINA RESULT:      -8.0      0.000      0.000
REMARK  Name = 
REMARK  9 active torsions:
REMARK  status: ('A' for Active; 'I' for Inactive)
REMARK    1  A    between atoms: C_1  and  C_2
REMARK    2  A    between atoms: C_2  and  C_3
REMARK    3  A    between atoms: C_4  and  C_5
REMARK    4  A    between atoms: C_6  and  C_7
REMARK    5  A    between atoms: N_13  and  N_14
REMARK    6  A    between atoms: C_15  and  C_17
REMARK    7  A    between atoms: C_17  and  N_18
REMARK    8  A    between atoms: N_18  and  C_19
REMARK    9  A    between atoms: C_24  and  C_25
REMARK                            x       y       z     vdW  Elec       q    Type
REMARK                         _______ _______ _______ _____ _____    ______ ____
ROOT
ATOM      1  N   UNL     1       4.281   4.924  18.568  0.00  0.00    +0.000 N 
ATOM      2  C   UNL     1       2.903   4.744  18.499  0.00  0.00    +0.000 C 
ATOM      3  O   UNL     1       2.275   4.245  17.564  0.00  0.00    +0.000 OA
ATOM      4  H   UNL     1       4.668   4.800  19.503  0.00  0.00    +0.000 HD
ENDROOT
BRANCH   1   7
ATOM      5  C   UNL     1       6.950   4.779  16.038  0.00  0.00    +0.000 C 
ATOM      6  C   UNL     1       6.065   5.339  17.132  0.00  0.00    +0.000 C 
ATOM      7  N   UNL     1       5.155   4.526  17.587  0.00  0.00    +0.000 NA
BRANCH   6   8
ATOM      8  C   UNL     1       6.371   6.702  17.661  0.00  0.00    +0.000 C 
ATOM      9  C   UNL     1       7.541   7.327  17.465  0.00  0.00    +0.000 C 
BRANCH   9  10
ATOM     10  C   UNL     1       7.738   8.692  17.904  0.00  0.00    +0.000 C 
ATOM     11  C   UNL     1       8.925   9.192  18.277  0.00  0.00    +0.000 C 
BRANCH  11  12
ATOM     12  C   UNL     1       9.107  10.563  18.786  0.00  0.00    +0.000 A 
ATOM     13  C   UNL     1       9.349  10.739  20.154  0.00  0.00    +0.000 A 
ATOM     14  C   UNL     1       9.488  12.020  20.694  0.00  0.00    +0.000 A 
ATOM     15  C   UNL     1       9.400  13.139  19.871  0.00  0.00    +0.000 A 
ATOM     16  C   UNL     1       9.193  12.977  18.503  0.00  0.00    +0.000 A 
ATOM     17  C   UNL     1       9.058  11.696  17.961  0.00  0.00    +0.000 A 
ENDBRANCH  11  12
ENDBRANCH   9  10
ENDBRANCH   6   8
ENDBRANCH   1   7
BRANCH   2  18
ATOM     18  C   UNL     1       2.191   5.203  19.768  0.00  0.00    +0.000 C 
BRANCH  18  19
ATOM     19  N   UNL     1       2.669   6.537  20.123  0.00  0.00    +0.000 N 
ATOM     20  H   UNL     1       2.730   6.655  21.136  0.00  0.00    +0.000 HD
BRANCH  19  21
ATOM     21  C   UNL     1       2.100   7.663  19.514  0.00  0.00    +0.000 A 
ATOM     22  C   UNL     1       2.365   8.007  18.178  0.00  0.00    +0.000 A 
ATOM     23  C   UNL     1       1.858   9.177  17.609  0.00  0.00    +0.000 A 
ATOM     24  C   UNL     1       1.095  10.045  18.376  0.00  0.00    +0.000 A 
ATOM     25  C   UNL     1       0.838   9.742  19.711  0.00  0.00    +0.000 A 
ATOM     26  C   UNL     1       1.343   8.566  20.294  0.00  0.00    +0.000 A 
ATOM     27  C   UNL     1       1.042   8.300  21.746  0.00  0.00    +0.000 C 
ENDBRANCH  19  21
ENDBRANCH  18  19
ENDBRANCH   2  18
TORSDOF 7
ENDMDL
MODEL 2
REMARK VINA RESULT:      -7.9      0.954      1.462
REMARK  Name = 
REMARK  9 active torsions:
REMARK  status: ('A' for Active; 'I' for Inactive)
REMARK    1  A    between atoms: C_1  and  C_2
REMARK    2  A    between atoms: C_2  and  C_3
REMARK    3  A    between atoms: C_4  and  C_5
REMARK    4  A    between atoms: C_6  and  C_7
REMARK    5  A    between atoms: N_13  and  N_14
REMARK    6  A    between atoms: C_15  and  C_17
REMARK    7  A    between atoms: C_17  and  N_18
REMARK    8  A    between atoms: N_18  and  C_19
REMARK    9  A    between atoms: C_24  and  C_25
REMARK                            x       y       z     vdW  Elec       q    Type
REMARK                         _______ _______ _______ _____ _____    ______ ____
ROOT
ATOM      1  N   UNL     1       3.273   4.752  18.031  0.00  0.00    +0.000 N 
ATOM      2  C   UNL     1       3.069   4.268  19.321  0.00  0.00    +0.000 C 
ATOM      3  O   UNL     1       3.576   3.259  19.813  0.00  0.00    +0.000 OA
ATOM      4  H   UNL     1       3.278   5.769  17.968  0.00  0.00    +0.000 HD
ENDROOT
BRANCH   1   7
ATOM      5  C   UNL     1       6.110   3.958  15.826  0.00  0.00    +0.000 C 
ATOM      6  C   UNL     1       5.285   4.689  16.864  0.00  0.00    +0.000 C 
ATOM      7  N   UNL     1       4.119   4.169  17.120  0.00  0.00    +0.000 NA
BRANCH   6   8
ATOM      8  C   UNL     1       5.904   5.852  17.568  0.00  0.00    +0.000 C 
ATOM      9  C   UNL     1       7.224   6.086  17.592  0.00  0.00    +0.000 C 
BRANCH   9  10
ATOM     10  C   UNL     1       7.755   7.291  18.194  0.00  0.00    +0.000 C 
ATOM     11  C   UNL     1       7.861   8.462  17.550  0.00  0.00    +0.000 C 
BRANCH  11  12
ATOM     12  C   UNL     1       8.464   9.667  18.146  0.00  0.00    +0.000 A 
ATOM     13  C   UNL     1       8.283  10.895  17.494  0.00  0.00    +0.000 A 
ATOM     14  C   UNL     1       8.868  12.060  17.996  0.00  0.00    +0.000 A 
ATOM     15  C   UNL     1       9.629  12.015  19.160  0.00  0.00    +0.000 A 
ATOM     16  C   UNL     1       9.790  10.807  19.837  0.00  0.00    +0.000 A 
ATOM     17  C   UNL     1       9.201   9.642  19.338  0.00  0.00    +0.000 A 
ENDBRANCH  11  12
ENDBRANCH   9  10
ENDBRANCH   6   8
ENDBRANCH   1   7
BRANCH   2  18
ATOM     18  C   UNL     1       2.144   5.164  20.140  0.00  0.00    +0.000 C 
BRANCH  18  19
ATOM     19  N   UNL     1       2.735   6.496  20.233  0.00  0.00    +0.000 N 
ATOM     20  H   UNL     1       2.978   6.732  21.197  0.00  0.00    +0.000 HD
BRANCH  19  21
ATOM     21  C   UNL     1       2.118   7.576  19.587  0.00  0.00    +0.000 A 
ATOM     22  C   UNL     1       2.367   7.884  18.238  0.00  0.00    +0.000 A 
ATOM     23  C   UNL     1       1.810   9.010  17.630  0.00  0.00    +0.000 A 
ATOM     24  C   UNL     1       1.012   9.872  18.369  0.00  0.00    +0.000 A 
ATOM     25  C   UNL     1       0.770   9.605  19.714  0.00  0.00    +0.000 A 
ATOM     26  C   UNL     1       1.325   8.472  20.336  0.00  0.00    +0.000 A 
ATOM     27  C   UNL     1       1.037   8.244  21.797  0.00  0.00    +0.000 C 
ENDBRANCH  19  21
ENDBRANCH  18  19
ENDBRANCH   2  18
TORSDOF 7
ENDMDL
MODEL 3
REMARK VINA RESULT:      -7.9      2.161      3.465
REMARK  Name = 
REMARK  9 active torsions:
REMARK  status: ('A' for Active; 'I' for Inactive)
REMARK    1  A    between atoms: C_1  and  C_2
REMARK    2  A    between atoms: C_2  and  C_3
REMARK    3  A    between atoms: C_4  and  C_5
REMARK    4  A    between atoms: C_6  and  C_7
REMARK    5  A    between atoms: N_13  and  N_14
REMARK    6  A    between atoms: C_15  and  C_17
REMARK    7  A    between atoms: C_17  and  N_18
REMARK    8  A    between atoms: N_18  and  C_19
REMARK    9  A    between atoms: C_24  and  C_25
REMARK                            x       y       z     vdW  Elec       q    Type
REMARK                         _______ _______ _______ _____ _____    ______ ____
ROOT
ATOM      1  N   UNL     1       4.516   5.943  17.492  0.00  0.00    +0.000 N 
ATOM      2  C   UNL     1       4.470   5.608  18.842  0.00  0.00    +0.000 C 
ATOM      3  O   UNL     1       5.077   4.685  19.389  0.00  0.00    +0.000 OA
ATOM      4  H   UNL     1       4.461   6.945  17.312  0.00  0.00    +0.000 HD
ENDROOT
BRANCH   1   7
ATOM      5  C   UNL     1       7.300   4.784  15.382  0.00  0.00    +0.000 C 
ATOM      6  C   UNL     1       6.563   5.561  16.453  0.00  0.00    +0.000 C 
ATOM      7  N   UNL     1       5.294   5.291  16.567  0.00  0.00    +0.000 NA
BRANCH   6   8
ATOM      8  C   UNL     1       7.353   6.469  17.338  0.00  0.00    +0.000 C 
ATOM      9  C   UNL     1       7.512   7.779  17.103  0.00  0.00    +0.000 C 
BRANCH   9  10
ATOM     10  C   UNL     1       8.192   8.630  18.057  0.00  0.00    +0.000 C 
ATOM     11  C   UNL     1       8.682   9.841  17.759  0.00  0.00    +0.000 C 
BRANCH  11  12
ATOM     12  C   UNL     1       9.431  10.674  18.716  0.00  0.00    +0.000 A 
ATOM     13  C   UNL     1       9.119  10.569  20.078  0.00  0.00    +0.000 A 
ATOM     14  C   UNL     1       9.771  11.366  21.022  0.00  0.00    +0.000 A 
ATOM     15  C   UNL     1      10.751  12.268  20.618  0.00  0.00    +0.000 A 
ATOM     16  C   UNL     1      11.095  12.360  19.270  0.00  0.00    +0.000 A 
ATOM     17  C   UNL     1      10.446  11.559  18.326  0.00  0.00    +0.000 A 
ENDBRANCH  11  12
ENDBRANCH   9  10
ENDBRANCH   6   8
ENDBRANCH   1   7
BRANCH   2  18
ATOM     18  C   UNL     1       3.588   6.557  19.648  0.00  0.00    +0.000 C 
BRANCH  18  19
ATOM     19  N   UNL     1       2.199   6.117  19.543  0.00  0.00    +0.000 N 
ATOM     20  H   UNL     1       1.557   6.805  19.942  0.00  0.00    +0.000 HD
BRANCH  19  21
ATOM     21  C   UNL     1       1.852   4.816  19.926  0.00  0.00    +0.000 A 
ATOM     22  C   UNL     1       2.016   4.353  21.243  0.00  0.00    +0.000 A 
ATOM     23  C   UNL     1       1.744   3.029  21.593  0.00  0.00    +0.000 A 
ATOM     24  C   UNL     1       1.327   2.129  20.624  0.00  0.00    +0.000 A 
ATOM     25  C   UNL     1       1.181   2.554  19.305  0.00  0.00    +0.000 A 
ATOM     26  C   UNL     1       1.451   3.885  18.942  0.00  0.00    +0.000 A 
ATOM     27  C   UNL     1       1.287   4.281  17.498  0.00  0.00    +0.000 C 
ENDBRANCH  19  21
ENDBRANCH  18  19
ENDBRANCH   2  18
TORSDOF 7
ENDMDL
MODEL 4
REMARK VINA RESULT:      -7.9      1.901      3.599
REMARK  Name = 
REMARK  9 active torsions:
REMARK  status: ('A' for Active; 'I' for Inactive)
REMARK    1  A    between atoms: C_1  and  C_2
REMARK    2  A    between atoms: C_2  and  C_3
REMARK    3  A    between atoms: C_4  and  C_5
REMARK    4  A    between atoms: C_6  and  C_7
REMARK    5  A    between atoms: N_13  and  N_14
REMARK    6  A    between atoms: C_15  and  C_17
REMARK    7  A    between atoms: C_17  and  N_18
REMARK    8  A    between atoms: N_18  and  C_19
REMARK    9  A    between atoms: C_24  and  C_25
REMARK                            x       y       z     vdW  Elec       q    Type
REMARK                         _______ _______ _______ _____ _____    ______ ____
ROOT
ATOM      1  N   UNL     1       4.062   6.074  17.364  0.00  0.00    +0.000 N 
ATOM      2  C   UNL     1       4.105   5.981  18.752  0.00  0.00    +0.000 C 
ATOM      3  O   UNL     1       4.917   5.338  19.419  0.00  0.00    +0.000 OA
ATOM      4  H   UNL     1       3.769   6.987  17.019  0.00  0.00    +0.000 HD
ENDROOT
BRANCH   1   7
ATOM      5  C   UNL     1       7.052   5.221  15.394  0.00  0.00    +0.000 C 
ATOM      6  C   UNL     1       6.158   5.974  16.356  0.00  0.00    +0.000 C 
ATOM      7  N   UNL     1       4.970   5.470  16.528  0.00  0.00    +0.000 NA
BRANCH   6   8
ATOM      8  C   UNL     1       6.735   7.140  17.092  0.00  0.00    +0.000 C 
ATOM      9  C   UNL     1       7.781   7.045  17.925  0.00  0.00    +0.000 C 
BRANCH   9  10
ATOM     10  C   UNL     1       8.367   8.227  18.521  0.00  0.00    +0.000 C 
ATOM     11  C   UNL     1       8.386   9.430  17.928  0.00  0.00    +0.000 C 
BRANCH  11  12
ATOM     12  C   UNL     1       9.042  10.614  18.510  0.00  0.00    +0.000 A 
ATOM     13  C   UNL     1       8.914  11.841  17.846  0.00  0.00    +0.000 A 
ATOM     14  C   UNL     1       9.550  12.985  18.334  0.00  0.00    +0.000 A 
ATOM     15  C   UNL     1      10.312  12.919  19.497  0.00  0.00    +0.000 A 
ATOM     16  C   UNL     1      10.421  11.713  20.186  0.00  0.00    +0.000 A 
ATOM     17  C   UNL     1       9.781  10.569  19.701  0.00  0.00    +0.000 A 
ENDBRANCH  11  12
ENDBRANCH   9  10
ENDBRANCH   6   8
ENDBRANCH   1   7
BRANCH   2  18
ATOM     18  C   UNL     1       3.025   6.823  19.426  0.00  0.00    +0.000 C 
BRANCH  18  19
ATOM     19  N   UNL     1       1.766   6.084  19.405  0.00  0.00    +0.000 N 
ATOM     20  H   UNL     1       0.992   6.652  19.755  0.00  0.00    +0.000 HD
BRANCH  19  21
ATOM     21  C   UNL     1       1.715   4.784  19.922  0.00  0.00    +0.000 A 
ATOM     22  C   UNL     1       1.977   4.504  21.274  0.00  0.00    +0.000 A 
ATOM     23  C   UNL     1       2.005   3.194  21.758  0.00  0.00    +0.000 A 
ATOM     24  C   UNL     1       1.797   2.131  20.891  0.00  0.00    +0.000 A 
ATOM     25  C   UNL     1       1.561   2.379  19.541  0.00  0.00    +0.000 A 
ATOM     26  C   UNL     1       1.530   3.693  19.043  0.00  0.00    +0.000 A 
ATOM     27  C   UNL     1       1.283   3.896  17.571  0.00  0.00    +0.000 C 
ENDBRANCH  19  21
ENDBRANCH  18  19
ENDBRANCH   2  18
TORSDOF 7
ENDMDL
MODEL 5
REMARK VINA RESULT:      -7.9      2.442      7.699
REMARK  Name = 
REMARK  9 active torsions:
REMARK  status: ('A' for Active; 'I' for Inactive)
REMARK    1  A    between atoms: C_1  and  C_2
REMARK    2  A    between atoms: C_2  and  C_3
REMARK    3  A    between atoms: C_4  and  C_5
REMARK    4  A    between atoms: C_6  and  C_7
REMARK    5  A    between atoms: N_13  and  N_14
REMARK    6  A    between atoms: C_15  and  C_17
REMARK    7  A    between atoms: C_17  and  N_18
REMARK    8  A    between atoms: N_18  and  C_19
REMARK    9  A    between atoms: C_24  and  C_25
REMARK                            x       y       z     vdW  Elec       q    Type
REMARK                         _______ _______ _______ _____ _____    ______ ____
ROOT
ATOM      1  N   UNL     1       7.157   7.518  16.805  0.00  0.00    +0.000 N 
ATOM      2  C   UNL     1       7.920   7.883  17.911  0.00  0.00    +0.000 C 
ATOM      3  O   UNL     1       8.387   7.124  18.762  0.00  0.00    +0.000 OA
ATOM      4  H   UNL     1       7.330   8.087  15.977  0.00  0.00    +0.000 HD
ENDROOT
BRANCH   1   7
ATOM      5  C   UNL     1       5.503   4.248  16.462  0.00  0.00    +0.000 C 
ATOM      6  C   UNL     1       5.714   5.693  16.863  0.00  0.00    +0.000 C 
ATOM      7  N   UNL     1       6.844   6.219  16.486  0.00  0.00    +0.000 NA
BRANCH   6   8
ATOM      8  C   UNL     1       4.593   6.409  17.543  0.00  0.00    +0.000 C 
ATOM      9  C   UNL     1       3.426   5.828  17.857  0.00  0.00    +0.000 C 
BRANCH   9  10
ATOM     10  C   UNL     1       2.422   6.541  18.618  0.00  0.00    +0.000 C 
ATOM     11  C   UNL     1       2.475   7.855  18.876  0.00  0.00    +0.000 C 
BRANCH  11  12
ATOM     12  C   UNL     1       1.485   8.563  19.707  0.00  0.00    +0.000 A 
ATOM     13  C   UNL     1       0.836   9.679  19.165  0.00  0.00    +0.000 A 
ATOM     14  C   UNL     1      -0.082  10.409  19.924  0.00  0.00    +0.000 A 
ATOM     15  C   UNL     1      -0.370  10.025  21.231  0.00  0.00    +0.000 A 
ATOM     16  C   UNL     1       0.243   8.896  21.772  0.00  0.00    +0.000 A 
ATOM     17  C   UNL     1       1.157   8.163  21.011  0.00  0.00    +0.000 A 
ENDBRANCH  11  12
ENDBRANCH   9  10
ENDBRANCH   6   8
ENDBRANCH   1   7
BRANCH   2  18
ATOM     18  C   UNL     1       8.182   9.385  17.967  0.00  0.00    +0.000 C 
BRANCH  18  19
ATOM     19  N   UNL     1       8.988   9.682  19.149  0.00  0.00    +0.000 N 
ATOM     20  H   UNL     1       8.436   9.611  20.006  0.00  0.00    +0.000 HD
BRANCH  19  21
ATOM     21  C   UNL     1       9.805  10.819  19.164  0.00  0.00    +0.000 A 
ATOM     22  C   UNL     1      10.674  11.132  18.105  0.00  0.00    +0.000 A 
ATOM     23  C   UNL     1      11.543  12.223  18.169  0.00  0.00    +0.000 A 
ATOM     24  C   UNL     1      11.582  13.010  19.311  0.00  0.00    +0.000 A 
ATOM     25  C   UNL     1      10.751  12.707  20.386  0.00  0.00    +0.000 A 
ATOM     26  C   UNL     1       9.871  11.612  20.332  0.00  0.00    +0.000 A 
ATOM     27  C   UNL     1       9.006  11.327  21.531  0.00  0.00    +0.000 C 
ENDBRANCH  19  21
ENDBRANCH  18  19
ENDBRANCH   2  18
TORSDOF 7
ENDMDL
MODEL 6
REMARK VINA RESULT:      -7.8      0.836      1.861
REMARK  Name = 
REMARK  9 active torsions:
REMARK  status: ('A' for Active; 'I' for Inactive)
REMARK    1  A    between atoms: C_1  and  C_2
REMARK    2  A    between atoms: C_2  and  C_3
REMARK    3  A    between atoms: C_4  and  C_5
REMARK    4  A    between atoms: C_6  and  C_7
REMARK    5  A    between atoms: N_13  and  N_14
REMARK    6  A    between atoms: C_15  and  C_17
REMARK    7  A    between atoms: C_17  and  N_18
REMARK    8  A    between atoms: N_18  and  C_19
REMARK    9  A    between atoms: C_24  and  C_25
REMARK                            x       y       z     vdW  Elec       q    Type
REMARK                         _______ _______ _______ _____ _____    ______ ____
ROOT
ATOM      1  N   UNL     1       3.714   5.061  17.477  0.00  0.00    +0.000 N 
ATOM      2  C   UNL     1       3.478   4.608  18.772  0.00  0.00    +0.000 C 
ATOM      3  O   UNL     1       4.117   3.742  19.373  0.00  0.00    +0.000 OA
ATOM      4  H   UNL     1       3.531   6.055  17.347  0.00  0.00    +0.000 HD
ENDROOT
BRANCH   1   7
ATOM      5  C   UNL     1       6.900   4.693  15.672  0.00  0.00    +0.000 C 
ATOM      6  C   UNL     1       5.856   5.286  16.593  0.00  0.00    +0.000 C 
ATOM      7  N   UNL     1       4.744   4.614  16.685  0.00  0.00    +0.000 NA
BRANCH   6   8
ATOM      8  C   UNL     1       6.217   6.501  17.383  0.00  0.00    +0.000 C 
ATOM      9  C   UNL     1       7.399   7.127  17.280  0.00  0.00    +0.000 C 
BRANCH   9  10
ATOM     10  C   UNL     1       7.649   8.366  17.985  0.00  0.00    +0.000 C 
ATOM     11  C   UNL     1       8.663   9.195  17.699  0.00  0.00    +0.000 C 
BRANCH  11  12
ATOM     12  C   UNL     1       8.952  10.421  18.464  0.00  0.00    +0.000 A 
ATOM     13  C   UNL     1       8.708  11.660  17.856  0.00  0.00    +0.000 A 
ATOM     14  C   UNL     1       9.002  12.852  18.522  0.00  0.00    +0.000 A 
ATOM     15  C   UNL     1       9.533  12.820  19.808  0.00  0.00    +0.000 A 
ATOM     16  C   UNL     1       9.750  11.596  20.439  0.00  0.00    +0.000 A 
ATOM     17  C   UNL     1       9.451  10.404  19.775  0.00  0.00    +0.000 A 
ENDBRANCH  11  12
ENDBRANCH   9  10
ENDBRANCH   6   8
ENDBRANCH   1   7
BRANCH   2  18
ATOM     18  C   UNL     1       2.321   5.341  19.444  0.00  0.00    +0.000 C 
BRANCH  18  19
ATOM     19  N   UNL     1       2.813   6.605  19.988  0.00  0.00    +0.000 N 
ATOM     20  H   UNL     1       3.305   6.466  20.872  0.00  0.00    +0.000 HD
BRANCH  19  21
ATOM     21  C   UNL     1       1.958   7.713  20.051  0.00  0.00    +0.000 A 
ATOM     22  C   UNL     1       1.116   7.947  21.152  0.00  0.00    +0.000 A 
ATOM     23  C   UNL     1       0.209   9.009  21.166  0.00  0.00    +0.000 A 
ATOM     24  C   UNL     1       0.105   9.845  20.064  0.00  0.00    +0.000 A 
ATOM     25  C   UNL     1       0.909   9.619  18.949  0.00  0.00    +0.000 A 
ATOM     26  C   UNL     1       1.827   8.554  18.925  0.00  0.00    +0.000 A 
ATOM     27  C   UNL     1       2.659   8.354  17.685  0.00  0.00    +0.000 C 
ENDBRANCH  19  21
ENDBRANCH  18  19
ENDBRANCH   2  18
TORSDOF 7
ENDMDL
MODEL 7
REMARK VINA RESULT:      -7.8      2.474      7.669
REMARK  Name = 
REMARK  9 active torsions:
REMARK  status: ('A' for Active; 'I' for Inactive)
REMARK    1  A    between atoms: C_1  and  C_2
REMARK    2  A    between atoms: C_2  and  C_3
REMARK    3  A    between atoms: C_4  and  C_5
REMARK    4  A    between atoms: C_6  and  C_7
REMARK    5  A    between atoms: N_13  and  N_14
REMARK    6  A    between atoms: C_15  and  C_17
REMARK    7  A    between atoms: C_17  and  N_18
REMARK    8  A    between atoms: N_18  and  C_19
REMARK    9  A    between atoms: C_24  and  C_25
REMARK                            x       y       z     vdW  Elec       q    Type
REMARK                         _______ _______ _______ _____ _____    ______ ____
ROOT
ATOM      1  N   UNL     1       7.423   7.664  16.838  0.00  0.00    +0.000 N 
ATOM      2  C   UNL     1       8.037   7.997  18.042  0.00  0.00    +0.000 C 
ATOM      3  O   UNL     1       8.445   7.211  18.898  0.00  0.00    +0.000 OA
ATOM      4  H   UNL     1       7.657   8.289  16.068  0.00  0.00    +0.000 HD
ENDROOT
BRANCH   1   7
ATOM      5  C   UNL     1       5.940   4.408  15.977  0.00  0.00    +0.000 C 
ATOM      6  C   UNL     1       6.026   5.843  16.452  0.00  0.00    +0.000 C 
ATOM      7  N   UNL     1       7.215   6.374  16.416  0.00  0.00    +0.000 NA
BRANCH   6   8
ATOM      8  C   UNL     1       4.758   6.547  16.810  0.00  0.00    +0.000 C 
ATOM      9  C   UNL     1       3.817   6.019  17.607  0.00  0.00    +0.000 C 
BRANCH   9  10
ATOM     10  C   UNL     1       2.663   6.794  18.010  0.00  0.00    +0.000 C 
ATOM     11  C   UNL     1       2.715   8.093  18.338  0.00  0.00    +0.000 C 
BRANCH  11  12
ATOM     12  C   UNL     1       1.549   8.860  18.812  0.00  0.00    +0.000 A 
ATOM     13  C   UNL     1       1.224   8.806  20.173  0.00  0.00    +0.000 A 
ATOM     14  C   UNL     1       0.105   9.482  20.666  0.00  0.00    +0.000 A 
ATOM     15  C   UNL     1      -0.695  10.229  19.807  0.00  0.00    +0.000 A 
ATOM     16  C   UNL     1      -0.364  10.319  18.456  0.00  0.00    +0.000 A 
ATOM     17  C   UNL     1       0.758   9.647  17.963  0.00  0.00    +0.000 A 
ENDBRANCH  11  12
ENDBRANCH   9  10
ENDBRANCH   6   8
ENDBRANCH   1   7
BRANCH   2  18
ATOM     18  C   UNL     1       8.214   9.504  18.209  0.00  0.00    +0.000 C 
BRANCH  18  19
ATOM     19  N   UNL     1       9.538   9.767  18.764  0.00  0.00    +0.000 N 
ATOM     20  H   UNL     1       9.932   8.934  19.205  0.00  0.00    +0.000 HD
BRANCH  19  21
ATOM     21  C   UNL     1       9.746  10.905  19.555  0.00  0.00    +0.000 A 
ATOM     22  C   UNL     1       9.190  11.038  20.838  0.00  0.00    +0.000 A 
ATOM     23  C   UNL     1       9.336  12.211  21.581  0.00  0.00    +0.000 A 
ATOM     24  C   UNL     1      10.020  13.291  21.042  0.00  0.00    +0.000 A 
ATOM     25  C   UNL     1      10.560  13.196  19.762  0.00  0.00    +0.000 A 
ATOM     26  C   UNL     1      10.420  12.019  19.005  0.00  0.00    +0.000 A 
ATOM     27  C   UNL     1      11.014  11.981  17.621  0.00  0.00    +0.000 C 
ENDBRANCH  19  21
ENDBRANCH  18  19
ENDBRANCH   2  18
TORSDOF 7
ENDMDL
MODEL 8
REMARK VINA RESULT:      -7.6      1.367      1.754
REMARK  Name = 
REMARK  9 active torsions:
REMARK  status: ('A' for Active; 'I' for Inactive)
REMARK    1  A    between atoms: C_1  and  C_2
REMARK    2  A    between atoms: C_2  and  C_3
REMARK    3  A    between atoms: C_4  and  C_5
REMARK    4  A    between atoms: C_6  and  C_7
REMARK    5  A    between atoms: N_13  and  N_14
REMARK    6  A    between atoms: C_15  and  C_17
REMARK    7  A    between atoms: C_17  and  N_18
REMARK    8  A    between atoms: N_18  and  C_19
REMARK    9  A    between atoms: C_24  and  C_25
REMARK                            x       y       z     vdW  Elec       q    Type
REMARK                         _______ _______ _______ _____ _____    ______ ____
ROOT
ATOM      1  N   UNL     1       4.750   6.742  17.585  0.00  0.00    +0.000 N 
ATOM      2  C   UNL     1       3.408   6.649  17.943  0.00  0.00    +0.000 C 
ATOM      3  O   UNL     1       2.794   5.617  18.221  0.00  0.00    +0.000 OA
ATOM      4  H   UNL     1       5.212   7.582  17.929  0.00  0.00    +0.000 HD
ENDROOT
BRANCH   1   7
ATOM      5  C   UNL     1       7.709   4.553  17.616  0.00  0.00    +0.000 C 
ATOM      6  C   UNL     1       6.880   5.816  17.730  0.00  0.00    +0.000 C 
ATOM      7  N   UNL     1       5.603   5.667  17.526  0.00  0.00    +0.000 NA
BRANCH   6   8
ATOM      8  C   UNL     1       7.562   7.073  18.162  0.00  0.00    +0.000 C 
ATOM      9  C   UNL     1       7.705   8.147  17.372  0.00  0.00    +0.000 C 
BRANCH   9  10
ATOM     10  C   UNL     1       8.272   9.376  17.883  0.00  0.00    +0.000 C 
ATOM     11  C   UNL     1       9.090   9.435  18.944  0.00  0.00    +0.000 C 
BRANCH  11  12
ATOM     12  C   UNL     1       9.611  10.697  19.500  0.00  0.00    +0.000 A 
ATOM     13  C   UNL     1       9.274  11.035  20.817  0.00  0.00    +0.000 A 
ATOM     14  C   UNL     1       9.709  12.238  21.378  0.00  0.00    +0.000 A 
ATOM     15  C   UNL     1      10.496  13.112  20.634  0.00  0.00    +0.000 A 
ATOM     16  C   UNL     1      10.867  12.774  19.333  0.00  0.00    +0.000 A 
ATOM     17  C   UNL     1      10.437  11.568  18.773  0.00  0.00    +0.000 A 
ENDBRANCH  11  12
ENDBRANCH   9  10
ENDBRANCH   6   8
ENDBRANCH   1   7
BRANCH   2  18
ATOM     18  C   UNL     1       2.726   8.013  18.009  0.00  0.00    +0.000 C 
BRANCH  18  19
ATOM     19  N   UNL     1       2.014   8.126  19.279  0.00  0.00    +0.000 N 
ATOM     20  H   UNL     1       1.662   7.220  19.593  0.00  0.00    +0.000 HD
BRANCH  19  21
ATOM     21  C   UNL     1       1.052   9.130  19.447  0.00  0.00    +0.000 A 
ATOM     22  C   UNL     1       0.511   9.840  18.362  0.00  0.00    +0.000 A 
ATOM     23  C   UNL     1      -0.385  10.894  18.551  0.00  0.00    +0.000 A 
ATOM     24  C   UNL     1      -0.738  11.281  19.835  0.00  0.00    +0.000 A 
ATOM     25  C   UNL     1      -0.196  10.612  20.930  0.00  0.00    +0.000 A 
ATOM     26  C   UNL     1       0.706   9.548  20.752  0.00  0.00    +0.000 A 
ATOM     27  C   UNL     1       1.268   8.872  21.975  0.00  0.00    +0.000 C 
ENDBRANCH  19  21
ENDBRANCH  18  19
ENDBRANCH   2  18
TORSDOF 7
ENDMDL
MODEL 9
REMARK VINA RESULT:      -7.6      1.769      2.828
REMARK  Name = 
REMARK  9 active torsions:
REMARK  status: ('A' for Active; 'I' for Inactive)
REMARK    1  A    between atoms: C_1  and  C_2
REMARK    2  A    between atoms: C_2  and  C_3
REMARK    3  A    between atoms: C_4  and  C_5
REMARK    4  A    between atoms: C_6  and  C_7
REMARK    5  A    between atoms: N_13  and  N_14
REMARK    6  A    between atoms: C_15  and  C_17
REMARK    7  A    between atoms: C_17  and  N_18
REMARK    8  A    between atoms: N_18  and  C_19
REMARK    9  A    between atoms: C_24  and  C_25
REMARK                            x       y       z     vdW  Elec       q    Type
REMARK                         _______ _______ _______ _____ _____    ______ ____
ROOT
ATOM      1  N   UNL     1       3.577   6.461  18.418  0.00  0.00    +0.000 N 
ATOM      2  C   UNL     1       2.731   7.566  18.373  0.00  0.00    +0.000 C 
ATOM      3  O   UNL     1       2.356   8.160  17.360  0.00  0.00    +0.000 OA
ATOM      4  H   UNL     1       3.348   5.796  19.155  0.00  0.00    +0.000 HD
ENDROOT
BRANCH   1   7
ATOM      5  C   UNL     1       5.769   5.310  15.695  0.00  0.00    +0.000 C 
ATOM      6  C   UNL     1       5.334   6.031  16.953  0.00  0.00    +0.000 C 
ATOM      7  N   UNL     1       4.093   5.847  17.304  0.00  0.00    +0.000 NA
BRANCH   6   8
ATOM      8  C   UNL     1       6.365   6.785  17.728  0.00  0.00    +0.000 C 
ATOM      9  C   UNL     1       7.215   7.660  17.173  0.00  0.00    +0.000 C 
BRANCH   9  10
ATOM     10  C   UNL     1       8.114   8.446  17.991  0.00  0.00    +0.000 C 
ATOM     11  C   UNL     1       8.304   9.764  17.836  0.00  0.00    +0.000 C 
BRANCH  11  12
ATOM     12  C   UNL     1       9.270  10.545  18.628  0.00  0.00    +0.000 A 
ATOM     13  C   UNL     1      10.293  11.223  17.953  0.00  0.00    +0.000 A 
ATOM     14  C   UNL     1      11.258  11.945  18.659  0.00  0.00    +0.000 A 
ATOM     15  C   UNL     1      11.205  12.008  20.049  0.00  0.00    +0.000 A 
ATOM     16  C   UNL     1      10.174  11.366  20.732  0.00  0.00    +0.000 A 
ATOM     17  C   UNL     1       9.205  10.648  20.025  0.00  0.00    +0.000 A 
ENDBRANCH  11  12
ENDBRANCH   9  10
ENDBRANCH   6   8
ENDBRANCH   1   7
BRANCH   2  18
ATOM     18  C   UNL     1       2.243   7.984  19.757  0.00  0.00    +0.000 C 
BRANCH  18  19
ATOM     19  N   UNL     1       1.225   9.020  19.608  0.00  0.00    +0.000 N 
ATOM     20  H   UNL     1       1.522   9.745  18.952  0.00  0.00    +0.000 HD
BRANCH  19  21
ATOM     21  C   UNL     1       0.633   9.580  20.747  0.00  0.00    +0.000 A 
ATOM     22  C   UNL     1       0.655   8.936  21.996  0.00  0.00    +0.000 A 
ATOM     23  C   UNL     1      -0.011   9.465  23.104  0.00  0.00    +0.000 A 
ATOM     24  C   UNL     1      -0.740  10.639  22.978  0.00  0.00    +0.000 A 
ATOM     25  C   UNL     1      -0.800  11.284  21.745  0.00  0.00    +0.000 A 
ATOM     26  C   UNL     1      -0.133  10.761  20.623  0.00  0.00    +0.000 A 
ATOM     27  C   UNL     1      -0.247  11.496  19.314  0.00  0.00    +0.000 C 
ENDBRANCH  19  21
ENDBRANCH  18  19
ENDBRANCH   2  18
TORSDOF 7
ENDMDL
