MODEL 1
REMARK VINA RESULT:      -6.6      0.000      0.000
REMARK  Name = 
REMARK  3 active torsions:
REMARK  status: ('A' for Active; 'I' for Inactive)
REMARK    1  A    between atoms: N_4  and  S_5
REMARK    2  A    between atoms: S_5  and  C_8
REMARK    3  A    between atoms: C_8  and  C_9
REMARK                            x       y       z     vdW  Elec       q    Type
REMARK                         _______ _______ _______ _____ _____    ______ ____
ROOT
ATOM      1  S   UNL     1       5.534   4.982  18.947  0.00  0.00    +0.000 S 
ATOM      2  O   UNL     1       5.281   3.558  18.826  0.00  0.00    +0.000 OA
ATOM      3  O   UNL     1       6.596   5.502  19.780  0.00  0.00    +0.000 OA
ENDROOT
BRANCH   1   7
ATOM      4  N   UNL     1       6.681   5.444  15.309  0.00  0.00    +0.000 NA
ATOM      5  C   UNL     1       6.829   5.110  16.529  0.00  0.00    +0.000 C 
ATOM      6  N   UNL     1       7.834   4.380  17.036  0.00  0.00    +0.000 N 
ATOM      7  N   UNL     1       5.859   5.534  17.411  0.00  0.00    +0.000 N 
ATOM      8  H   UNL     1       7.441   5.044  14.754  0.00  0.00    +0.000 HD
ATOM      9  H   UNL     1       8.685   4.373  16.488  0.00  0.00    +0.000 HD
ATOM     10  H   UNL     1       8.030   4.585  18.019  0.00  0.00    +0.000 HD
ATOM     11  H   UNL     1       5.140   6.138  17.023  0.00  0.00    +0.000 HD
ENDBRANCH   1   7
BRANCH   1  12
ATOM     12  C   UNL     1       3.997   5.849  19.316  0.00  0.00    +0.000 C 
BRANCH  12  13
ATOM     13  C   UNL     1       2.881   4.846  19.447  0.00  0.00    +0.000 A 
ATOM     14  C   UNL     1       2.195   4.387  18.313  0.00  0.00    +0.000 A 
ATOM     15  C   UNL     1       1.152   3.470  18.443  0.00  0.00    +0.000 A 
ATOM     16  C   UNL     1       0.780   3.002  19.702  0.00  0.00    +0.000 A 
ATOM     17  C   UNL     1       1.456   3.449  20.835  0.00  0.00    +0.000 A 
ATOM     18  C   UNL     1       2.501   4.366  20.709  0.00  0.00    +0.000 A 
ENDBRANCH  12  13
ENDBRANCH   1  12
TORSDOF 3
ENDMDL
MODEL 2
REMARK VINA RESULT:      -6.6      2.198      2.737
REMARK  Name = 
REMARK  3 active torsions:
REMARK  status: ('A' for Active; 'I' for Inactive)
REMARK    1  A    between atoms: N_4  and  S_5
REMARK    2  A    between atoms: S_5  and  C_8
REMARK    3  A    between atoms: C_8  and  C_9
REMARK                            x       y       z     vdW  Elec       q    Type
REMARK                         _______ _______ _______ _____ _____    ______ ____
ROOT
ATOM      1  S   UNL     1       6.790   4.703  17.575  0.00  0.00    +0.000 S 
ATOM      2  O   UNL     1       8.075   4.187  17.141  0.00  0.00    +0.000 OA
ATOM      3  O   UNL     1       6.307   4.520  18.926  0.00  0.00    +0.000 OA
ENDROOT
BRANCH   1   7
ATOM      4  N   UNL     1       7.753   8.416  17.345  0.00  0.00    +0.000 NA
ATOM      5  C   UNL     1       7.678   7.279  17.915  0.00  0.00    +0.000 C 
ATOM      6  N   UNL     1       8.340   6.898  19.017  0.00  0.00    +0.000 N 
ATOM      7  N   UNL     1       6.840   6.350  17.337  0.00  0.00    +0.000 N 
ATOM      8  H   UNL     1       8.427   9.000  17.845  0.00  0.00    +0.000 HD
ATOM      9  H   UNL     1       8.660   7.651  19.614  0.00  0.00    +0.000 HD
ATOM     10  H   UNL     1       7.850   6.182  19.559  0.00  0.00    +0.000 HD
ATOM     11  H   UNL     1       6.299   6.674  16.541  0.00  0.00    +0.000 HD
ENDBRANCH   1   7
BRANCH   1  12
ATOM     12  C   UNL     1       5.507   4.216  16.404  0.00  0.00    +0.000 C 
BRANCH  12  13
ATOM     13  C   UNL     1       4.199   4.065  17.134  0.00  0.00    +0.000 A 
ATOM     14  C   UNL     1       3.719   2.796  17.484  0.00  0.00    +0.000 A 
ATOM     15  C   UNL     1       2.498   2.661  18.147  0.00  0.00    +0.000 A 
ATOM     16  C   UNL     1       1.745   3.790  18.466  0.00  0.00    +0.000 A 
ATOM     17  C   UNL     1       2.214   5.056  18.125  0.00  0.00    +0.000 A 
ATOM     18  C   UNL     1       3.434   5.194  17.463  0.00  0.00    +0.000 A 
ENDBRANCH  12  13
ENDBRANCH   1  12
TORSDOF 3
ENDMDL
MODEL 3
REMARK VINA RESULT:      -6.5      1.454      2.016
REMARK  Name = 
REMARK  3 active torsions:
REMARK  status: ('A' for Active; 'I' for Inactive)
REMARK    1  A    between atoms: N_4  and  S_5
REMARK    2  A    between atoms: S_5  and  C_8
REMARK    3  A    between atoms: C_8  and  C_9
REMARK                            x       y       z     vdW  Elec       q    Type
REMARK                         _______ _______ _______ _____ _____    ______ ____
ROOT
ATOM      1  S   UNL     1       5.192   4.612  18.056  0.00  0.00    +0.000 S 
ATOM      2  O   UNL     1       6.275   4.253  18.954  0.00  0.00    +0.000 OA
ATOM      3  O   UNL     1       4.435   5.834  18.219  0.00  0.00    +0.000 OA
ENDROOT
BRANCH   1   7
ATOM      4  N   UNL     1       7.424   5.174  14.978  0.00  0.00    +0.000 NA
ATOM      5  C   UNL     1       6.868   5.510  16.075  0.00  0.00    +0.000 C 
ATOM      6  N   UNL     1       7.179   6.574  16.829  0.00  0.00    +0.000 N 
ATOM      7  N   UNL     1       5.854   4.695  16.531  0.00  0.00    +0.000 N 
ATOM      8  H   UNL     1       8.176   5.832  14.766  0.00  0.00    +0.000 HD
ATOM      9  H   UNL     1       7.649   7.328  16.343  0.00  0.00    +0.000 HD
ATOM     10  H   UNL     1       6.392   6.925  17.381  0.00  0.00    +0.000 HD
ATOM     11  H   UNL     1       5.589   3.931  15.918  0.00  0.00    +0.000 HD
ENDBRANCH   1   7
BRANCH   1  12
ATOM     12  C   UNL     1       4.061   3.219  17.874  0.00  0.00    +0.000 C 
BRANCH  12  13
ATOM     13  C   UNL     1       3.096   3.209  19.030  0.00  0.00    +0.000 A 
ATOM     14  C   UNL     1       3.485   2.715  20.282  0.00  0.00    +0.000 A 
ATOM     15  C   UNL     1       2.581   2.694  21.345  0.00  0.00    +0.000 A 
ATOM     16  C   UNL     1       1.281   3.164  21.170  0.00  0.00    +0.000 A 
ATOM     17  C   UNL     1       0.884   3.659  19.930  0.00  0.00    +0.000 A 
ATOM     18  C   UNL     1       1.785   3.683  18.865  0.00  0.00    +0.000 A 
ENDBRANCH  12  13
ENDBRANCH   1  12
TORSDOF 3
ENDMDL
MODEL 4
REMARK VINA RESULT:      -6.5      0.732      1.508
REMARK  Name = 
REMARK  3 active torsions:
REMARK  status: ('A' for Active; 'I' for Inactive)
REMARK    1  A    between atoms: N_4  and  S_5
REMARK    2  A    between atoms: S_5  and  C_8
REMARK    3  A    between atoms: C_8  and  C_9
REMARK                            x       y       z     vdW  Elec       q    Type
REMARK                         _______ _______ _______ _____ _____    ______ ____
ROOT
ATOM      1  S   UNL     1       5.716   4.620  18.986  0.00  0.00    +0.000 S 
ATOM      2  O   UNL     1       5.340   3.307  19.474  0.00  0.00    +0.000 OA
ATOM      3  O   UNL     1       6.764   5.398  19.610  0.00  0.00    +0.000 OA
ENDROOT
BRANCH   1   7
ATOM      4  N   UNL     1       7.468   4.741  15.567  0.00  0.00    +0.000 NA
ATOM      5  C   UNL     1       6.962   5.249  16.620  0.00  0.00    +0.000 C 
ATOM      6  N   UNL     1       7.111   6.513  17.043  0.00  0.00    +0.000 N 
ATOM      7  N   UNL     1       6.194   4.415  17.404  0.00  0.00    +0.000 N 
ATOM      8  H   UNL     1       8.039   5.444  15.093  0.00  0.00    +0.000 HD
ATOM      9  H   UNL     1       7.362   7.183  16.326  0.00  0.00    +0.000 HD
ATOM     10  H   UNL     1       6.326   6.849  17.604  0.00  0.00    +0.000 HD
ATOM     11  H   UNL     1       6.039   3.481  17.039  0.00  0.00    +0.000 HD
ENDBRANCH   1   7
BRANCH   1  12
ATOM     12  C   UNL     1       4.245   5.643  18.780  0.00  0.00    +0.000 C 
BRANCH  12  13
ATOM     13  C   UNL     1       3.023   4.826  19.108  0.00  0.00    +0.000 A 
ATOM     14  C   UNL     1       2.496   4.820  20.407  0.00  0.00    +0.000 A 
ATOM     15  C   UNL     1       1.372   4.049  20.709  0.00  0.00    +0.000 A 
ATOM     16  C   UNL     1       0.765   3.277  19.721  0.00  0.00    +0.000 A 
ATOM     17  C   UNL     1       1.279   3.278  18.426  0.00  0.00    +0.000 A 
ATOM     18  C   UNL     1       2.401   4.048  18.120  0.00  0.00    +0.000 A 
ENDBRANCH  12  13
ENDBRANCH   1  12
TORSDOF 3
ENDMDL
MODEL 5
REMARK VINA RESULT:      -6.5      1.677      2.182
REMARK  Name = 
REMARK  3 active torsions:
REMARK  status: ('A' for Active; 'I' for Inactive)
REMARK    1  A    between atoms: N_4  and  S_5
REMARK    2  A    between atoms: S_5  and  C_8
REMARK    3  A    between atoms: C_8  and  C_9
REMARK                            x       y       z     vdW  Elec       q    Type
REMARK                         _______ _______ _______ _____ _____    ______ ____
ROOT
ATOM      1  S   UNL     1       4.617   5.018  17.447  0.00  0.00    +0.000 S 
ATOM      2  O   UNL     1       4.431   5.750  18.686  0.00  0.00    +0.000 OA
ATOM      3  O   UNL     1       4.636   5.680  16.161  0.00  0.00    +0.000 OA
ENDROOT
BRANCH   1   7
ATOM      4  N   UNL     1       8.330   4.083  17.775  0.00  0.00    +0.000 NA
ATOM      5  C   UNL     1       7.344   4.734  17.297  0.00  0.00    +0.000 C 
ATOM      6  N   UNL     1       7.414   5.851  16.559  0.00  0.00    +0.000 N 
ATOM      7  N   UNL     1       6.086   4.244  17.573  0.00  0.00    +0.000 N 
ATOM      8  H   UNL     1       9.200   4.561  17.531  0.00  0.00    +0.000 HD
ATOM      9  H   UNL     1       8.293   6.002  16.081  0.00  0.00    +0.000 HD
ATOM     10  H   UNL     1       6.622   5.967  15.922  0.00  0.00    +0.000 HD
ATOM     11  H   UNL     1       6.053   3.364  18.079  0.00  0.00    +0.000 HD
ENDBRANCH   1   7
BRANCH   1  12
ATOM     12  C   UNL     1       3.484   3.616  17.388  0.00  0.00    +0.000 C 
BRANCH  12  13
ATOM     13  C   UNL     1       2.800   3.474  18.722  0.00  0.00    +0.000 A 
ATOM     14  C   UNL     1       1.514   3.993  18.924  0.00  0.00    +0.000 A 
ATOM     15  C   UNL     1       0.891   3.871  20.167  0.00  0.00    +0.000 A 
ATOM     16  C   UNL     1       1.545   3.233  21.220  0.00  0.00    +0.000 A 
ATOM     17  C   UNL     1       2.822   2.711  21.029  0.00  0.00    +0.000 A 
ATOM     18  C   UNL     1       3.447   2.830  19.788  0.00  0.00    +0.000 A 
ENDBRANCH  12  13
ENDBRANCH   1  12
TORSDOF 3
ENDMDL
MODEL 6
REMARK VINA RESULT:      -6.4      1.743      2.489
REMARK  Name = 
REMARK  3 active torsions:
REMARK  status: ('A' for Active; 'I' for Inactive)
REMARK    1  A    between atoms: N_4  and  S_5
REMARK    2  A    between atoms: S_5  and  C_8
REMARK    3  A    between atoms: C_8  and  C_9
REMARK                            x       y       z     vdW  Elec       q    Type
REMARK                         _______ _______ _______ _____ _____    ______ ____
ROOT
ATOM      1  S   UNL     1       4.812   5.326  17.495  0.00  0.00    +0.000 S 
ATOM      2  O   UNL     1       5.438   6.187  16.508  0.00  0.00    +0.000 OA
ATOM      3  O   UNL     1       4.616   3.912  17.264  0.00  0.00    +0.000 OA
ENDROOT
BRANCH   1   7
ATOM      4  N   UNL     1       7.656   5.599  20.066  0.00  0.00    +0.000 NA
ATOM      5  C   UNL     1       7.086   5.139  19.023  0.00  0.00    +0.000 C 
ATOM      6  N   UNL     1       7.664   4.405  18.061  0.00  0.00    +0.000 N 
ATOM      7  N   UNL     1       5.748   5.429  18.868  0.00  0.00    +0.000 N 
ATOM      8  H   UNL     1       8.646   5.347  20.049  0.00  0.00    +0.000 HD
ATOM      9  H   UNL     1       8.507   3.916  18.336  0.00  0.00    +0.000 HD
ATOM     10  H   UNL     1       7.014   3.779  17.581  0.00  0.00    +0.000 HD
ATOM     11  H   UNL     1       5.311   5.931  19.635  0.00  0.00    +0.000 HD
ENDBRANCH   1   7
BRANCH   1  12
ATOM     12  C   UNL     1       3.269   6.066  18.063  0.00  0.00    +0.000 C 
BRANCH  12  13
ATOM     13  C   UNL     1       2.463   5.029  18.800  0.00  0.00    +0.000 A 
ATOM     14  C   UNL     1       2.508   4.951  20.199  0.00  0.00    +0.000 A 
ATOM     15  C   UNL     1       1.771   3.978  20.876  0.00  0.00    +0.000 A 
ATOM     16  C   UNL     1       0.984   3.074  20.165  0.00  0.00    +0.000 A 
ATOM     17  C   UNL     1       0.929   3.145  18.775  0.00  0.00    +0.000 A 
ATOM     18  C   UNL     1       1.664   4.116  18.096  0.00  0.00    +0.000 A 
ENDBRANCH  12  13
ENDBRANCH   1  12
TORSDOF 3
ENDMDL
MODEL 7
REMARK VINA RESULT:      -6.4      1.771      2.187
REMARK  Name = 
REMARK  3 active torsions:
REMARK  status: ('A' for Active; 'I' for Inactive)
REMARK    1  A    between atoms: N_4  and  S_5
REMARK    2  A    between atoms: S_5  and  C_8
REMARK    3  A    between atoms: C_8  and  C_9
REMARK                            x       y       z     vdW  Elec       q    Type
REMARK                         _______ _______ _______ _____ _____    ______ ____
ROOT
ATOM      1  S   UNL     1       4.684   5.440  17.458  0.00  0.00    +0.000 S 
ATOM      2  O   UNL     1       5.275   6.367  16.511  0.00  0.00    +0.000 OA
ATOM      3  O   UNL     1       4.520   4.035  17.155  0.00  0.00    +0.000 OA
ENDROOT
BRANCH   1   7
ATOM      4  N   UNL     1       7.555   5.580  20.009  0.00  0.00    +0.000 NA
ATOM      5  C   UNL     1       6.960   5.151  18.967  0.00  0.00    +0.000 C 
ATOM      6  N   UNL     1       7.502   4.404  17.994  0.00  0.00    +0.000 N 
ATOM      7  N   UNL     1       5.633   5.494  18.825  0.00  0.00    +0.000 N 
ATOM      8  H   UNL     1       8.535   5.289  19.982  0.00  0.00    +0.000 HD
ATOM      9  H   UNL     1       8.327   3.880  18.258  0.00  0.00    +0.000 HD
ATOM     10  H   UNL     1       6.824   3.808  17.513  0.00  0.00    +0.000 HD
ATOM     11  H   UNL     1       5.221   6.005  19.600  0.00  0.00    +0.000 HD
ENDBRANCH   1   7
BRANCH   1  12
ATOM     12  C   UNL     1       3.129   6.109  18.082  0.00  0.00    +0.000 C 
BRANCH  12  13
ATOM     13  C   UNL     1       2.404   5.041  18.857  0.00  0.00    +0.000 A 
ATOM     14  C   UNL     1       1.622   4.084  18.196  0.00  0.00    +0.000 A 
ATOM     15  C   UNL     1       0.940   3.106  18.921  0.00  0.00    +0.000 A 
ATOM     16  C   UNL     1       1.030   3.073  20.311  0.00  0.00    +0.000 A 
ATOM     17  C   UNL     1       1.807   4.017  20.979  0.00  0.00    +0.000 A 
ATOM     18  C   UNL     1       2.491   4.996  20.257  0.00  0.00    +0.000 A 
ENDBRANCH  12  13
ENDBRANCH   1  12
TORSDOF 3
ENDMDL
MODEL 8
REMARK VINA RESULT:      -6.4      2.099      2.475
REMARK  Name = 
REMARK  3 active torsions:
REMARK  status: ('A' for Active; 'I' for Inactive)
REMARK    1  A    between atoms: N_4  and  S_5
REMARK    2  A    between atoms: S_5  and  C_8
REMARK    3  A    between atoms: C_8  and  C_9
REMARK                            x       y       z     vdW  Elec       q    Type
REMARK                         _______ _______ _______ _____ _____    ______ ____
ROOT
ATOM      1  S   UNL     1       4.938   5.011  18.144  0.00  0.00    +0.000 S 
ATOM      2  O   UNL     1       4.028   5.905  18.836  0.00  0.00    +0.000 OA
ATOM      3  O   UNL     1       5.493   5.336  16.848  0.00  0.00    +0.000 OA
ENDROOT
BRANCH   1   7
ATOM      4  N   UNL     1       8.047   5.424  20.365  0.00  0.00    +0.000 NA
ATOM      5  C   UNL     1       7.345   5.615  19.318  0.00  0.00    +0.000 C 
ATOM      6  N   UNL     1       7.570   6.535  18.369  0.00  0.00    +0.000 N 
ATOM      7  N   UNL     1       6.247   4.800  19.151  0.00  0.00    +0.000 N 
ATOM      8  H   UNL     1       8.807   6.107  20.392  0.00  0.00    +0.000 HD
ATOM      9  H   UNL     1       8.523   6.874  18.310  0.00  0.00    +0.000 HD
ATOM     10  H   UNL     1       7.217   6.264  17.449  0.00  0.00    +0.000 HD
ATOM     11  H   UNL     1       6.126   4.069  19.845  0.00  0.00    +0.000 HD
ENDBRANCH   1   7
BRANCH   1  12
ATOM     12  C   UNL     1       4.249   3.345  18.106  0.00  0.00    +0.000 C 
BRANCH  12  13
ATOM     13  C   UNL     1       3.188   3.222  19.167  0.00  0.00    +0.000 A 
ATOM     14  C   UNL     1       1.851   3.530  18.880  0.00  0.00    +0.000 A 
ATOM     15  C   UNL     1       0.874   3.429  19.871  0.00  0.00    +0.000 A 
ATOM     16  C   UNL     1       1.221   3.021  21.158  0.00  0.00    +0.000 A 
ATOM     17  C   UNL     1       2.546   2.710  21.454  0.00  0.00    +0.000 A 
ATOM     18  C   UNL     1       3.524   2.809  20.465  0.00  0.00    +0.000 A 
ENDBRANCH  12  13
ENDBRANCH   1  12
TORSDOF 3
ENDMDL
MODEL 9
REMARK VINA RESULT:      -6.4      0.922      1.609
REMARK  Name = 
REMARK  3 active torsions:
REMARK  status: ('A' for Active; 'I' for Inactive)
REMARK    1  A    between atoms: N_4  and  S_5
REMARK    2  A    between atoms: S_5  and  C_8
REMARK    3  A    between atoms: C_8  and  C_9
REMARK                            x       y       z     vdW  Elec       q    Type
REMARK                         _______ _______ _______ _____ _____    ______ ____
ROOT
ATOM      1  S   UNL     1       6.022   4.865  18.766  0.00  0.00    +0.000 S 
ATOM      2  O   UNL     1       5.659   3.460  18.796  0.00  0.00    +0.000 OA
ATOM      3  O   UNL     1       6.742   5.494  19.852  0.00  0.00    +0.000 OA
ENDROOT
BRANCH   1   7
ATOM      4  N   UNL     1       7.456   5.131  15.211  0.00  0.00    +0.000 NA
ATOM      5  C   UNL     1       6.790   4.578  16.146  0.00  0.00    +0.000 C 
ATOM      6  N   UNL     1       5.924   3.564  16.010  0.00  0.00    +0.000 N 
ATOM      7  N   UNL     1       6.975   5.076  17.417  0.00  0.00    +0.000 N 
ATOM      8  H   UNL     1       7.209   4.699  14.318  0.00  0.00    +0.000 HD
ATOM      9  H   UNL     1       6.050   2.993  15.183  0.00  0.00    +0.000 HD
ATOM     10  H   UNL     1       5.841   2.985  16.849  0.00  0.00    +0.000 HD
ATOM     11  H   UNL     1       7.680   5.800  17.512  0.00  0.00    +0.000 HD
ENDBRANCH   1   7
BRANCH   1  12
ATOM     12  C   UNL     1       4.581   5.862  18.339  0.00  0.00    +0.000 C 
BRANCH  12  13
ATOM     13  C   UNL     1       3.333   5.145  18.782  0.00  0.00    +0.000 A 
ATOM     14  C   UNL     1       2.943   5.153  20.129  0.00  0.00    +0.000 A 
ATOM     15  C   UNL     1       1.794   4.473  20.535  0.00  0.00    +0.000 A 
ATOM     16  C   UNL     1       1.023   3.779  19.604  0.00  0.00    +0.000 A 
ATOM     17  C   UNL     1       1.400   3.767  18.263  0.00  0.00    +0.000 A 
ATOM     18  C   UNL     1       2.547   4.445  17.853  0.00  0.00    +0.000 A 
ENDBRANCH  12  13
ENDBRANCH   1  12
TORSDOF 3
ENDMDL
