MODEL 1
REMARK VINA RESULT:      -7.9      0.000      0.000
REMARK  Name = 
REMARK  7 active torsions:
REMARK  status: ('A' for Active; 'I' for Inactive)
REMARK    1  A    between atoms: C_1  and  O_2
REMARK    2  A    between atoms: O_2  and  C_3
REMARK    3  A    between atoms: C_8  and  C_9
REMARK    4  A    between atoms: C_9  and  N_10
REMARK    5  A    between atoms: N_14  and  C_15
REMARK    6  A    between atoms: C_24  and  C_25
REMARK    7  A    between atoms: C_28  and  C_29
REMARK                            x       y       z     vdW  Elec       q    Type
REMARK                         _______ _______ _______ _____ _____    ______ ____
ROOT
ATOM      1  N   UNL     1      -0.364   9.963  19.896  0.00  0.00    +0.000 N 
ATOM      2  C   UNL     1      -0.004   9.073  20.897  0.00  0.00    +0.000 C 
ATOM      3  O   UNL     1      -0.748   8.767  21.828  0.00  0.00    +0.000 OA
ATOM      4  C   UNL     1       1.437   8.570  20.827  0.00  0.00    +0.000 C 
ATOM      5  N   UNL     1       1.881   8.330  19.453  0.00  0.00    +0.000 N 
ATOM      6  C   UNL     1       1.499   9.217  18.448  0.00  0.00    +0.000 C 
ATOM      7  O   UNL     1       1.899   9.146  17.284  0.00  0.00    +0.000 OA
ATOM      8  C   UNL     1       0.622  10.403  18.897  0.00  0.00    +0.000 C 
ENDROOT
BRANCH   5   9
ATOM      9  C   UNL     1       2.703   7.134  19.188  0.00  0.00    +0.000 C 
ATOM     10  C   UNL     1       2.666   6.187  20.398  0.00  0.00    +0.000 C 
ATOM     11  C   UNL     1       1.407   5.346  20.575  0.00  0.00    +0.000 C 
ATOM     12  C   UNL     1       1.387   4.077  19.736  0.00  0.00    +0.000 C 
ATOM     13  C   UNL     1       1.422   4.261  18.223  0.00  0.00    +0.000 C 
ATOM     14  C   UNL     1       2.637   5.012  17.683  0.00  0.00    +0.000 C 
ATOM     15  C   UNL     1       2.499   6.527  17.785  0.00  0.00    +0.000 C 
ENDBRANCH   5   9
BRANCH   8  16
ATOM     16  C   UNL     1       1.478  11.627  19.221  0.00  0.00    +0.000 A 
ATOM     17  C   UNL     1       2.233  12.194  18.172  0.00  0.00    +0.000 A 
ATOM     18  C   UNL     1       2.984  13.359  18.346  0.00  0.00    +0.000 A 
ATOM     19  C   UNL     1       3.002  13.999  19.583  0.00  0.00    +0.000 A 
ATOM     20  C   UNL     1       3.691  15.324  19.740  0.00  0.00    +0.000 C 
ATOM     21  C   UNL     1       2.294  13.426  20.648  0.00  0.00    +0.000 A 
ATOM     22  C   UNL     1       1.543  12.249  20.473  0.00  0.00    +0.000 A 
ENDBRANCH   8  16
BRANCH   1  23
ATOM     23  C   UNL     1      -1.740  10.449  19.800  0.00  0.00    +0.000 C 
BRANCH  23  29
ATOM     24  C   UNL     1      -3.323  11.423  18.031  0.00  0.00    +0.000 A 
ATOM     25  C   UNL     1      -3.855  11.403  16.733  0.00  0.00    +0.000 A 
ATOM     26  C   UNL     1      -3.297  10.588  15.751  0.00  0.00    +0.000 A 
ATOM     27  C   UNL     1      -2.219   9.770  16.069  0.00  0.00    +0.000 A 
ATOM     28  C   UNL     1      -1.718   9.748  17.371  0.00  0.00    +0.000 A 
ATOM     29  C   UNL     1      -2.269  10.557  18.380  0.00  0.00    +0.000 A 
BRANCH  24  31
ATOM     30  C   UNL     1      -5.238  12.251  19.125  0.00  0.00    +0.000 C 
ATOM     31  O   UNL     1      -3.813  12.249  19.011  0.00  0.00    +0.000 OA
ENDBRANCH  24  31
ENDBRANCH  23  29
ENDBRANCH   1  23
TORSDOF 5
ENDMDL
MODEL 2
REMARK VINA RESULT:      -7.8      1.749      7.086
REMARK  Name = 
REMARK  7 active torsions:
REMARK  status: ('A' for Active; 'I' for Inactive)
REMARK    1  A    between atoms: C_1  and  O_2
REMARK    2  A    between atoms: O_2  and  C_3
REMARK    3  A    between atoms: C_8  and  C_9
REMARK    4  A    between atoms: C_9  and  N_10
REMARK    5  A    between atoms: N_14  and  C_15
REMARK    6  A    between atoms: C_24  and  C_25
REMARK    7  A    between atoms: C_28  and  C_29
REMARK                            x       y       z     vdW  Elec       q    Type
REMARK                         _______ _______ _______ _____ _____    ______ ____
ROOT
ATOM      1  N   UNL     1       0.882   9.607  20.281  0.00  0.00    +0.000 N 
ATOM      2  C   UNL     1       0.954  10.466  21.368  0.00  0.00    +0.000 C 
ATOM      3  O   UNL     1       0.963  10.078  22.535  0.00  0.00    +0.000 OA
ATOM      4  C   UNL     1       0.911  11.952  21.020  0.00  0.00    +0.000 C 
ATOM      5  N   UNL     1       1.661  12.265  19.802  0.00  0.00    +0.000 N 
ATOM      6  C   UNL     1       1.602  11.388  18.721  0.00  0.00    +0.000 C 
ATOM      7  O   UNL     1       2.124  11.613  17.627  0.00  0.00    +0.000 OA
ATOM      8  C   UNL     1       0.722  10.137  18.918  0.00  0.00    +0.000 C 
ENDROOT
BRANCH   5   9
ATOM      9  C   UNL     1       2.472  13.497  19.783  0.00  0.00    +0.000 C 
ATOM     10  C   UNL     1       1.823  14.545  18.866  0.00  0.00    +0.000 C 
ATOM     11  C   UNL     1       0.612  15.288  19.418  0.00  0.00    +0.000 C 
ATOM     12  C   UNL     1       0.965  16.468  20.312  0.00  0.00    +0.000 C 
ATOM     13  C   UNL     1       1.737  16.149  21.587  0.00  0.00    +0.000 C 
ATOM     14  C   UNL     1       3.083  15.458  21.381  0.00  0.00    +0.000 C 
ATOM     15  C   UNL     1       2.958  13.952  21.175  0.00  0.00    +0.000 C 
ENDBRANCH   5   9
BRANCH   8  16
ATOM     16  C   UNL     1      -0.697  10.377  18.402  0.00  0.00    +0.000 A 
ATOM     17  C   UNL     1      -1.456  11.392  19.024  0.00  0.00    +0.000 A 
ATOM     18  C   UNL     1      -2.731  11.742  18.574  0.00  0.00    +0.000 A 
ATOM     19  C   UNL     1      -3.290  11.086  17.480  0.00  0.00    +0.000 A 
ATOM     20  C   UNL     1      -4.597  11.550  16.905  0.00  0.00    +0.000 C 
ATOM     21  C   UNL     1      -2.569  10.046  16.878  0.00  0.00    +0.000 A 
ATOM     22  C   UNL     1      -1.287   9.689  17.336  0.00  0.00    +0.000 A 
ENDBRANCH   8  16
BRANCH   1  23
ATOM     23  C   UNL     1       1.002   8.161  20.473  0.00  0.00    +0.000 C 
BRANCH  23  29
ATOM     24  C   UNL     1       2.518   6.202  19.804  0.00  0.00    +0.000 A 
ATOM     25  C   UNL     1       3.526   5.669  18.987  0.00  0.00    +0.000 A 
ATOM     26  C   UNL     1       3.971   6.365  17.867  0.00  0.00    +0.000 A 
ATOM     27  C   UNL     1       3.428   7.611  17.572  0.00  0.00    +0.000 A 
ATOM     28  C   UNL     1       2.462   8.169  18.409  0.00  0.00    +0.000 A 
ATOM     29  C   UNL     1       2.001   7.487  19.549  0.00  0.00    +0.000 A 
BRANCH  24  31
ATOM     30  C   UNL     1       1.208   4.394  20.556  0.00  0.00    +0.000 C 
ATOM     31  O   UNL     1       2.018   5.524  20.888  0.00  0.00    +0.000 OA
ENDBRANCH  24  31
ENDBRANCH  23  29
ENDBRANCH   1  23
TORSDOF 5
ENDMDL
MODEL 3
REMARK VINA RESULT:      -7.8      3.815      6.642
REMARK  Name = 
REMARK  7 active torsions:
REMARK  status: ('A' for Active; 'I' for Inactive)
REMARK    1  A    between atoms: C_1  and  O_2
REMARK    2  A    between atoms: O_2  and  C_3
REMARK    3  A    between atoms: C_8  and  C_9
REMARK    4  A    between atoms: C_9  and  N_10
REMARK    5  A    between atoms: N_14  and  C_15
REMARK    6  A    between atoms: C_24  and  C_25
REMARK    7  A    between atoms: C_28  and  C_29
REMARK                            x       y       z     vdW  Elec       q    Type
REMARK                         _______ _______ _______ _____ _____    ______ ____
ROOT
ATOM      1  N   UNL     1      -3.225  13.138  20.636  0.00  0.00    +0.000 N 
ATOM      2  C   UNL     1      -2.469  14.298  20.551  0.00  0.00    +0.000 C 
ATOM      3  O   UNL     1      -2.896  15.407  20.869  0.00  0.00    +0.000 OA
ATOM      4  C   UNL     1      -1.086  14.123  19.927  0.00  0.00    +0.000 C 
ATOM      5  N   UNL     1      -0.444  12.871  20.329  0.00  0.00    +0.000 N 
ATOM      6  C   UNL     1      -1.213  11.712  20.432  0.00  0.00    +0.000 C 
ATOM      7  O   UNL     1      -0.743  10.599  20.674  0.00  0.00    +0.000 OA
ATOM      8  C   UNL     1      -2.710  11.869  20.100  0.00  0.00    +0.000 C 
ENDROOT
BRANCH   5   9
ATOM      9  C   UNL     1       1.000  12.896  20.631  0.00  0.00    +0.000 C 
ATOM     10  C   UNL     1       1.801  12.352  19.437  0.00  0.00    +0.000 C 
ATOM     11  C   UNL     1       1.980  13.284  18.246  0.00  0.00    +0.000 C 
ATOM     12  C   UNL     1       3.123  14.276  18.402  0.00  0.00    +0.000 C 
ATOM     13  C   UNL     1       3.010  15.269  19.554  0.00  0.00    +0.000 C 
ATOM     14  C   UNL     1       2.899  14.647  20.944  0.00  0.00    +0.000 C 
ATOM     15  C   UNL     1       1.482  14.204  21.292  0.00  0.00    +0.000 C 
ENDBRANCH   5   9
BRANCH   8  16
ATOM     16  C   UNL     1      -2.983  11.545  18.631  0.00  0.00    +0.000 A 
ATOM     17  C   UNL     1      -1.961  10.896  17.904  0.00  0.00    +0.000 A 
ATOM     18  C   UNL     1      -2.142  10.486  16.581  0.00  0.00    +0.000 A 
ATOM     19  C   UNL     1      -3.357  10.712  15.939  0.00  0.00    +0.000 A 
ATOM     20  C   UNL     1      -3.606  10.152  14.568  0.00  0.00    +0.000 C 
ATOM     21  C   UNL     1      -4.366  11.395  16.631  0.00  0.00    +0.000 A 
ATOM     22  C   UNL     1      -4.182  11.813  17.962  0.00  0.00    +0.000 A 
ENDBRANCH   8  16
BRANCH   1  23
ATOM     23  C   UNL     1      -4.532  13.155  21.294  0.00  0.00    +0.000 C 
BRANCH  23  29
ATOM     24  C   UNL     1      -6.663  12.332  20.126  0.00  0.00    +0.000 A 
ATOM     25  C   UNL     1      -7.663  12.505  19.156  0.00  0.00    +0.000 A 
ATOM     26  C   UNL     1      -7.773  13.705  18.461  0.00  0.00    +0.000 A 
ATOM     27  C   UNL     1      -6.869  14.731  18.712  0.00  0.00    +0.000 A 
ATOM     28  C   UNL     1      -5.842  14.547  19.638  0.00  0.00    +0.000 A 
ATOM     29  C   UNL     1      -5.707  13.341  20.348  0.00  0.00    +0.000 A 
BRANCH  24  31
ATOM     30  C   UNL     1      -7.723  10.361  20.864  0.00  0.00    +0.000 C 
ATOM     31  O   UNL     1      -6.553  11.182  20.867  0.00  0.00    +0.000 OA
ENDBRANCH  24  31
ENDBRANCH  23  29
ENDBRANCH   1  23
TORSDOF 5
ENDMDL
MODEL 4
REMARK VINA RESULT:      -7.7      3.385      7.667
REMARK  Name = 
REMARK  7 active torsions:
REMARK  status: ('A' for Active; 'I' for Inactive)
REMARK    1  A    between atoms: C_1  and  O_2
REMARK    2  A    between atoms: O_2  and  C_3
REMARK    3  A    between atoms: C_8  and  C_9
REMARK    4  A    between atoms: C_9  and  N_10
REMARK    5  A    between atoms: N_14  and  C_15
REMARK    6  A    between atoms: C_24  and  C_25
REMARK    7  A    between atoms: C_28  and  C_29
REMARK                            x       y       z     vdW  Elec       q    Type
REMARK                         _______ _______ _______ _____ _____    ______ ____
ROOT
ATOM      1  N   UNL     1       1.357  13.460  20.358  0.00  0.00    +0.000 N 
ATOM      2  C   UNL     1       1.001  13.941  21.610  0.00  0.00    +0.000 C 
ATOM      3  O   UNL     1       1.732  14.661  22.289  0.00  0.00    +0.000 OA
ATOM      4  C   UNL     1      -0.332  13.424  22.145  0.00  0.00    +0.000 C 
ATOM      5  N   UNL     1      -1.351  13.310  21.100  0.00  0.00    +0.000 N 
ATOM      6  C   UNL     1      -0.983  12.846  19.838  0.00  0.00    +0.000 C 
ATOM      7  O   UNL     1      -1.786  12.632  18.927  0.00  0.00    +0.000 OA
ATOM      8  C   UNL     1       0.505  12.483  19.664  0.00  0.00    +0.000 C 
ENDROOT
BRANCH   5   9
ATOM      9  C   UNL     1      -2.730  13.719  21.426  0.00  0.00    +0.000 C 
ATOM     10  C   UNL     1      -3.498  12.541  22.047  0.00  0.00    +0.000 C 
ATOM     11  C   UNL     1      -3.195  12.213  23.504  0.00  0.00    +0.000 C 
ATOM     12  C   UNL     1      -3.952  13.074  24.504  0.00  0.00    +0.000 C 
ATOM     13  C   UNL     1      -3.670  14.572  24.462  0.00  0.00    +0.000 C 
ATOM     14  C   UNL     1      -3.962  15.255  23.128  0.00  0.00    +0.000 C 
ATOM     15  C   UNL     1      -2.833  15.095  22.114  0.00  0.00    +0.000 C 
ENDBRANCH   5   9
BRANCH   8  16
ATOM     16  C   UNL     1       0.743  10.997  19.937  0.00  0.00    +0.000 A 
ATOM     17  C   UNL     1       1.204  10.201  18.866  0.00  0.00    +0.000 A 
ATOM     18  C   UNL     1       1.527   8.853  19.034  0.00  0.00    +0.000 A 
ATOM     19  C   UNL     1       1.402   8.254  20.285  0.00  0.00    +0.000 A 
ATOM     20  C   UNL     1       1.879   6.848  20.504  0.00  0.00    +0.000 C 
ATOM     21  C   UNL     1       0.903   9.019  21.349  0.00  0.00    +0.000 A 
ATOM     22  C   UNL     1       0.572  10.375  21.179  0.00  0.00    +0.000 A 
ENDBRANCH   8  16
BRANCH   1  23
ATOM     23  C   UNL     1       2.568  13.946  19.697  0.00  0.00    +0.000 C 
BRANCH  23  29
ATOM     24  C   UNL     1       3.308  15.593  17.874  0.00  0.00    +0.000 A 
ATOM     25  C   UNL     1       3.118  16.790  17.167  0.00  0.00    +0.000 A 
ATOM     26  C   UNL     1       1.949  17.528  17.325  0.00  0.00    +0.000 A 
ATOM     27  C   UNL     1       0.972  17.086  18.211  0.00  0.00    +0.000 A 
ATOM     28  C   UNL     1       1.177  15.923  18.955  0.00  0.00    +0.000 A 
ATOM     29  C   UNL     1       2.353  15.165  18.816  0.00  0.00    +0.000 A 
BRANCH  24  31
ATOM     30  C   UNL     1       5.633  15.396  18.198  0.00  0.00    +0.000 C 
ATOM     31  O   UNL     1       4.424  14.813  17.707  0.00  0.00    +0.000 OA
ENDBRANCH  24  31
ENDBRANCH  23  29
ENDBRANCH   1  23
TORSDOF 5
ENDMDL
MODEL 5
REMARK VINA RESULT:      -7.6      3.572      7.675
REMARK  Name = 
REMARK  7 active torsions:
REMARK  status: ('A' for Active; 'I' for Inactive)
REMARK    1  A    between atoms: C_1  and  O_2
REMARK    2  A    between atoms: O_2  and  C_3
REMARK    3  A    between atoms: C_8  and  C_9
REMARK    4  A    between atoms: C_9  and  N_10
REMARK    5  A    between atoms: N_14  and  C_15
REMARK    6  A    between atoms: C_24  and  C_25
REMARK    7  A    between atoms: C_28  and  C_29
REMARK                            x       y       z     vdW  Elec       q    Type
REMARK                         _______ _______ _______ _____ _____    ______ ____
ROOT
ATOM      1  N   UNL     1      -0.184  11.917  21.186  0.00  0.00    +0.000 N 
ATOM      2  C   UNL     1      -0.811  11.435  22.326  0.00  0.00    +0.000 C 
ATOM      3  O   UNL     1      -0.236  10.762  23.180  0.00  0.00    +0.000 OA
ATOM      4  C   UNL     1      -2.312  11.706  22.401  0.00  0.00    +0.000 C 
ATOM      5  N   UNL     1      -2.670  13.029  21.886  0.00  0.00    +0.000 N 
ATOM      6  C   UNL     1      -2.021  13.517  20.752  0.00  0.00    +0.000 C 
ATOM      7  O   UNL     1      -2.320  14.576  20.197  0.00  0.00    +0.000 OA
ATOM      8  C   UNL     1      -0.961  12.585  20.132  0.00  0.00    +0.000 C 
ENDROOT
BRANCH   5   9
ATOM      9  C   UNL     1      -3.695  13.803  22.611  0.00  0.00    +0.000 C 
ATOM     10  C   UNL     1      -4.875  14.122  21.679  0.00  0.00    +0.000 C 
ATOM     11  C   UNL     1      -5.855  12.990  21.396  0.00  0.00    +0.000 C 
ATOM     12  C   UNL     1      -6.914  12.804  22.472  0.00  0.00    +0.000 C 
ATOM     13  C   UNL     1      -6.413  12.435  23.864  0.00  0.00    +0.000 C 
ATOM     14  C   UNL     1      -5.449  13.435  24.498  0.00  0.00    +0.000 C 
ATOM     15  C   UNL     1      -4.010  13.264  24.022  0.00  0.00    +0.000 C 
ENDBRANCH   5   9
BRANCH   8  16
ATOM     16  C   UNL     1      -1.570  11.719  19.029  0.00  0.00    +0.000 A 
ATOM     17  C   UNL     1      -2.905  11.983  18.652  0.00  0.00    +0.000 A 
ATOM     18  C   UNL     1      -3.525  11.302  17.602  0.00  0.00    +0.000 A 
ATOM     19  C   UNL     1      -2.826  10.332  16.889  0.00  0.00    +0.000 A 
ATOM     20  C   UNL     1      -3.437   9.697  15.674  0.00  0.00    +0.000 C 
ATOM     21  C   UNL     1      -1.514  10.026  17.278  0.00  0.00    +0.000 A 
ATOM     22  C   UNL     1      -0.892  10.708  18.340  0.00  0.00    +0.000 A 
ENDBRANCH   8  16
BRANCH   1  23
ATOM     23  C   UNL     1       1.266  11.800  21.036  0.00  0.00    +0.000 C 
BRANCH  23  29
ATOM     24  C   UNL     1       2.130  14.199  20.755  0.00  0.00    +0.000 A 
ATOM     25  C   UNL     1       2.613  15.229  19.934  0.00  0.00    +0.000 A 
ATOM     26  C   UNL     1       2.953  14.977  18.608  0.00  0.00    +0.000 A 
ATOM     27  C   UNL     1       2.788  13.698  18.088  0.00  0.00    +0.000 A 
ATOM     28  C   UNL     1       2.260  12.681  18.885  0.00  0.00    +0.000 A 
ATOM     29  C   UNL     1       1.904  12.914  20.225  0.00  0.00    +0.000 A 
BRANCH  24  31
ATOM     30  C   UNL     1       0.828  15.386  22.319  0.00  0.00    +0.000 C 
ATOM     31  O   UNL     1       1.832  14.397  22.080  0.00  0.00    +0.000 OA
ENDBRANCH  24  31
ENDBRANCH  23  29
ENDBRANCH   1  23
TORSDOF 5
ENDMDL
MODEL 6
REMARK VINA RESULT:      -7.6      6.722      9.261
REMARK  Name = 
REMARK  7 active torsions:
REMARK  status: ('A' for Active; 'I' for Inactive)
REMARK    1  A    between atoms: C_1  and  O_2
REMARK    2  A    between atoms: O_2  and  C_3
REMARK    3  A    between atoms: C_8  and  C_9
REMARK    4  A    between atoms: C_9  and  N_10
REMARK    5  A    between atoms: N_14  and  C_15
REMARK    6  A    between atoms: C_24  and  C_25
REMARK    7  A    between atoms: C_28  and  C_29
REMARK                            x       y       z     vdW  Elec       q    Type
REMARK                         _______ _______ _______ _____ _____    ______ ____
ROOT
ATOM      1  N   UNL     1       6.476  15.517  20.235  0.00  0.00    +0.000 N 
ATOM      2  C   UNL     1       6.740  14.820  19.065  0.00  0.00    +0.000 C 
ATOM      3  O   UNL     1       5.966  14.786  18.109  0.00  0.00    +0.000 OA
ATOM      4  C   UNL     1       8.026  13.996  19.080  0.00  0.00    +0.000 C 
ATOM      5  N   UNL     1       9.119  14.676  19.778  0.00  0.00    +0.000 N 
ATOM      6  C   UNL     1       8.844  15.392  20.942  0.00  0.00    +0.000 C 
ATOM      7  O   UNL     1       9.711  15.917  21.643  0.00  0.00    +0.000 OA
ATOM      8  C   UNL     1       7.370  15.395  21.396  0.00  0.00    +0.000 C 
ENDROOT
BRANCH   5   9
ATOM      9  C   UNL     1      10.473  14.589  19.199  0.00  0.00    +0.000 C 
ATOM     10  C   UNL     1      11.399  13.795  20.134  0.00  0.00    +0.000 C 
ATOM     11  C   UNL     1      11.245  12.279  20.132  0.00  0.00    +0.000 C 
ATOM     12  C   UNL     1      11.990  11.582  19.002  0.00  0.00    +0.000 C 
ATOM     13  C   UNL     1      11.560  11.936  17.583  0.00  0.00    +0.000 C 
ATOM     14  C   UNL     1      11.677  13.413  17.214  0.00  0.00    +0.000 C 
ATOM     15  C   UNL     1      10.494  14.247  17.695  0.00  0.00    +0.000 C 
ENDBRANCH   5   9
BRANCH   8  16
ATOM     16  C   UNL     1       7.102  14.270  22.396  0.00  0.00    +0.000 A 
ATOM     17  C   UNL     1       6.218  14.541  23.463  0.00  0.00    +0.000 A 
ATOM     18  C   UNL     1       5.846  13.558  24.382  0.00  0.00    +0.000 A 
ATOM     19  C   UNL     1       6.347  12.264  24.263  0.00  0.00    +0.000 A 
ATOM     20  C   UNL     1       5.844  11.171  25.160  0.00  0.00    +0.000 C 
ATOM     21  C   UNL     1       7.260  11.989  23.235  0.00  0.00    +0.000 A 
ATOM     22  C   UNL     1       7.639  12.981  22.313  0.00  0.00    +0.000 A 
ENDBRANCH   8  16
BRANCH   1  23
ATOM     23  C   UNL     1       5.322  16.412  20.316  0.00  0.00    +0.000 C 
BRANCH  23  29
ATOM     24  C   UNL     1       2.989  16.131  19.284  0.00  0.00    +0.000 A 
ATOM     25  C   UNL     1       1.721  15.530  19.291  0.00  0.00    +0.000 A 
ATOM     26  C   UNL     1       1.449  14.462  20.140  0.00  0.00    +0.000 A 
ATOM     27  C   UNL     1       2.435  14.003  21.006  0.00  0.00    +0.000 A 
ATOM     28  C   UNL     1       3.682  14.629  21.040  0.00  0.00    +0.000 A 
ATOM     29  C   UNL     1       3.978  15.714  20.196  0.00  0.00    +0.000 A 
BRANCH  24  31
ATOM     30  C   UNL     1       2.887  16.949  17.077  0.00  0.00    +0.000 C 
ATOM     31  O   UNL     1       3.312  17.153  18.427  0.00  0.00    +0.000 OA
ENDBRANCH  24  31
ENDBRANCH  23  29
ENDBRANCH   1  23
TORSDOF 5
ENDMDL
MODEL 7
REMARK VINA RESULT:      -7.5      1.843      6.001
REMARK  Name = 
REMARK  7 active torsions:
REMARK  status: ('A' for Active; 'I' for Inactive)
REMARK    1  A    between atoms: C_1  and  O_2
REMARK    2  A    between atoms: O_2  and  C_3
REMARK    3  A    between atoms: C_8  and  C_9
REMARK    4  A    between atoms: C_9  and  N_10
REMARK    5  A    between atoms: N_14  and  C_15
REMARK    6  A    between atoms: C_24  and  C_25
REMARK    7  A    between atoms: C_28  and  C_29
REMARK                            x       y       z     vdW  Elec       q    Type
REMARK                         _______ _______ _______ _____ _____    ______ ____
ROOT
ATOM      1  N   UNL     1      -1.007  11.077  19.215  0.00  0.00    +0.000 N 
ATOM      2  C   UNL     1      -0.634  12.287  18.649  0.00  0.00    +0.000 C 
ATOM      3  O   UNL     1      -1.310  12.874  17.805  0.00  0.00    +0.000 OA
ATOM      4  C   UNL     1       0.742  12.800  19.068  0.00  0.00    +0.000 C 
ATOM      5  N   UNL     1       1.029  12.545  20.481  0.00  0.00    +0.000 N 
ATOM      6  C   UNL     1       0.634  11.335  21.049  0.00  0.00    +0.000 C 
ATOM      7  O   UNL     1       0.913  10.997  22.201  0.00  0.00    +0.000 OA
ATOM      8  C   UNL     1      -0.086  10.352  20.104  0.00  0.00    +0.000 C 
ENDROOT
BRANCH   5   9
ATOM      9  C   UNL     1       1.712  13.601  21.252  0.00  0.00    +0.000 C 
ATOM     10  C   UNL     1       3.154  13.775  20.752  0.00  0.00    +0.000 C 
ATOM     11  C   UNL     1       3.342  14.536  19.445  0.00  0.00    +0.000 C 
ATOM     12  C   UNL     1       3.344  16.049  19.604  0.00  0.00    +0.000 C 
ATOM     13  C   UNL     1       2.066  16.679  20.144  0.00  0.00    +0.000 C 
ATOM     14  C   UNL     1       1.626  16.188  21.522  0.00  0.00    +0.000 C 
ATOM     15  C   UNL     1       0.862  14.869  21.472  0.00  0.00    +0.000 C 
ENDBRANCH   5   9
BRANCH   8  16
ATOM     16  C   UNL     1       0.905   9.375  19.471  0.00  0.00    +0.000 A 
ATOM     17  C   UNL     1       1.383   8.316  20.274  0.00  0.00    +0.000 A 
ATOM     18  C   UNL     1       2.226   7.326  19.767  0.00  0.00    +0.000 A 
ATOM     19  C   UNL     1       2.621   7.361  18.431  0.00  0.00    +0.000 A 
ATOM     20  C   UNL     1       3.411   6.228  17.845  0.00  0.00    +0.000 C 
ATOM     21  C   UNL     1       2.191   8.429  17.631  0.00  0.00    +0.000 A 
ATOM     22  C   UNL     1       1.346   9.429  18.144  0.00  0.00    +0.000 A 
ENDBRANCH   8  16
BRANCH   1  23
ATOM     23  C   UNL     1      -2.337  10.522  18.963  0.00  0.00    +0.000 C 
BRANCH  23  29
ATOM     24  C   UNL     1      -3.866  11.160  17.004  0.00  0.00    +0.000 A 
ATOM     25  C   UNL     1      -4.258  11.001  15.666  0.00  0.00    +0.000 A 
ATOM     26  C   UNL     1      -3.489  10.243  14.788  0.00  0.00    +0.000 A 
ATOM     27  C   UNL     1      -2.336   9.617  15.250  0.00  0.00    +0.000 A 
ATOM     28  C   UNL     1      -1.968   9.729  16.591  0.00  0.00    +0.000 A 
ATOM     29  C   UNL     1      -2.733  10.485  17.497  0.00  0.00    +0.000 A 
BRANCH  24  31
ATOM     30  C   UNL     1      -5.836  11.400  18.274  0.00  0.00    +0.000 C 
ATOM     31  O   UNL     1      -4.570  11.940  17.886  0.00  0.00    +0.000 OA
ENDBRANCH  24  31
ENDBRANCH  23  29
ENDBRANCH   1  23
TORSDOF 5
ENDMDL
MODEL 8
REMARK VINA RESULT:      -7.4      3.762      8.201
REMARK  Name = 
REMARK  7 active torsions:
REMARK  status: ('A' for Active; 'I' for Inactive)
REMARK    1  A    between atoms: C_1  and  O_2
REMARK    2  A    between atoms: O_2  and  C_3
REMARK    3  A    between atoms: C_8  and  C_9
REMARK    4  A    between atoms: C_9  and  N_10
REMARK    5  A    between atoms: N_14  and  C_15
REMARK    6  A    between atoms: C_24  and  C_25
REMARK    7  A    between atoms: C_28  and  C_29
REMARK                            x       y       z     vdW  Elec       q    Type
REMARK                         _______ _______ _______ _____ _____    ______ ____
ROOT
ATOM      1  N   UNL     1      -0.698  12.517  21.731  0.00  0.00    +0.000 N 
ATOM      2  C   UNL     1      -1.147  11.788  22.822  0.00  0.00    +0.000 C 
ATOM      3  O   UNL     1      -0.431  11.019  23.461  0.00  0.00    +0.000 OA
ATOM      4  C   UNL     1      -2.640  11.921  23.118  0.00  0.00    +0.000 C 
ATOM      5  N   UNL     1      -3.134  13.283  22.908  0.00  0.00    +0.000 N 
ATOM      6  C   UNL     1      -2.663  14.019  21.821  0.00  0.00    +0.000 C 
ATOM      7  O   UNL     1      -3.089  15.134  21.514  0.00  0.00    +0.000 OA
ATOM      8  C   UNL     1      -1.639  13.302  20.918  0.00  0.00    +0.000 C 
ENDROOT
BRANCH   5   9
ATOM      9  C   UNL     1      -4.101  13.829  23.879  0.00  0.00    +0.000 C 
ATOM     10  C   UNL     1      -3.359  14.478  25.058  0.00  0.00    +0.000 C 
ATOM     11  C   UNL     1      -2.749  15.852  24.814  0.00  0.00    +0.000 C 
ATOM     12  C   UNL     1      -3.734  17.003  24.960  0.00  0.00    +0.000 C 
ATOM     13  C   UNL     1      -4.913  17.015  23.994  0.00  0.00    +0.000 C 
ATOM     14  C   UNL     1      -5.813  15.782  24.043  0.00  0.00    +0.000 C 
ATOM     15  C   UNL     1      -5.266  14.609  23.236  0.00  0.00    +0.000 C 
ENDBRANCH   5   9
BRANCH   8  16
ATOM     16  C   UNL     1      -2.334  12.605  19.747  0.00  0.00    +0.000 A 
ATOM     17  C   UNL     1      -3.737  12.462  19.810  0.00  0.00    +0.000 A 
ATOM     18  C   UNL     1      -4.471  11.912  18.758  0.00  0.00    +0.000 A 
ATOM     19  C   UNL     1      -3.824  11.488  17.600  0.00  0.00    +0.000 A 
ATOM     20  C   UNL     1      -4.618  11.027  16.413  0.00  0.00    +0.000 C 
ATOM     21  C   UNL     1      -2.427  11.581  17.539  0.00  0.00    +0.000 A 
ATOM     22  C   UNL     1      -1.686  12.129  18.602  0.00  0.00    +0.000 A 
ENDBRANCH   8  16
BRANCH   1  23
ATOM     23  C   UNL     1       0.726  12.544  21.396  0.00  0.00    +0.000 C 
BRANCH  23  29
ATOM     24  C   UNL     1       1.699  12.103  19.064  0.00  0.00    +0.000 A 
ATOM     25  C   UNL     1       1.935  11.231  17.990  0.00  0.00    +0.000 A 
ATOM     26  C   UNL     1       1.678   9.869  18.115  0.00  0.00    +0.000 A 
ATOM     27  C   UNL     1       1.157   9.374  19.305  0.00  0.00    +0.000 A 
ATOM     28  C   UNL     1       0.872  10.243  20.359  0.00  0.00    +0.000 A 
ATOM     29  C   UNL     1       1.118  11.623  20.254  0.00  0.00    +0.000 A 
BRANCH  24  31
ATOM     30  C   UNL     1       3.260  13.746  18.422  0.00  0.00    +0.000 C 
ATOM     31  O   UNL     1       1.987  13.443  18.997  0.00  0.00    +0.000 OA
ENDBRANCH  24  31
ENDBRANCH  23  29
ENDBRANCH   1  23
TORSDOF 5
ENDMDL
MODEL 9
REMARK VINA RESULT:      -7.4      3.729      7.587
REMARK  Name = 
REMARK  7 active torsions:
REMARK  status: ('A' for Active; 'I' for Inactive)
REMARK    1  A    between atoms: C_1  and  O_2
REMARK    2  A    between atoms: O_2  and  C_3
REMARK    3  A    between atoms: C_8  and  C_9
REMARK    4  A    between atoms: C_9  and  N_10
REMARK    5  A    between atoms: N_14  and  C_15
REMARK    6  A    between atoms: C_24  and  C_25
REMARK    7  A    between atoms: C_28  and  C_29
REMARK                            x       y       z     vdW  Elec       q    Type
REMARK                         _______ _______ _______ _____ _____    ______ ____
ROOT
ATOM      1  N   UNL     1      -2.000  13.808  21.052  0.00  0.00    +0.000 N 
ATOM      2  C   UNL     1      -1.547  14.994  20.491  0.00  0.00    +0.000 C 
ATOM      3  O   UNL     1      -2.184  16.045  20.531  0.00  0.00    +0.000 OA
ATOM      4  C   UNL     1      -0.236  14.882  19.717  0.00  0.00    +0.000 C 
ATOM      5  N   UNL     1       0.719  13.976  20.358  0.00  0.00    +0.000 N 
ATOM      6  C   UNL     1       0.255  12.796  20.938  0.00  0.00    +0.000 C 
ATOM      7  O   UNL     1       0.994  11.934  21.417  0.00  0.00    +0.000 OA
ATOM      8  C   UNL     1      -1.264  12.553  20.841  0.00  0.00    +0.000 C 
ENDROOT
BRANCH   5   9
ATOM      9  C   UNL     1       2.141  14.368  20.380  0.00  0.00    +0.000 C 
ATOM     10  C   UNL     1       2.909  13.638  19.267  0.00  0.00    +0.000 C 
ATOM     11  C   UNL     1       2.733  14.165  17.849  0.00  0.00    +0.000 C 
ATOM     12  C   UNL     1       3.622  15.354  17.514  0.00  0.00    +0.000 C 
ATOM     13  C   UNL     1       3.407  16.618  18.340  0.00  0.00    +0.000 C 
ATOM     14  C   UNL     1       3.600  16.456  19.846  0.00  0.00    +0.000 C 
ATOM     15  C   UNL     1       2.374  15.884  20.549  0.00  0.00    +0.000 C 
ENDBRANCH   5   9
BRANCH   8  16
ATOM     16  C   UNL     1      -1.608  11.715  19.609  0.00  0.00    +0.000 A 
ATOM     17  C   UNL     1      -2.863  11.933  19.000  0.00  0.00    +0.000 A 
ATOM     18  C   UNL     1      -3.238  11.278  17.826  0.00  0.00    +0.000 A 
ATOM     19  C   UNL     1      -2.365  10.379  17.217  0.00  0.00    +0.000 A 
ATOM     20  C   UNL     1      -2.704   9.779  15.883  0.00  0.00    +0.000 C 
ATOM     21  C   UNL     1      -1.133  10.118  17.832  0.00  0.00    +0.000 A 
ATOM     22  C   UNL     1      -0.758  10.774  19.019  0.00  0.00    +0.000 A 
ENDBRANCH   8  16
BRANCH   1  23
ATOM     23  C   UNL     1      -3.198  13.799  21.893  0.00  0.00    +0.000 C 
BRANCH  23  29
ATOM     24  C   UNL     1      -4.034  15.398  23.716  0.00  0.00    +0.000 A 
ATOM     25  C   UNL     1      -3.797  16.146  24.879  0.00  0.00    +0.000 A 
ATOM     26  C   UNL     1      -2.615  15.985  25.596  0.00  0.00    +0.000 A 
ATOM     27  C   UNL     1      -1.651  15.093  25.139  0.00  0.00    +0.000 A 
ATOM     28  C   UNL     1      -1.858  14.384  23.956  0.00  0.00    +0.000 A 
ATOM     29  C   UNL     1      -3.042  14.535  23.213  0.00  0.00    +0.000 A 
BRANCH  24  31
ATOM     30  C   UNL     1      -6.385  15.263  23.788  0.00  0.00    +0.000 C 
ATOM     31  O   UNL     1      -5.207  15.493  23.011  0.00  0.00    +0.000 OA
ENDBRANCH  24  31
ENDBRANCH  23  29
ENDBRANCH   1  23
TORSDOF 5
ENDMDL
