MODEL 1
REMARK VINA RESULT:      -8.3      0.000      0.000
REMARK  Name = 
REMARK  12 active torsions:
REMARK  status: ('A' for Active; 'I' for Inactive)
REMARK    1  A    between atoms: C_1  and  C_2
REMARK    2  A    between atoms: C_2  and  N_3
REMARK    3  A    between atoms: N_3  and  C_4
REMARK    4  A    between atoms: N_3  and  C_33
REMARK    5  A    between atoms: C_7  and  N_8
REMARK    6  A    between atoms: N_8  and  C_9
REMARK    7  A    between atoms: N_13  and  C_14
REMARK    8  A    between atoms: C_14  and  C_15
REMARK    9  A    between atoms: C_18  and  O_19
REMARK   10  A    between atoms: O_19  and  C_20
REMARK   11  A    between atoms: C_33  and  C_34
REMARK   12  A    between atoms: C_33  and  C_35
REMARK                            x       y       z     vdW  Elec       q    Type
REMARK                         _______ _______ _______ _____ _____    ______ ____
ROOT
ATOM      1  C   UNL     1       0.757  10.991  21.096  0.00  0.00    +0.000 C 
ATOM      2  C   UNL     1      -0.403  11.729  21.232  0.00  0.00    +0.000 C 
ATOM      3  C   UNL     1      -0.436  12.633  20.010  0.00  0.00    +0.000 C 
ATOM      4  O   UNL     1       0.594  13.069  19.500  0.00  0.00    +0.000 OA
ATOM      5  N   UNL     1      -1.642  13.252  19.832  0.00  0.00    +0.000 N 
ATOM      6  C   UNL     1      -1.666  14.267  20.767  0.00  0.00    +0.000 C 
ATOM      7  O   UNL     1      -1.685  15.469  20.518  0.00  0.00    +0.000 OA
ATOM      8  C   UNL     1      -1.750  13.733  22.161  0.00  0.00    +0.000 A 
ATOM      9  C   UNL     1      -2.725  14.431  22.918  0.00  0.00    +0.000 A 
ATOM     10  C   UNL     1      -3.581  13.711  23.725  0.00  0.00    +0.000 A 
ATOM     11  C   UNL     1      -3.387  12.337  23.816  0.00  0.00    +0.000 A 
ATOM     12  C   UNL     1      -2.268  11.666  23.175  0.00  0.00    +0.000 A 
ATOM     13  C   UNL     1      -1.347  12.367  22.354  0.00  0.00    +0.000 A 
ENDROOT
BRANCH   1  14
ATOM     14  N   UNL     1       1.231  10.267  19.938  0.00  0.00    +0.000 N 
ATOM     15  H   UNL     1       1.577  10.880  19.201  0.00  0.00    +0.000 HD
BRANCH  14  19
ATOM     16  C   UNL     1       2.320   5.996  19.199  0.00  0.00    +0.000 A 
ATOM     17  C   UNL     1       2.433   7.021  18.227  0.00  0.00    +0.000 A 
ATOM     18  C   UNL     1       2.117   8.426  18.447  0.00  0.00    +0.000 A 
ATOM     19  C   UNL     1       1.621   8.900  19.657  0.00  0.00    +0.000 A 
ATOM     20  C   UNL     1       1.548   7.894  20.658  0.00  0.00    +0.000 A 
ATOM     21  C   UNL     1       1.875   6.485  20.437  0.00  0.00    +0.000 A 
BRANCH  16  22
ATOM     22  N   UNL     1       2.673   4.650  18.983  0.00  0.00    +0.000 N 
BRANCH  22  23
ATOM     23  C   UNL     1       3.935   4.221  18.269  0.00  0.00    +0.000 C 
ATOM     24  C   UNL     1       5.212   4.518  19.081  0.00  0.00    +0.000 C 
ATOM     25  C   UNL     1       3.974   2.834  17.652  0.00  0.00    +0.000 C 
ENDBRANCH  22  23
BRANCH  22  27
ATOM     26  C   UNL     1       0.857   3.002  19.757  0.00  0.00    +0.000 C 
ATOM     27  C   UNL     1       2.259   3.554  19.906  0.00  0.00    +0.000 C 
ENDBRANCH  22  27
ENDBRANCH  16  22
ENDBRANCH  14  19
ENDBRANCH   1  14
BRANCH   5  28
ATOM     28  C   UNL     1      -2.847  12.412  19.775  0.00  0.00    +0.000 C 
BRANCH  28  29
ATOM     29  C   UNL     1      -2.949  11.559  18.549  0.00  0.00    +0.000 A 
ATOM     30  C   UNL     1      -1.995  10.588  18.236  0.00  0.00    +0.000 A 
ATOM     31  C   UNL     1      -2.101   9.896  17.048  0.00  0.00    +0.000 A 
ATOM     32  C   UNL     1      -3.144  10.133  16.160  0.00  0.00    +0.000 A 
ATOM     33  C   UNL     1      -4.126  11.067  16.490  0.00  0.00    +0.000 A 
ATOM     34  C   UNL     1      -4.031  11.774  17.685  0.00  0.00    +0.000 A 
BRANCH  32  35
ATOM     35  O   UNL     1      -3.069   9.436  14.990  0.00  0.00    +0.000 OA
ATOM     36  C   UNL     1      -3.659  10.060  13.861  0.00  0.00    +0.000 C 
ENDBRANCH  32  35
ENDBRANCH  28  29
ENDBRANCH   5  28
TORSDOF 8
ENDMDL
MODEL 2
REMARK VINA RESULT:      -8.2      1.452      1.973
REMARK  Name = 
REMARK  12 active torsions:
REMARK  status: ('A' for Active; 'I' for Inactive)
REMARK    1  A    between atoms: C_1  and  C_2
REMARK    2  A    between atoms: C_2  and  N_3
REMARK    3  A    between atoms: N_3  and  C_4
REMARK    4  A    between atoms: N_3  and  C_33
REMARK    5  A    between atoms: C_7  and  N_8
REMARK    6  A    between atoms: N_8  and  C_9
REMARK    7  A    between atoms: N_13  and  C_14
REMARK    8  A    between atoms: C_14  and  C_15
REMARK    9  A    between atoms: C_18  and  O_19
REMARK   10  A    between atoms: O_19  and  C_20
REMARK   11  A    between atoms: C_33  and  C_34
REMARK   12  A    between atoms: C_33  and  C_35
REMARK                            x       y       z     vdW  Elec       q    Type
REMARK                         _______ _______ _______ _____ _____    ______ ____
ROOT
ATOM      1  C   UNL     1       0.677   9.393  21.193  0.00  0.00    +0.000 C 
ATOM      2  C   UNL     1      -0.109  10.529  21.203  0.00  0.00    +0.000 C 
ATOM      3  C   UNL     1       0.166  11.206  19.870  0.00  0.00    +0.000 C 
ATOM      4  O   UNL     1       1.268  11.144  19.329  0.00  0.00    +0.000 OA
ATOM      5  N   UNL     1      -0.718  12.209  19.585  0.00  0.00    +0.000 N 
ATOM      6  C   UNL     1      -0.323  13.271  20.374  0.00  0.00    +0.000 C 
ATOM      7  O   UNL     1       0.110  14.345  19.965  0.00  0.00    +0.000 OA
ATOM      8  C   UNL     1      -0.561  13.000  21.825  0.00  0.00    +0.000 A 
ATOM      9  C   UNL     1      -1.171  14.110  22.459  0.00  0.00    +0.000 A 
ATOM     10  C   UNL     1      -2.211  13.887  23.337  0.00  0.00    +0.000 A 
ATOM     11  C   UNL     1      -2.553  12.567  23.617  0.00  0.00    +0.000 A 
ATOM     12  C   UNL     1      -1.795  11.442  23.096  0.00  0.00    +0.000 A 
ATOM     13  C   UNL     1      -0.703  11.621  22.209  0.00  0.00    +0.000 A 
ENDROOT
BRANCH   1  14
ATOM     14  N   UNL     1       0.802   8.396  20.154  0.00  0.00    +0.000 N 
ATOM     15  H   UNL     1      -0.051   8.285  19.608  0.00  0.00    +0.000 HD
BRANCH  14  19
ATOM     16  C   UNL     1       4.132   6.166  18.174  0.00  0.00    +0.000 A 
ATOM     17  C   UNL     1       3.550   7.349  17.652  0.00  0.00    +0.000 A 
ATOM     18  C   UNL     1       2.487   8.114  18.288  0.00  0.00    +0.000 A 
ATOM     19  C   UNL     1       1.898   7.724  19.487  0.00  0.00    +0.000 A 
ATOM     20  C   UNL     1       2.503   6.567  20.050  0.00  0.00    +0.000 A 
ATOM     21  C   UNL     1       3.576   5.804  19.412  0.00  0.00    +0.000 A 
BRANCH  16  22
ATOM     22  N   UNL     1       5.189   5.463  17.568  0.00  0.00    +0.000 N 
BRANCH  22  23
ATOM     23  C   UNL     1       6.643   5.664  17.930  0.00  0.00    +0.000 C 
ATOM     24  C   UNL     1       7.218   6.987  17.386  0.00  0.00    +0.000 C 
ATOM     25  C   UNL     1       7.065   5.420  19.369  0.00  0.00    +0.000 C 
ENDBRANCH  22  23
BRANCH  22  27
ATOM     26  C   UNL     1       3.625   3.517  16.951  0.00  0.00    +0.000 C 
ATOM     27  C   UNL     1       5.027   4.083  17.023  0.00  0.00    +0.000 C 
ENDBRANCH  22  27
ENDBRANCH  16  22
ENDBRANCH  14  19
ENDBRANCH   1  14
BRANCH   5  28
ATOM     28  C   UNL     1      -2.153  11.894  19.615  0.00  0.00    +0.000 C 
BRANCH  28  29
ATOM     29  C   UNL     1      -2.692  11.342  18.332  0.00  0.00    +0.000 A 
ATOM     30  C   UNL     1      -1.936  10.511  17.503  0.00  0.00    +0.000 A 
ATOM     31  C   UNL     1      -2.460  10.106  16.294  0.00  0.00    +0.000 A 
ATOM     32  C   UNL     1      -3.730  10.496  15.885  0.00  0.00    +0.000 A 
ATOM     33  C   UNL     1      -4.509  11.286  16.731  0.00  0.00    +0.000 A 
ATOM     34  C   UNL     1      -3.993  11.703  17.954  0.00  0.00    +0.000 A 
BRANCH  32  35
ATOM     35  O   UNL     1      -4.079  10.090  14.631  0.00  0.00    +0.000 OA
ATOM     36  C   UNL     1      -3.002   9.804  13.754  0.00  0.00    +0.000 C 
ENDBRANCH  32  35
ENDBRANCH  28  29
ENDBRANCH   5  28
TORSDOF 8
ENDMDL
MODEL 3
REMARK VINA RESULT:      -8.2      0.791      1.078
REMARK  Name = 
REMARK  12 active torsions:
REMARK  status: ('A' for Active; 'I' for Inactive)
REMARK    1  A    between atoms: C_1  and  C_2
REMARK    2  A    between atoms: C_2  and  N_3
REMARK    3  A    between atoms: N_3  and  C_4
REMARK    4  A    between atoms: N_3  and  C_33
REMARK    5  A    between atoms: C_7  and  N_8
REMARK    6  A    between atoms: N_8  and  C_9
REMARK    7  A    between atoms: N_13  and  C_14
REMARK    8  A    between atoms: C_14  and  C_15
REMARK    9  A    between atoms: C_18  and  O_19
REMARK   10  A    between atoms: O_19  and  C_20
REMARK   11  A    between atoms: C_33  and  C_34
REMARK   12  A    between atoms: C_33  and  C_35
REMARK                            x       y       z     vdW  Elec       q    Type
REMARK                         _______ _______ _______ _____ _____    ______ ____
ROOT
ATOM      1  C   UNL     1       0.816  10.577  20.742  0.00  0.00    +0.000 C 
ATOM      2  C   UNL     1      -0.266  11.409  20.956  0.00  0.00    +0.000 C 
ATOM      3  C   UNL     1      -0.332  12.288  19.717  0.00  0.00    +0.000 C 
ATOM      4  O   UNL     1       0.683  12.628  19.111  0.00  0.00    +0.000 OA
ATOM      5  N   UNL     1      -1.495  13.000  19.626  0.00  0.00    +0.000 N 
ATOM      6  C   UNL     1      -1.357  14.032  20.532  0.00  0.00    +0.000 C 
ATOM      7  O   UNL     1      -1.302  15.227  20.253  0.00  0.00    +0.000 OA
ATOM      8  C   UNL     1      -1.364  13.535  21.941  0.00  0.00    +0.000 A 
ATOM      9  C   UNL     1      -2.210  14.325  22.759  0.00  0.00    +0.000 A 
ATOM     10  C   UNL     1      -3.049  13.694  23.654  0.00  0.00    +0.000 A 
ATOM     11  C   UNL     1      -2.958  12.310  23.765  0.00  0.00    +0.000 A 
ATOM     12  C   UNL     1      -1.955  11.538  23.050  0.00  0.00    +0.000 A 
ATOM     13  C   UNL     1      -1.055  12.144  22.136  0.00  0.00    +0.000 A 
ENDROOT
BRANCH   1  14
ATOM     14  N   UNL     1       1.129   9.793  19.569  0.00  0.00    +0.000 N 
ATOM     15  H   UNL     1       1.097  10.339  18.708  0.00  0.00    +0.000 HD
BRANCH  14  19
ATOM     16  C   UNL     1       2.980   5.779  18.904  0.00  0.00    +0.000 A 
ATOM     17  C   UNL     1       2.917   6.796  17.918  0.00  0.00    +0.000 A 
ATOM     18  C   UNL     1       2.350   8.123  18.113  0.00  0.00    +0.000 A 
ATOM     19  C   UNL     1       1.763   8.516  19.312  0.00  0.00    +0.000 A 
ATOM     20  C   UNL     1       1.861   7.526  20.328  0.00  0.00    +0.000 A 
ATOM     21  C   UNL     1       2.439   6.197  20.131  0.00  0.00    +0.000 A 
BRANCH  16  22
ATOM     22  N   UNL     1       3.572   4.517  18.711  0.00  0.00    +0.000 N 
BRANCH  22  23
ATOM     23  C   UNL     1       5.028   4.322  18.354  0.00  0.00    +0.000 C 
ATOM     24  C   UNL     1       5.264   4.230  16.833  0.00  0.00    +0.000 C 
ATOM     25  C   UNL     1       6.057   5.213  19.027  0.00  0.00    +0.000 C 
ENDBRANCH  22  23
BRANCH  22  27
ATOM     26  C   UNL     1       4.105   2.202  19.696  0.00  0.00    +0.000 C 
ATOM     27  C   UNL     1       3.091   3.290  19.412  0.00  0.00    +0.000 C 
ENDBRANCH  22  27
ENDBRANCH  16  22
ENDBRANCH  14  19
ENDBRANCH   1  14
BRANCH   5  28
ATOM     28  C   UNL     1      -2.764  12.261  19.693  0.00  0.00    +0.000 C 
BRANCH  28  29
ATOM     29  C   UNL     1      -3.135  11.553  18.427  0.00  0.00    +0.000 A 
ATOM     30  C   UNL     1      -2.315  10.581  17.849  0.00  0.00    +0.000 A 
ATOM     31  C   UNL     1      -2.673  10.028  16.638  0.00  0.00    +0.000 A 
ATOM     32  C   UNL     1      -3.839  10.407  15.983  0.00  0.00    +0.000 A 
ATOM     33  C   UNL     1      -4.686  11.342  16.578  0.00  0.00    +0.000 A 
ATOM     34  C   UNL     1      -4.337  11.908  17.801  0.00  0.00    +0.000 A 
BRANCH  32  35
ATOM     35  O   UNL     1      -4.017   9.840  14.755  0.00  0.00    +0.000 OA
ATOM     36  C   UNL     1      -2.936   9.981  13.848  0.00  0.00    +0.000 C 
ENDBRANCH  32  35
ENDBRANCH  28  29
ENDBRANCH   5  28
TORSDOF 8
ENDMDL
MODEL 4
REMARK VINA RESULT:      -8.2      0.632      1.629
REMARK  Name = 
REMARK  12 active torsions:
REMARK  status: ('A' for Active; 'I' for Inactive)
REMARK    1  A    between atoms: C_1  and  C_2
REMARK    2  A    between atoms: C_2  and  N_3
REMARK    3  A    between atoms: N_3  and  C_4
REMARK    4  A    between atoms: N_3  and  C_33
REMARK    5  A    between atoms: C_7  and  N_8
REMARK    6  A    between atoms: N_8  and  C_9
REMARK    7  A    between atoms: N_13  and  C_14
REMARK    8  A    between atoms: C_14  and  C_15
REMARK    9  A    between atoms: C_18  and  O_19
REMARK   10  A    between atoms: O_19  and  C_20
REMARK   11  A    between atoms: C_33  and  C_34
REMARK   12  A    between atoms: C_33  and  C_35
REMARK                            x       y       z     vdW  Elec       q    Type
REMARK                         _______ _______ _______ _____ _____    ______ ____
ROOT
ATOM      1  C   UNL     1       0.748  10.507  21.071  0.00  0.00    +0.000 C 
ATOM      2  C   UNL     1      -0.309  11.388  21.196  0.00  0.00    +0.000 C 
ATOM      3  C   UNL     1      -0.293  12.201  19.912  0.00  0.00    +0.000 C 
ATOM      4  O   UNL     1       0.756  12.472  19.331  0.00  0.00    +0.000 OA
ATOM      5  N   UNL     1      -1.424  12.948  19.736  0.00  0.00    +0.000 N 
ATOM      6  C   UNL     1      -1.282  14.022  20.592  0.00  0.00    +0.000 C 
ATOM      7  O   UNL     1      -1.171  15.198  20.254  0.00  0.00    +0.000 OA
ATOM      8  C   UNL     1      -1.363  13.601  22.024  0.00  0.00    +0.000 A 
ATOM      9  C   UNL     1      -2.210  14.464  22.764  0.00  0.00    +0.000 A 
ATOM     10  C   UNL     1      -3.107  13.912  23.656  0.00  0.00    +0.000 A 
ATOM     11  C   UNL     1      -3.073  12.534  23.842  0.00  0.00    +0.000 A 
ATOM     12  C   UNL     1      -2.073  11.689  23.210  0.00  0.00    +0.000 A 
ATOM     13  C   UNL     1      -1.116  12.213  22.303  0.00  0.00    +0.000 A 
ENDROOT
BRANCH   1  14
ATOM     14  N   UNL     1       1.076   9.651  19.953  0.00  0.00    +0.000 N 
ATOM     15  H   UNL     1       1.159  10.161  19.075  0.00  0.00    +0.000 HD
BRANCH  14  19
ATOM     16  C   UNL     1       2.843   5.592  19.336  0.00  0.00    +0.000 A 
ATOM     17  C   UNL     1       2.159   5.987  20.513  0.00  0.00    +0.000 A 
ATOM     18  C   UNL     1       1.546   7.290  20.731  0.00  0.00    +0.000 A 
ATOM     19  C   UNL     1       1.609   8.314  19.791  0.00  0.00    +0.000 A 
ATOM     20  C   UNL     1       2.249   7.919  18.585  0.00  0.00    +0.000 A 
ATOM     21  C   UNL     1       2.857   6.606  18.365  0.00  0.00    +0.000 A 
BRANCH  16  22
ATOM     22  N   UNL     1       3.392   4.313  19.124  0.00  0.00    +0.000 N 
BRANCH  22  23
ATOM     23  C   UNL     1       2.566   3.098  18.769  0.00  0.00    +0.000 C 
ATOM     24  C   UNL     1       3.369   2.035  17.992  0.00  0.00    +0.000 C 
ATOM     25  C   UNL     1       1.710   2.469  19.854  0.00  0.00    +0.000 C 
ENDBRANCH  22  23
BRANCH  22  27
ATOM     26  C   UNL     1       5.873   4.989  19.166  0.00  0.00    +0.000 C 
ATOM     27  C   UNL     1       4.776   4.110  18.604  0.00  0.00    +0.000 C 
ENDBRANCH  22  27
ENDBRANCH  16  22
ENDBRANCH  14  19
ENDBRANCH   1  14
BRANCH   5  28
ATOM     28  C   UNL     1      -2.722  12.260  19.789  0.00  0.00    +0.000 C 
BRANCH  28  29
ATOM     29  C   UNL     1      -3.088  11.532  18.533  0.00  0.00    +0.000 A 
ATOM     30  C   UNL     1      -2.252  10.574  17.957  0.00  0.00    +0.000 A 
ATOM     31  C   UNL     1      -2.608  10.003  16.753  0.00  0.00    +0.000 A 
ATOM     32  C   UNL     1      -3.788  10.350  16.105  0.00  0.00    +0.000 A 
ATOM     33  C   UNL     1      -4.650  11.270  16.700  0.00  0.00    +0.000 A 
ATOM     34  C   UNL     1      -4.303  11.856  17.914  0.00  0.00    +0.000 A 
BRANCH  32  35
ATOM     35  O   UNL     1      -3.964   9.768  14.884  0.00  0.00    +0.000 OA
ATOM     36  C   UNL     1      -2.982  10.074  13.908  0.00  0.00    +0.000 C 
ENDBRANCH  32  35
ENDBRANCH  28  29
ENDBRANCH   5  28
TORSDOF 8
ENDMDL
MODEL 5
REMARK VINA RESULT:      -8.1      0.733      1.225
REMARK  Name = 
REMARK  12 active torsions:
REMARK  status: ('A' for Active; 'I' for Inactive)
REMARK    1  A    between atoms: C_1  and  C_2
REMARK    2  A    between atoms: C_2  and  N_3
REMARK    3  A    between atoms: N_3  and  C_4
REMARK    4  A    between atoms: N_3  and  C_33
REMARK    5  A    between atoms: C_7  and  N_8
REMARK    6  A    between atoms: N_8  and  C_9
REMARK    7  A    between atoms: N_13  and  C_14
REMARK    8  A    between atoms: C_14  and  C_15
REMARK    9  A    between atoms: C_18  and  O_19
REMARK   10  A    between atoms: O_19  and  C_20
REMARK   11  A    between atoms: C_33  and  C_34
REMARK   12  A    between atoms: C_33  and  C_35
REMARK                            x       y       z     vdW  Elec       q    Type
REMARK                         _______ _______ _______ _____ _____    ______ ____
ROOT
ATOM      1  C   UNL     1       0.650  10.694  21.182  0.00  0.00    +0.000 C 
ATOM      2  C   UNL     1      -0.422  11.551  21.342  0.00  0.00    +0.000 C 
ATOM      3  C   UNL     1      -0.373  12.468  20.130  0.00  0.00    +0.000 C 
ATOM      4  O   UNL     1       0.692  12.797  19.611  0.00  0.00    +0.000 OA
ATOM      5  N   UNL     1      -1.507  13.216  19.977  0.00  0.00    +0.000 N 
ATOM      6  C   UNL     1      -1.408  14.216  20.923  0.00  0.00    +0.000 C 
ATOM      7  O   UNL     1      -1.301  15.416  20.688  0.00  0.00    +0.000 OA
ATOM      8  C   UNL     1      -1.533  13.677  22.312  0.00  0.00    +0.000 A 
ATOM      9  C   UNL     1      -2.416  14.467  23.090  0.00  0.00    +0.000 A 
ATOM     10  C   UNL     1      -3.335  13.834  23.901  0.00  0.00    +0.000 A 
ATOM     11  C   UNL     1      -3.290  12.445  23.975  0.00  0.00    +0.000 A 
ATOM     12  C   UNL     1      -2.258  11.666  23.310  0.00  0.00    +0.000 A 
ATOM     13  C   UNL     1      -1.277  12.273  22.484  0.00  0.00    +0.000 A 
ENDROOT
BRANCH   1  14
ATOM     14  N   UNL     1       1.027   9.937  20.010  0.00  0.00    +0.000 N 
ATOM     15  H   UNL     1       1.191  10.526  19.194  0.00  0.00    +0.000 HD
BRANCH  14  19
ATOM     16  C   UNL     1       2.680   5.885  19.101  0.00  0.00    +0.000 A 
ATOM     17  C   UNL     1       2.026   6.220  20.313  0.00  0.00    +0.000 A 
ATOM     18  C   UNL     1       1.450   7.520  20.626  0.00  0.00    +0.000 A 
ATOM     19  C   UNL     1       1.524   8.600  19.753  0.00  0.00    +0.000 A 
ATOM     20  C   UNL     1       2.133   8.269  18.512  0.00  0.00    +0.000 A 
ATOM     21  C   UNL     1       2.704   6.959  18.197  0.00  0.00    +0.000 A 
BRANCH  16  22
ATOM     22  N   UNL     1       3.193   4.610  18.798  0.00  0.00    +0.000 N 
BRANCH  22  23
ATOM     23  C   UNL     1       4.650   4.346  18.491  0.00  0.00    +0.000 C 
ATOM     24  C   UNL     1       4.936   4.252  16.979  0.00  0.00    +0.000 C 
ATOM     25  C   UNL     1       5.697   5.180  19.208  0.00  0.00    +0.000 C 
ENDBRANCH  22  23
BRANCH  22  27
ATOM     26  C   UNL     1       1.870   2.449  18.357  0.00  0.00    +0.000 C 
ATOM     27  C   UNL     1       2.591   3.354  19.334  0.00  0.00    +0.000 C 
ENDBRANCH  22  27
ENDBRANCH  16  22
ENDBRANCH  14  19
ENDBRANCH   1  14
BRANCH   5  28
ATOM     28  C   UNL     1      -2.796  12.512  19.928  0.00  0.00    +0.000 C 
BRANCH  28  29
ATOM     29  C   UNL     1      -3.117  11.902  18.598  0.00  0.00    +0.000 A 
ATOM     30  C   UNL     1      -2.128  11.592  17.663  0.00  0.00    +0.000 A 
ATOM     31  C   UNL     1      -2.497  11.112  16.424  0.00  0.00    +0.000 A 
ATOM     32  C   UNL     1      -3.832  10.917  16.088  0.00  0.00    +0.000 A 
ATOM     33  C   UNL     1      -4.822  11.179  17.036  0.00  0.00    +0.000 A 
ATOM     34  C   UNL     1      -4.464  11.665  18.290  0.00  0.00    +0.000 A 
BRANCH  32  35
ATOM     35  O   UNL     1      -4.047  10.521  14.801  0.00  0.00    +0.000 OA
ATOM     36  C   UNL     1      -2.942   9.917  14.149  0.00  0.00    +0.000 C 
ENDBRANCH  32  35
ENDBRANCH  28  29
ENDBRANCH   5  28
TORSDOF 8
ENDMDL
MODEL 6
REMARK VINA RESULT:      -8.1      0.518      1.363
REMARK  Name = 
REMARK  12 active torsions:
REMARK  status: ('A' for Active; 'I' for Inactive)
REMARK    1  A    between atoms: C_1  and  C_2
REMARK    2  A    between atoms: C_2  and  N_3
REMARK    3  A    between atoms: N_3  and  C_4
REMARK    4  A    between atoms: N_3  and  C_33
REMARK    5  A    between atoms: C_7  and  N_8
REMARK    6  A    between atoms: N_8  and  C_9
REMARK    7  A    between atoms: N_13  and  C_14
REMARK    8  A    between atoms: C_14  and  C_15
REMARK    9  A    between atoms: C_18  and  O_19
REMARK   10  A    between atoms: O_19  and  C_20
REMARK   11  A    between atoms: C_33  and  C_34
REMARK   12  A    between atoms: C_33  and  C_35
REMARK                            x       y       z     vdW  Elec       q    Type
REMARK                         _______ _______ _______ _____ _____    ______ ____
ROOT
ATOM      1  C   UNL     1       0.710  10.577  21.031  0.00  0.00    +0.000 C 
ATOM      2  C   UNL     1      -0.356  11.445  21.172  0.00  0.00    +0.000 C 
ATOM      3  C   UNL     1      -0.281  12.354  19.956  0.00  0.00    +0.000 C 
ATOM      4  O   UNL     1       0.795  12.670  19.451  0.00  0.00    +0.000 OA
ATOM      5  N   UNL     1      -1.405  13.111  19.782  0.00  0.00    +0.000 N 
ATOM      6  C   UNL     1      -1.311  14.116  20.724  0.00  0.00    +0.000 C 
ATOM      7  O   UNL     1      -1.189  15.314  20.484  0.00  0.00    +0.000 OA
ATOM      8  C   UNL     1      -1.460  13.586  22.114  0.00  0.00    +0.000 A 
ATOM      9  C   UNL     1      -2.348  14.388  22.875  0.00  0.00    +0.000 A 
ATOM     10  C   UNL     1      -3.284  13.768  23.676  0.00  0.00    +0.000 A 
ATOM     11  C   UNL     1      -3.253  12.379  23.758  0.00  0.00    +0.000 A 
ATOM     12  C   UNL     1      -2.219  11.587  23.112  0.00  0.00    +0.000 A 
ATOM     13  C   UNL     1      -1.220  12.180  22.297  0.00  0.00    +0.000 A 
ENDROOT
BRANCH   1  14
ATOM     14  N   UNL     1       1.097   9.810  19.869  0.00  0.00    +0.000 N 
ATOM     15  H   UNL     1       1.189  10.381  19.030  0.00  0.00    +0.000 HD
BRANCH  14  19
ATOM     16  C   UNL     1       2.788   5.714  19.277  0.00  0.00    +0.000 A 
ATOM     17  C   UNL     1       2.709   6.694  18.256  0.00  0.00    +0.000 A 
ATOM     18  C   UNL     1       2.194   8.046  18.425  0.00  0.00    +0.000 A 
ATOM     19  C   UNL     1       1.678   8.504  19.633  0.00  0.00    +0.000 A 
ATOM     20  C   UNL     1       1.794   7.551  20.682  0.00  0.00    +0.000 A 
ATOM     21  C   UNL     1       2.321   6.196  20.511  0.00  0.00    +0.000 A 
BRANCH  16  22
ATOM     22  N   UNL     1       3.330   4.427  19.107  0.00  0.00    +0.000 N 
BRANCH  22  23
ATOM     23  C   UNL     1       2.518   3.230  18.666  0.00  0.00    +0.000 C 
ATOM     24  C   UNL     1       1.092   3.225  19.253  0.00  0.00    +0.000 C 
ATOM     25  C   UNL     1       2.518   2.867  17.191  0.00  0.00    +0.000 C 
ENDBRANCH  22  23
BRANCH  22  27
ATOM     26  C   UNL     1       5.798   5.121  19.308  0.00  0.00    +0.000 C 
ATOM     27  C   UNL     1       4.752   4.200  18.716  0.00  0.00    +0.000 C 
ENDBRANCH  22  27
ENDBRANCH  16  22
ENDBRANCH  14  19
ENDBRANCH   1  14
BRANCH   5  28
ATOM     28  C   UNL     1      -2.700  12.420  19.718  0.00  0.00    +0.000 C 
BRANCH  28  29
ATOM     29  C   UNL     1      -2.886  11.568  18.501  0.00  0.00    +0.000 A 
ATOM     30  C   UNL     1      -1.957  10.596  18.122  0.00  0.00    +0.000 A 
ATOM     31  C   UNL     1      -2.145   9.905  16.944  0.00  0.00    +0.000 A 
ATOM     32  C   UNL     1      -3.245  10.144  16.129  0.00  0.00    +0.000 A 
ATOM     33  C   UNL     1      -4.202  11.078  16.526  0.00  0.00    +0.000 A 
ATOM     34  C   UNL     1      -4.025  11.784  17.713  0.00  0.00    +0.000 A 
BRANCH  32  35
ATOM     35  O   UNL     1      -3.251   9.447  14.956  0.00  0.00    +0.000 OA
ATOM     36  C   UNL     1      -3.867  10.098  13.856  0.00  0.00    +0.000 C 
ENDBRANCH  32  35
ENDBRANCH  28  29
ENDBRANCH   5  28
TORSDOF 8
ENDMDL
MODEL 7
REMARK VINA RESULT:      -8.1      1.389      1.959
REMARK  Name = 
REMARK  12 active torsions:
REMARK  status: ('A' for Active; 'I' for Inactive)
REMARK    1  A    between atoms: C_1  and  C_2
REMARK    2  A    between atoms: C_2  and  N_3
REMARK    3  A    between atoms: N_3  and  C_4
REMARK    4  A    between atoms: N_3  and  C_33
REMARK    5  A    between atoms: C_7  and  N_8
REMARK    6  A    between atoms: N_8  and  C_9
REMARK    7  A    between atoms: N_13  and  C_14
REMARK    8  A    between atoms: C_14  and  C_15
REMARK    9  A    between atoms: C_18  and  O_19
REMARK   10  A    between atoms: O_19  and  C_20
REMARK   11  A    between atoms: C_33  and  C_34
REMARK   12  A    between atoms: C_33  and  C_35
REMARK                            x       y       z     vdW  Elec       q    Type
REMARK                         _______ _______ _______ _____ _____    ______ ____
ROOT
ATOM      1  C   UNL     1      -0.026  10.489  21.804  0.00  0.00    +0.000 C 
ATOM      2  C   UNL     1      -0.676  11.679  22.074  0.00  0.00    +0.000 C 
ATOM      3  C   UNL     1       0.202  12.752  21.450  0.00  0.00    +0.000 C 
ATOM      4  O   UNL     1       1.425  12.639  21.399  0.00  0.00    +0.000 OA
ATOM      5  N   UNL     1      -0.409  13.973  21.385  0.00  0.00    +0.000 N 
ATOM      6  C   UNL     1      -0.357  14.470  22.672  0.00  0.00    +0.000 C 
ATOM      7  O   UNL     1       0.266  15.465  23.031  0.00  0.00    +0.000 OA
ATOM      8  C   UNL     1      -1.233  13.692  23.600  0.00  0.00    +0.000 A 
ATOM      9  C   UNL     1      -2.007  14.554  24.417  0.00  0.00    +0.000 A 
ATOM     10  C   UNL     1      -3.340  14.263  24.617  0.00  0.00    +0.000 A 
ATOM     11  C   UNL     1      -3.837  13.084  24.070  0.00  0.00    +0.000 A 
ATOM     12  C   UNL     1      -2.983  12.123  23.391  0.00  0.00    +0.000 A 
ATOM     13  C   UNL     1      -1.602  12.367  23.181  0.00  0.00    +0.000 A 
ENDROOT
BRANCH   1  14
ATOM     14  N   UNL     1       0.500  10.020  20.543  0.00  0.00    +0.000 N 
ATOM     15  H   UNL     1       0.576  10.759  19.845  0.00  0.00    +0.000 HD
BRANCH  14  19
ATOM     16  C   UNL     1       2.837   6.517  19.042  0.00  0.00    +0.000 A 
ATOM     17  C   UNL     1       2.227   6.573  20.320  0.00  0.00    +0.000 A 
ATOM     18  C   UNL     1       1.434   7.685  20.825  0.00  0.00    +0.000 A 
ATOM     19  C   UNL     1       1.227   8.850  20.092  0.00  0.00    +0.000 A 
ATOM     20  C   UNL     1       1.790   8.791  18.789  0.00  0.00    +0.000 A 
ATOM     21  C   UNL     1       2.580   7.669  18.280  0.00  0.00    +0.000 A 
BRANCH  16  22
ATOM     22  N   UNL     1       3.564   5.416  18.553  0.00  0.00    +0.000 N 
BRANCH  22  23
ATOM     23  C   UNL     1       4.722   4.784  19.291  0.00  0.00    +0.000 C 
ATOM     24  C   UNL     1       4.623   3.247  19.358  0.00  0.00    +0.000 C 
ATOM     25  C   UNL     1       6.129   5.239  18.942  0.00  0.00    +0.000 C 
ENDBRANCH  22  23
BRANCH  22  27
ATOM     26  C   UNL     1       1.449   4.232  17.692  0.00  0.00    +0.000 C 
ATOM     27  C   UNL     1       2.955   4.384  17.662  0.00  0.00    +0.000 C 
ENDBRANCH  22  27
ENDBRANCH  16  22
ENDBRANCH  14  19
ENDBRANCH   1  14
BRANCH   5  28
ATOM     28  C   UNL     1      -1.719  14.057  20.724  0.00  0.00    +0.000 C 
BRANCH  28  29
ATOM     29  C   UNL     1      -1.901  13.097  19.589  0.00  0.00    +0.000 A 
ATOM     30  C   UNL     1      -0.947  12.946  18.581  0.00  0.00    +0.000 A 
ATOM     31  C   UNL     1      -1.214  12.109  17.518  0.00  0.00    +0.000 A 
ATOM     32  C   UNL     1      -2.407  11.400  17.434  0.00  0.00    +0.000 A 
ATOM     33  C   UNL     1      -3.342  11.509  18.463  0.00  0.00    +0.000 A 
ATOM     34  C   UNL     1      -3.087  12.351  19.541  0.00  0.00    +0.000 A 
BRANCH  32  35
ATOM     35  O   UNL     1      -2.566  10.681  16.286  0.00  0.00    +0.000 OA
ATOM     36  C   UNL     1      -3.843  10.769  15.675  0.00  0.00    +0.000 C 
ENDBRANCH  32  35
ENDBRANCH  28  29
ENDBRANCH   5  28
TORSDOF 8
ENDMDL
MODEL 8
REMARK VINA RESULT:      -8.1      1.283      2.125
REMARK  Name = 
REMARK  12 active torsions:
REMARK  status: ('A' for Active; 'I' for Inactive)
REMARK    1  A    between atoms: C_1  and  C_2
REMARK    2  A    between atoms: C_2  and  N_3
REMARK    3  A    between atoms: N_3  and  C_4
REMARK    4  A    between atoms: N_3  and  C_33
REMARK    5  A    between atoms: C_7  and  N_8
REMARK    6  A    between atoms: N_8  and  C_9
REMARK    7  A    between atoms: N_13  and  C_14
REMARK    8  A    between atoms: C_14  and  C_15
REMARK    9  A    between atoms: C_18  and  O_19
REMARK   10  A    between atoms: O_19  and  C_20
REMARK   11  A    between atoms: C_33  and  C_34
REMARK   12  A    between atoms: C_33  and  C_35
REMARK                            x       y       z     vdW  Elec       q    Type
REMARK                         _______ _______ _______ _____ _____    ______ ____
ROOT
ATOM      1  C   UNL     1       1.346   9.848  20.345  0.00  0.00    +0.000 C 
ATOM      2  C   UNL     1       0.336  10.758  20.593  0.00  0.00    +0.000 C 
ATOM      3  C   UNL     1       0.281  11.629  19.348  0.00  0.00    +0.000 C 
ATOM      4  O   UNL     1       1.291  11.890  18.697  0.00  0.00    +0.000 OA
ATOM      5  N   UNL     1      -0.831  12.421  19.297  0.00  0.00    +0.000 N 
ATOM      6  C   UNL     1      -0.582  13.448  20.185  0.00  0.00    +0.000 C 
ATOM      7  O   UNL     1      -0.454  14.634  19.891  0.00  0.00    +0.000 OA
ATOM      8  C   UNL     1      -0.566  12.965  21.599  0.00  0.00    +0.000 A 
ATOM      9  C   UNL     1      -1.319  13.820  22.441  0.00  0.00    +0.000 A 
ATOM     10  C   UNL     1      -2.163  13.258  23.377  0.00  0.00    +0.000 A 
ATOM     11  C   UNL     1      -2.166  11.872  23.500  0.00  0.00    +0.000 A 
ATOM     12  C   UNL     1      -1.252  11.024  22.753  0.00  0.00    +0.000 A 
ATOM     13  C   UNL     1      -0.350  11.557  21.796  0.00  0.00    +0.000 A 
ENDROOT
BRANCH   1  14
ATOM     14  N   UNL     1       1.552   9.034  19.168  0.00  0.00    +0.000 N 
ATOM     15  H   UNL     1       1.336   9.527  18.303  0.00  0.00    +0.000 HD
BRANCH  14  19
ATOM     16  C   UNL     1       3.876   5.353  18.153  0.00  0.00    +0.000 A 
ATOM     17  C   UNL     1       2.973   5.445  19.241  0.00  0.00    +0.000 A 
ATOM     18  C   UNL     1       2.179   6.618  19.579  0.00  0.00    +0.000 A 
ATOM     19  C   UNL     1       2.263   7.809  18.865  0.00  0.00    +0.000 A 
ATOM     20  C   UNL     1       3.127   7.720  17.740  0.00  0.00    +0.000 A 
ATOM     21  C   UNL     1       3.918   6.537  17.398  0.00  0.00    +0.000 A 
BRANCH  16  22
ATOM     22  N   UNL     1       4.603   4.197  17.815  0.00  0.00    +0.000 N 
BRANCH  22  23
ATOM     23  C   UNL     1       4.213   2.805  18.258  0.00  0.00    +0.000 C 
ATOM     24  C   UNL     1       4.375   2.593  19.777  0.00  0.00    +0.000 C 
ATOM     25  C   UNL     1       2.902   2.231  17.750  0.00  0.00    +0.000 C 
ENDBRANCH  22  23
BRANCH  22  27
ATOM     26  C   UNL     1       6.884   4.320  16.633  0.00  0.00    +0.000 C 
ATOM     27  C   UNL     1       5.390   4.084  16.552  0.00  0.00    +0.000 C 
ENDBRANCH  22  27
ENDBRANCH  16  22
ENDBRANCH  14  19
ENDBRANCH   1  14
BRANCH   5  28
ATOM     28  C   UNL     1      -2.146  11.776  19.424  0.00  0.00    +0.000 C 
BRANCH  28  29
ATOM     29  C   UNL     1      -2.694  11.231  18.141  0.00  0.00    +0.000 A 
ATOM     30  C   UNL     1      -1.986  10.319  17.357  0.00  0.00    +0.000 A 
ATOM     31  C   UNL     1      -2.509   9.922  16.144  0.00  0.00    +0.000 A 
ATOM     32  C   UNL     1      -3.733  10.399  15.690  0.00  0.00    +0.000 A 
ATOM     33  C   UNL     1      -4.468  11.273  16.492  0.00  0.00    +0.000 A 
ATOM     34  C   UNL     1      -3.951  11.683  17.717  0.00  0.00    +0.000 A 
BRANCH  32  35
ATOM     35  O   UNL     1      -4.080   9.986  14.437  0.00  0.00    +0.000 OA
ATOM     36  C   UNL     1      -3.010   9.832  13.520  0.00  0.00    +0.000 C 
ENDBRANCH  32  35
ENDBRANCH  28  29
ENDBRANCH   5  28
TORSDOF 8
ENDMDL
MODEL 9
REMARK VINA RESULT:      -8.1      2.491      3.725
REMARK  Name = 
REMARK  12 active torsions:
REMARK  status: ('A' for Active; 'I' for Inactive)
REMARK    1  A    between atoms: C_1  and  C_2
REMARK    2  A    between atoms: C_2  and  N_3
REMARK    3  A    between atoms: N_3  and  C_4
REMARK    4  A    between atoms: N_3  and  C_33
REMARK    5  A    between atoms: C_7  and  N_8
REMARK    6  A    between atoms: N_8  and  C_9
REMARK    7  A    between atoms: N_13  and  C_14
REMARK    8  A    between atoms: C_14  and  C_15
REMARK    9  A    between atoms: C_18  and  O_19
REMARK   10  A    between atoms: O_19  and  C_20
REMARK   11  A    between atoms: C_33  and  C_34
REMARK   12  A    between atoms: C_33  and  C_35
REMARK                            x       y       z     vdW  Elec       q    Type
REMARK                         _______ _______ _______ _____ _____    ______ ____
ROOT
ATOM      1  C   UNL     1       1.816   8.468  19.962  0.00  0.00    +0.000 C 
ATOM      2  C   UNL     1       0.829   9.429  20.066  0.00  0.00    +0.000 C 
ATOM      3  C   UNL     1       0.611   9.920  18.644  0.00  0.00    +0.000 C 
ATOM      4  O   UNL     1       1.531   9.972  17.830  0.00  0.00    +0.000 OA
ATOM      5  N   UNL     1      -0.512  10.687  18.507  0.00  0.00    +0.000 N 
ATOM      6  C   UNL     1      -0.175  11.916  19.038  0.00  0.00    +0.000 C 
ATOM      7  O   UNL     1      -0.102  12.970  18.412  0.00  0.00    +0.000 OA
ATOM      8  C   UNL     1       0.019  11.845  20.518  0.00  0.00    +0.000 A 
ATOM      9  C   UNL     1      -0.641  12.914  21.173  0.00  0.00    +0.000 A 
ATOM     10  C   UNL     1      -1.357  12.651  22.322  0.00  0.00    +0.000 A 
ATOM     11  C   UNL     1      -1.323  11.354  22.826  0.00  0.00    +0.000 A 
ATOM     12  C   UNL     1      -0.492  10.315  22.241  0.00  0.00    +0.000 A 
ATOM     13  C   UNL     1       0.280  10.544  21.072  0.00  0.00    +0.000 A 
ENDROOT
BRANCH   1  14
ATOM     14  N   UNL     1       1.893   7.356  19.043  0.00  0.00    +0.000 N 
ATOM     15  H   UNL     1       0.979   7.057  18.705  0.00  0.00    +0.000 HD
BRANCH  14  19
ATOM     16  C   UNL     1       4.985   5.321  16.536  0.00  0.00    +0.000 A 
ATOM     17  C   UNL     1       4.937   6.721  16.753  0.00  0.00    +0.000 A 
ATOM     18  C   UNL     1       3.963   7.410  17.589  0.00  0.00    +0.000 A 
ATOM     19  C   UNL     1       2.932   6.741  18.241  0.00  0.00    +0.000 A 
ATOM     20  C   UNL     1       2.994   5.331  18.075  0.00  0.00    +0.000 A 
ATOM     21  C   UNL     1       3.979   4.641  17.241  0.00  0.00    +0.000 A 
BRANCH  16  22
ATOM     22  N   UNL     1       5.961   4.668  15.760  0.00  0.00    +0.000 N 
BRANCH  22  23
ATOM     23  C   UNL     1       6.027   4.756  14.253  0.00  0.00    +0.000 C 
ATOM     24  C   UNL     1       7.461   4.976  13.728  0.00  0.00    +0.000 C 
ATOM     25  C   UNL     1       5.288   3.708  13.439  0.00  0.00    +0.000 C 
ENDBRANCH  22  23
BRANCH  22  27
ATOM     26  C   UNL     1       7.592   4.609  17.747  0.00  0.00    +0.000 C 
ATOM     27  C   UNL     1       7.330   4.373  16.275  0.00  0.00    +0.000 C 
ENDBRANCH  22  27
ENDBRANCH  16  22
ENDBRANCH  14  19
ENDBRANCH   1  14
BRANCH   5  28
ATOM     28  C   UNL     1      -1.791  10.126  18.966  0.00  0.00    +0.000 C 
BRANCH  28  29
ATOM     29  C   UNL     1      -3.001  10.770  18.362  0.00  0.00    +0.000 A 
ATOM     30  C   UNL     1      -3.350  10.589  17.022  0.00  0.00    +0.000 A 
ATOM     31  C   UNL     1      -4.427  11.278  16.506  0.00  0.00    +0.000 A 
ATOM     32  C   UNL     1      -5.181  12.141  17.292  0.00  0.00    +0.000 A 
ATOM     33  C   UNL     1      -4.867  12.289  18.643  0.00  0.00    +0.000 A 
ATOM     34  C   UNL     1      -3.782  11.600  19.177  0.00  0.00    +0.000 A 
BRANCH  32  35
ATOM     35  O   UNL     1      -6.160  12.817  16.624  0.00  0.00    +0.000 OA
ATOM     36  C   UNL     1      -6.796  13.856  17.349  0.00  0.00    +0.000 C 
ENDBRANCH  32  35
ENDBRANCH  28  29
ENDBRANCH   5  28
TORSDOF 8
ENDMDL
