MODEL 1
REMARK VINA RESULT:      -6.1      0.000      0.000
REMARK  Name = 
REMARK  6 active torsions:
REMARK  status: ('A' for Active; 'I' for Inactive)
REMARK    1  A    between atoms: S_2  and  N_4
REMARK    2  A    between atoms: S_2  and  C_13
REMARK    3  A    between atoms: N_4  and  C_5
REMARK    4  A    between atoms: C_5  and  C_6
REMARK    5  A    between atoms: C_6  and  C_7
REMARK    6  A    between atoms: C_7  and  C_8
REMARK                            x       y       z     vdW  Elec       q    Type
REMARK                         _______ _______ _______ _____ _____    ______ ____
ROOT
ATOM      1  N   UNL     1       4.214   5.624  19.553  0.00  0.00    +0.000 NA
ATOM      2  H   UNL     1       4.440   6.265  20.315  0.00  0.00    +0.000 HD
ENDROOT
BRANCH   1   4
ATOM      3  O   UNL     1       6.715   5.210  19.787  0.00  0.00    +0.000 OA
ATOM      4  S   UNL     1       5.532   4.602  19.213  0.00  0.00    +0.000 S 
ATOM      5  O   UNL     1       5.125   3.255  19.522  0.00  0.00    +0.000 OA
BRANCH   4   6
ATOM      6  C   UNL     1       5.794   4.598  17.453  0.00  0.00    +0.000 A 
ATOM      7  C   UNL     1       5.172   3.881  16.449  0.00  0.00    +0.000 A 
ATOM      8  C   UNL     1       5.752   4.119  15.173  0.00  0.00    +0.000 A 
ATOM      9  C   UNL     1       6.774   5.041  15.239  0.00  0.00    +0.000 A 
ATOM     10  S   UNL     1       7.010   5.628  16.832  0.00  0.00    +0.000 S 
ENDBRANCH   4   6
ENDBRANCH   1   4
BRANCH   1  11
ATOM     11  C   UNL     1       3.625   6.251  18.359  0.00  0.00    +0.000 C 
BRANCH  11  12
ATOM     12  C   UNL     1       2.110   6.108  18.362  0.00  0.00    +0.000 C 
BRANCH  12  13
ATOM     13  C   UNL     1       1.699   4.867  17.568  0.00  0.00    +0.000 C 
BRANCH  13  14
ATOM     14  C   UNL     1       1.846   3.612  18.353  0.00  0.00    +0.000 A 
ATOM     15  C   UNL     1       2.221   2.358  17.923  0.00  0.00    +0.000 A 
ATOM     16  N   UNL     1       2.182   1.566  19.038  0.00  0.00    +0.000 N 
ATOM     17  C   UNL     1       1.779   2.350  20.081  0.00  0.00    +0.000 A 
ATOM     18  N   UNL     1       1.573   3.589  19.701  0.00  0.00    +0.000 NA
ATOM     19  H   UNL     1       2.404   0.583  19.086  0.00  0.00    +0.000 HD
ENDBRANCH  13  14
ENDBRANCH  12  13
ENDBRANCH  11  12
ENDBRANCH   1  11
TORSDOF 6
ENDMDL
MODEL 2
REMARK VINA RESULT:      -6.0      2.175      2.845
REMARK  Name = 
REMARK  6 active torsions:
REMARK  status: ('A' for Active; 'I' for Inactive)
REMARK    1  A    between atoms: S_2  and  N_4
REMARK    2  A    between atoms: S_2  and  C_13
REMARK    3  A    between atoms: N_4  and  C_5
REMARK    4  A    between atoms: C_5  and  C_6
REMARK    5  A    between atoms: C_6  and  C_7
REMARK    6  A    between atoms: C_7  and  C_8
REMARK                            x       y       z     vdW  Elec       q    Type
REMARK                         _______ _______ _______ _____ _____    ______ ____
ROOT
ATOM      1  N   UNL     1       3.120   5.947  19.949  0.00  0.00    +0.000 NA
ATOM      2  H   UNL     1       3.527   6.774  20.388  0.00  0.00    +0.000 HD
ENDROOT
BRANCH   1   4
ATOM      3  O   UNL     1       2.009   5.298  17.752  0.00  0.00    +0.000 OA
ATOM      4  S   UNL     1       3.093   6.117  18.255  0.00  0.00    +0.000 S 
ATOM      5  O   UNL     1       3.204   7.522  17.959  0.00  0.00    +0.000 OA
BRANCH   4   6
ATOM      6  C   UNL     1       4.585   5.402  17.600  0.00  0.00    +0.000 A 
ATOM      7  C   UNL     1       4.829   4.762  16.399  0.00  0.00    +0.000 A 
ATOM      8  C   UNL     1       6.157   4.262  16.311  0.00  0.00    +0.000 A 
ATOM      9  C   UNL     1       6.896   4.571  17.432  0.00  0.00    +0.000 A 
ATOM     10  S   UNL     1       5.991   5.480  18.569  0.00  0.00    +0.000 S 
ENDBRANCH   4   6
ENDBRANCH   1   4
BRANCH   1  11
ATOM     11  C   UNL     1       1.841   5.497  20.521  0.00  0.00    +0.000 C 
BRANCH  11  12
ATOM     12  C   UNL     1       2.053   4.328  21.471  0.00  0.00    +0.000 C 
BRANCH  12  13
ATOM     13  C   UNL     1       1.613   3.024  20.805  0.00  0.00    +0.000 C 
BRANCH  13  14
ATOM     14  C   UNL     1       2.611   2.518  19.826  0.00  0.00    +0.000 A 
ATOM     15  C   UNL     1       3.983   2.448  19.942  0.00  0.00    +0.000 A 
ATOM     16  N   UNL     1       4.420   1.920  18.758  0.00  0.00    +0.000 N 
ATOM     17  C   UNL     1       3.321   1.705  17.976  0.00  0.00    +0.000 A 
ATOM     18  N   UNL     1       2.216   2.052  18.594  0.00  0.00    +0.000 NA
ATOM     19  H   UNL     1       5.377   1.727  18.501  0.00  0.00    +0.000 HD
ENDBRANCH  13  14
ENDBRANCH  12  13
ENDBRANCH  11  12
ENDBRANCH   1  11
TORSDOF 6
ENDMDL
MODEL 3
REMARK VINA RESULT:      -5.9      2.708      5.474
REMARK  Name = 
REMARK  6 active torsions:
REMARK  status: ('A' for Active; 'I' for Inactive)
REMARK    1  A    between atoms: S_2  and  N_4
REMARK    2  A    between atoms: S_2  and  C_13
REMARK    3  A    between atoms: N_4  and  C_5
REMARK    4  A    between atoms: C_5  and  C_6
REMARK    5  A    between atoms: C_6  and  C_7
REMARK    6  A    between atoms: C_7  and  C_8
REMARK                            x       y       z     vdW  Elec       q    Type
REMARK                         _______ _______ _______ _____ _____    ______ ____
ROOT
ATOM      1  N   UNL     1       5.694   3.637  18.685  0.00  0.00    +0.000 NA
ATOM      2  H   UNL     1       6.446   3.388  18.040  0.00  0.00    +0.000 HD
ENDROOT
BRANCH   1   4
ATOM      3  O   UNL     1       3.872   4.212  17.002  0.00  0.00    +0.000 OA
ATOM      4  S   UNL     1       4.178   3.233  18.025  0.00  0.00    +0.000 S 
ATOM      5  O   UNL     1       4.183   1.816  17.763  0.00  0.00    +0.000 OA
BRANCH   4   6
ATOM      6  C   UNL     1       2.944   3.451  19.288  0.00  0.00    +0.000 A 
ATOM      7  C   UNL     1       2.881   2.967  20.582  0.00  0.00    +0.000 A 
ATOM      8  C   UNL     1       1.664   3.314  21.232  0.00  0.00    +0.000 A 
ATOM      9  C   UNL     1       0.856   4.086  20.426  0.00  0.00    +0.000 A 
ATOM     10  S   UNL     1       1.578   4.405  18.905  0.00  0.00    +0.000 S 
ENDBRANCH   4   6
ENDBRANCH   1   4
BRANCH   1  11
ATOM     11  C   UNL     1       5.760   5.001  19.231  0.00  0.00    +0.000 C 
BRANCH  11  12
ATOM     12  C   UNL     1       7.182   5.540  19.177  0.00  0.00    +0.000 C 
BRANCH  12  13
ATOM     13  C   UNL     1       7.327   6.524  18.015  0.00  0.00    +0.000 C 
BRANCH  13  14
ATOM     14  C   UNL     1       6.881   5.947  16.719  0.00  0.00    +0.000 A 
ATOM     15  C   UNL     1       5.851   6.351  15.897  0.00  0.00    +0.000 A 
ATOM     16  N   UNL     1       5.862   5.476  14.846  0.00  0.00    +0.000 N 
ATOM     17  C   UNL     1       6.870   4.581  15.071  0.00  0.00    +0.000 A 
ATOM     18  N   UNL     1       7.505   4.842  16.189  0.00  0.00    +0.000 NA
ATOM     19  H   UNL     1       5.240   5.481  14.052  0.00  0.00    +0.000 HD
ENDBRANCH  13  14
ENDBRANCH  12  13
ENDBRANCH  11  12
ENDBRANCH   1  11
TORSDOF 6
ENDMDL
MODEL 4
REMARK VINA RESULT:      -5.9      2.906      5.488
REMARK  Name = 
REMARK  6 active torsions:
REMARK  status: ('A' for Active; 'I' for Inactive)
REMARK    1  A    between atoms: S_2  and  N_4
REMARK    2  A    between atoms: S_2  and  C_13
REMARK    3  A    between atoms: N_4  and  C_5
REMARK    4  A    between atoms: C_5  and  C_6
REMARK    5  A    between atoms: C_6  and  C_7
REMARK    6  A    between atoms: C_7  and  C_8
REMARK                            x       y       z     vdW  Elec       q    Type
REMARK                         _______ _______ _______ _____ _____    ______ ____
ROOT
ATOM      1  N   UNL     1       4.642   5.875  19.715  0.00  0.00    +0.000 NA
ATOM      2  H   UNL     1       4.449   5.753  20.711  0.00  0.00    +0.000 HD
ENDROOT
BRANCH   1   4
ATOM      3  O   UNL     1       2.513   7.220  19.345  0.00  0.00    +0.000 OA
ATOM      4  S   UNL     1       3.195   6.048  18.836  0.00  0.00    +0.000 S 
ATOM      5  O   UNL     1       3.514   5.883  17.441  0.00  0.00    +0.000 OA
BRANCH   4   6
ATOM      6  C   UNL     1       2.141   4.668  19.221  0.00  0.00    +0.000 A 
ATOM      7  C   UNL     1       1.504   4.317  20.397  0.00  0.00    +0.000 A 
ATOM      8  C   UNL     1       0.819   3.075  20.294  0.00  0.00    +0.000 A 
ATOM      9  C   UNL     1       0.923   2.537  19.029  0.00  0.00    +0.000 A 
ATOM     10  S   UNL     1       1.823   3.543  17.973  0.00  0.00    +0.000 S 
ENDBRANCH   4   6
ENDBRANCH   1   4
BRANCH   1  11
ATOM     11  C   UNL     1       5.577   4.899  19.134  0.00  0.00    +0.000 C 
BRANCH  11  12
ATOM     12  C   UNL     1       6.780   5.599  18.519  0.00  0.00    +0.000 C 
BRANCH  12  13
ATOM     13  C   UNL     1       7.562   4.622  17.639  0.00  0.00    +0.000 C 
BRANCH  13  14
ATOM     14  C   UNL     1       7.017   4.536  16.258  0.00  0.00    +0.000 A 
ATOM     15  C   UNL     1       5.922   3.835  15.799  0.00  0.00    +0.000 A 
ATOM     16  N   UNL     1       5.870   4.085  14.455  0.00  0.00    +0.000 N 
ATOM     17  C   UNL     1       6.922   4.900  14.150  0.00  0.00    +0.000 A 
ATOM     18  N   UNL     1       7.629   5.194  15.217  0.00  0.00    +0.000 NA
ATOM     19  H   UNL     1       5.186   3.730  13.803  0.00  0.00    +0.000 HD
ENDBRANCH  13  14
ENDBRANCH  12  13
ENDBRANCH  11  12
ENDBRANCH   1  11
TORSDOF 6
ENDMDL
MODEL 5
REMARK VINA RESULT:      -5.7      2.454      5.382
REMARK  Name = 
REMARK  6 active torsions:
REMARK  status: ('A' for Active; 'I' for Inactive)
REMARK    1  A    between atoms: S_2  and  N_4
REMARK    2  A    between atoms: S_2  and  C_13
REMARK    3  A    between atoms: N_4  and  C_5
REMARK    4  A    between atoms: C_5  and  C_6
REMARK    5  A    between atoms: C_6  and  C_7
REMARK    6  A    between atoms: C_7  and  C_8
REMARK                            x       y       z     vdW  Elec       q    Type
REMARK                         _______ _______ _______ _____ _____    ______ ____
ROOT
ATOM      1  N   UNL     1       3.917   5.804  17.184  0.00  0.00    +0.000 NA
ATOM      2  H   UNL     1       4.478   6.638  17.003  0.00  0.00    +0.000 HD
ENDROOT
BRANCH   1   4
ATOM      3  O   UNL     1       4.623   5.542  19.616  0.00  0.00    +0.000 OA
ATOM      4  S   UNL     1       3.434   5.746  18.815  0.00  0.00    +0.000 S 
ATOM      5  O   UNL     1       2.529   6.845  19.038  0.00  0.00    +0.000 OA
BRANCH   4   6
ATOM      6  C   UNL     1       2.437   4.291  19.050  0.00  0.00    +0.000 A 
ATOM      7  C   UNL     1       1.384   3.789  18.308  0.00  0.00    +0.000 A 
ATOM      8  C   UNL     1       0.805   2.633  18.901  0.00  0.00    +0.000 A 
ATOM      9  C   UNL     1       1.462   2.267  20.056  0.00  0.00    +0.000 A 
ATOM     10  S   UNL     1       2.782   3.305  20.403  0.00  0.00    +0.000 S 
ENDBRANCH   4   6
ENDBRANCH   1   4
BRANCH   1  11
ATOM     11  C   UNL     1       4.489   4.542  16.689  0.00  0.00    +0.000 C 
BRANCH  11  12
ATOM     12  C   UNL     1       5.457   4.797  15.544  0.00  0.00    +0.000 C 
BRANCH  12  13
ATOM     13  C   UNL     1       6.886   4.472  15.982  0.00  0.00    +0.000 C 
BRANCH  13  14
ATOM     14  C   UNL     1       7.319   5.274  17.157  0.00  0.00    +0.000 A 
ATOM     15  C   UNL     1       7.437   6.642  17.279  0.00  0.00    +0.000 A 
ATOM     16  N   UNL     1       7.885   6.855  18.554  0.00  0.00    +0.000 N 
ATOM     17  C   UNL     1       8.033   5.632  19.144  0.00  0.00    +0.000 A 
ATOM     18  N   UNL     1       7.695   4.660  18.329  0.00  0.00    +0.000 NA
ATOM     19  H   UNL     1       8.077   7.747  18.984  0.00  0.00    +0.000 HD
ENDBRANCH  13  14
ENDBRANCH  12  13
ENDBRANCH  11  12
ENDBRANCH   1  11
TORSDOF 6
ENDMDL
MODEL 6
REMARK VINA RESULT:      -5.6      2.371      5.547
REMARK  Name = 
REMARK  6 active torsions:
REMARK  status: ('A' for Active; 'I' for Inactive)
REMARK    1  A    between atoms: S_2  and  N_4
REMARK    2  A    between atoms: S_2  and  C_13
REMARK    3  A    between atoms: N_4  and  C_5
REMARK    4  A    between atoms: C_5  and  C_6
REMARK    5  A    between atoms: C_6  and  C_7
REMARK    6  A    between atoms: C_7  and  C_8
REMARK                            x       y       z     vdW  Elec       q    Type
REMARK                         _______ _______ _______ _____ _____    ______ ____
ROOT
ATOM      1  N   UNL     1       4.846   3.365  17.483  0.00  0.00    +0.000 NA
ATOM      2  H   UNL     1       4.325   2.545  17.168  0.00  0.00    +0.000 HD
ENDROOT
BRANCH   1   4
ATOM      3  O   UNL     1       5.244   2.598  19.878  0.00  0.00    +0.000 OA
ATOM      4  S   UNL     1       4.576   3.650  19.139  0.00  0.00    +0.000 S 
ATOM      5  O   UNL     1       4.827   5.047  19.384  0.00  0.00    +0.000 OA
BRANCH   4   6
ATOM      6  C   UNL     1       2.839   3.443  19.464  0.00  0.00    +0.000 A 
ATOM      7  C   UNL     1       2.051   3.914  20.498  0.00  0.00    +0.000 A 
ATOM      8  C   UNL     1       0.713   3.439  20.419  0.00  0.00    +0.000 A 
ATOM      9  C   UNL     1       0.513   2.652  19.305  0.00  0.00    +0.000 A 
ATOM     10  S   UNL     1       1.932   2.512  18.353  0.00  0.00    +0.000 S 
ENDBRANCH   4   6
ENDBRANCH   1   4
BRANCH   1  11
ATOM     11  C   UNL     1       4.701   4.563  16.642  0.00  0.00    +0.000 C 
BRANCH  11  12
ATOM     12  C   UNL     1       5.466   4.407  15.337  0.00  0.00    +0.000 C 
BRANCH  12  13
ATOM     13  C   UNL     1       6.967   4.558  15.587  0.00  0.00    +0.000 C 
BRANCH  13  14
ATOM     14  C   UNL     1       7.269   5.502  16.696  0.00  0.00    +0.000 A 
ATOM     15  C   UNL     1       7.697   5.227  17.977  0.00  0.00    +0.000 A 
ATOM     16  N   UNL     1       7.808   6.445  18.590  0.00  0.00    +0.000 N 
ATOM     17  C   UNL     1       7.438   7.395  17.681  0.00  0.00    +0.000 A 
ATOM     18  N   UNL     1       7.112   6.858  16.529  0.00  0.00    +0.000 NA
ATOM     19  H   UNL     1       8.103   6.616  19.539  0.00  0.00    +0.000 HD
ENDBRANCH  13  14
ENDBRANCH  12  13
ENDBRANCH  11  12
ENDBRANCH   1  11
TORSDOF 6
ENDMDL
MODEL 7
REMARK VINA RESULT:      -5.6      1.861      3.384
REMARK  Name = 
REMARK  6 active torsions:
REMARK  status: ('A' for Active; 'I' for Inactive)
REMARK    1  A    between atoms: S_2  and  N_4
REMARK    2  A    between atoms: S_2  and  C_13
REMARK    3  A    between atoms: N_4  and  C_5
REMARK    4  A    between atoms: C_5  and  C_6
REMARK    5  A    between atoms: C_6  and  C_7
REMARK    6  A    between atoms: C_7  and  C_8
REMARK                            x       y       z     vdW  Elec       q    Type
REMARK                         _______ _______ _______ _____ _____    ______ ____
ROOT
ATOM      1  N   UNL     1       5.209   3.537  17.619  0.00  0.00    +0.000 NA
ATOM      2  H   UNL     1       5.193   2.813  18.338  0.00  0.00    +0.000 HD
ENDROOT
BRANCH   1   4
ATOM      3  O   UNL     1       6.053   4.798  19.663  0.00  0.00    +0.000 OA
ATOM      4  S   UNL     1       5.738   5.020  18.267  0.00  0.00    +0.000 S 
ATOM      5  O   UNL     1       6.685   5.584  17.339  0.00  0.00    +0.000 OA
BRANCH   4   6
ATOM      6  C   UNL     1       4.368   6.155  18.253  0.00  0.00    +0.000 A 
ATOM      7  C   UNL     1       4.057   7.186  17.386  0.00  0.00    +0.000 A 
ATOM      8  C   UNL     1       2.901   7.907  17.793  0.00  0.00    +0.000 A 
ATOM      9  C   UNL     1       2.343   7.377  18.936  0.00  0.00    +0.000 A 
ATOM     10  S   UNL     1       3.203   6.004  19.496  0.00  0.00    +0.000 S 
ENDBRANCH   4   6
ENDBRANCH   1   4
BRANCH   1  11
ATOM     11  C   UNL     1       3.985   3.646  16.809  0.00  0.00    +0.000 C 
BRANCH  11  12
ATOM     12  C   UNL     1       2.871   2.790  17.393  0.00  0.00    +0.000 C 
BRANCH  12  13
ATOM     13  C   UNL     1       3.397   1.979  18.577  0.00  0.00    +0.000 C 
BRANCH  13  14
ATOM     14  C   UNL     1       2.757   2.365  19.863  0.00  0.00    +0.000 A 
ATOM     15  C   UNL     1       3.332   2.524  21.105  0.00  0.00    +0.000 A 
ATOM     16  N   UNL     1       2.304   2.869  21.939  0.00  0.00    +0.000 N 
ATOM     17  C   UNL     1       1.162   2.893  21.190  0.00  0.00    +0.000 A 
ATOM     18  N   UNL     1       1.403   2.598  19.934  0.00  0.00    +0.000 NA
ATOM     19  H   UNL     1       2.369   3.065  22.926  0.00  0.00    +0.000 HD
ENDBRANCH  13  14
ENDBRANCH  12  13
ENDBRANCH  11  12
ENDBRANCH   1  11
TORSDOF 6
ENDMDL
MODEL 8
REMARK VINA RESULT:      -5.6      2.226      2.731
REMARK  Name = 
REMARK  6 active torsions:
REMARK  status: ('A' for Active; 'I' for Inactive)
REMARK    1  A    between atoms: S_2  and  N_4
REMARK    2  A    between atoms: S_2  and  C_13
REMARK    3  A    between atoms: N_4  and  C_5
REMARK    4  A    between atoms: C_5  and  C_6
REMARK    5  A    between atoms: C_6  and  C_7
REMARK    6  A    between atoms: C_7  and  C_8
REMARK                            x       y       z     vdW  Elec       q    Type
REMARK                         _______ _______ _______ _____ _____    ______ ____
ROOT
ATOM      1  N   UNL     1       3.308   5.656  19.973  0.00  0.00    +0.000 NA
ATOM      2  H   UNL     1       4.064   6.091  20.504  0.00  0.00    +0.000 HD
ENDROOT
BRANCH   1   4
ATOM      3  O   UNL     1       2.680   4.941  17.612  0.00  0.00    +0.000 OA
ATOM      4  S   UNL     1       3.537   5.882  18.302  0.00  0.00    +0.000 S 
ATOM      5  O   UNL     1       3.494   7.300  18.048  0.00  0.00    +0.000 OA
BRANCH   4   6
ATOM      6  C   UNL     1       5.203   5.406  17.898  0.00  0.00    +0.000 A 
ATOM      7  C   UNL     1       6.397   5.656  18.549  0.00  0.00    +0.000 A 
ATOM      8  C   UNL     1       7.520   5.159  17.832  0.00  0.00    +0.000 A 
ATOM      9  C   UNL     1       7.143   4.510  16.675  0.00  0.00    +0.000 A 
ATOM     10  S   UNL     1       5.441   4.486  16.476  0.00  0.00    +0.000 S 
ENDBRANCH   4   6
ENDBRANCH   1   4
BRANCH   1  11
ATOM     11  C   UNL     1       1.949   5.979  20.436  0.00  0.00    +0.000 C 
BRANCH  11  12
ATOM     12  C   UNL     1       1.103   4.720  20.556  0.00  0.00    +0.000 C 
BRANCH  12  13
ATOM     13  C   UNL     1       1.944   3.574  21.119  0.00  0.00    +0.000 C 
BRANCH  13  14
ATOM     14  C   UNL     1       2.481   2.684  20.056  0.00  0.00    +0.000 A 
ATOM     15  C   UNL     1       1.797   1.881  19.168  0.00  0.00    +0.000 A 
ATOM     16  N   UNL     1       2.762   1.266  18.419  0.00  0.00    +0.000 N 
ATOM     17  C   UNL     1       3.973   1.697  18.879  0.00  0.00    +0.000 A 
ATOM     18  N   UNL     1       3.837   2.556  19.862  0.00  0.00    +0.000 NA
ATOM     19  H   UNL     1       2.613   0.609  17.668  0.00  0.00    +0.000 HD
ENDBRANCH  13  14
ENDBRANCH  12  13
ENDBRANCH  11  12
ENDBRANCH   1  11
TORSDOF 6
ENDMDL
MODEL 9
REMARK VINA RESULT:      -5.6      2.312      2.840
REMARK  Name = 
REMARK  6 active torsions:
REMARK  status: ('A' for Active; 'I' for Inactive)
REMARK    1  A    between atoms: S_2  and  N_4
REMARK    2  A    between atoms: S_2  and  C_13
REMARK    3  A    between atoms: N_4  and  C_5
REMARK    4  A    between atoms: C_5  and  C_6
REMARK    5  A    between atoms: C_6  and  C_7
REMARK    6  A    between atoms: C_7  and  C_8
REMARK                            x       y       z     vdW  Elec       q    Type
REMARK                         _______ _______ _______ _____ _____    ______ ____
ROOT
ATOM      1  N   UNL     1       5.362   4.603  16.968  0.00  0.00    +0.000 NA
ATOM      2  H   UNL     1       5.534   3.728  17.466  0.00  0.00    +0.000 HD
ENDROOT
BRANCH   1   4
ATOM      3  O   UNL     1       6.738   6.550  16.078  0.00  0.00    +0.000 OA
ATOM      4  S   UNL     1       6.756   5.103  16.130  0.00  0.00    +0.000 S 
ATOM      5  O   UNL     1       7.870   4.361  16.661  0.00  0.00    +0.000 OA
BRANCH   4   6
ATOM      6  C   UNL     1       6.617   4.556  14.442  0.00  0.00    +0.000 A 
ATOM      7  C   UNL     1       5.697   3.721  13.836  0.00  0.00    +0.000 A 
ATOM      8  C   UNL     1       6.006   3.475  12.470  0.00  0.00    +0.000 A 
ATOM      9  C   UNL     1       7.130   4.163  12.067  0.00  0.00    +0.000 A 
ATOM     10  S   UNL     1       7.789   5.116  13.330  0.00  0.00    +0.000 S 
ENDBRANCH   4   6
ENDBRANCH   1   4
BRANCH   1  11
ATOM     11  C   UNL     1       4.735   5.667  17.768  0.00  0.00    +0.000 C 
BRANCH  11  12
ATOM     12  C   UNL     1       4.785   5.333  19.251  0.00  0.00    +0.000 C 
BRANCH  12  13
ATOM     13  C   UNL     1       3.419   4.832  19.722  0.00  0.00    +0.000 C 
BRANCH  13  14
ATOM     14  C   UNL     1       3.073   3.501  19.158  0.00  0.00    +0.000 A 
ATOM     15  C   UNL     1       1.848   3.025  18.742  0.00  0.00    +0.000 A 
ATOM     16  N   UNL     1       2.080   1.744  18.324  0.00  0.00    +0.000 N 
ATOM     17  C   UNL     1       3.408   1.488  18.511  0.00  0.00    +0.000 A 
ATOM     18  N   UNL     1       4.035   2.529  19.007  0.00  0.00    +0.000 NA
ATOM     19  H   UNL     1       1.399   1.099  17.952  0.00  0.00    +0.000 HD
ENDBRANCH  13  14
ENDBRANCH  12  13
ENDBRANCH  11  12
ENDBRANCH   1  11
TORSDOF 6
ENDMDL
