MODEL 1
REMARK VINA RESULT:      -8.8      0.000      0.000
REMARK  Name = 
REMARK  8 active torsions:
REMARK  status: ('A' for Active; 'I' for Inactive)
REMARK    1  A    between atoms: C_1  and  C_2
REMARK    2  A    between atoms: C_2  and  N_3
REMARK    3  A    between atoms: N_3  and  C_4
REMARK    4  A    between atoms: N_3  and  S_10
REMARK    5  A    between atoms: S_10  and  C_13
REMARK    6  A    between atoms: C_16  and  C_17
REMARK    7  A    between atoms: N_19  and  N_20
REMARK    8  A    between atoms: C_21  and  C_23
REMARK                            x       y       z     vdW  Elec       q    Type
REMARK                         _______ _______ _______ _____ _____    ______ ____
ROOT
ATOM      1  C   UNL     1       3.482   5.647  18.454  0.00  0.00    +0.000 A 
ATOM      2  C   UNL     1       3.390   6.772  17.627  0.00  0.00    +0.000 A 
ATOM      3  C   UNL     1       2.690   7.910  18.062  0.00  0.00    +0.000 A 
ATOM      4  C   UNL     1       2.046   7.932  19.311  0.00  0.00    +0.000 A 
ATOM      5  C   UNL     1       2.150   6.798  20.133  0.00  0.00    +0.000 A 
ATOM      6  C   UNL     1       2.863   5.665  19.709  0.00  0.00    +0.000 A 
ENDROOT
BRANCH   4   7
ATOM      7  C   UNL     1       1.251   9.153  19.687  0.00  0.00    +0.000 C 
ATOM      8  O   UNL     1       1.435  10.220  19.110  0.00  0.00    +0.000 OA
ATOM      9  N   UNL     1       0.315   9.012  20.696  0.00  0.00    +0.000 N 
ATOM     10  H   UNL     1       0.096   8.153  21.190  0.00  0.00    +0.000 HD
BRANCH   9  11
ATOM     11  N   UNL     1      -0.460  10.112  21.069  0.00  0.00    +0.000 N 
ATOM     12  C   UNL     1      -0.291  10.629  22.344  0.00  0.00    +0.000 C 
ATOM     13  O   UNL     1       0.530  10.152  23.129  0.00  0.00    +0.000 OA
ATOM     14  H   UNL     1      -1.140  10.465  20.391  0.00  0.00    +0.000 HD
BRANCH  12  15
ATOM     15  C   UNL     1      -1.137  11.784  22.749  0.00  0.00    +0.000 A 
ATOM     16  C   UNL     1      -2.397  11.536  23.316  0.00  0.00    +0.000 A 
ATOM     17  C   UNL     1      -3.228  12.597  23.696  0.00  0.00    +0.000 A 
ATOM     18  C   UNL     1      -2.808  13.913  23.509  0.00  0.00    +0.000 A 
ATOM     19  C   UNL     1      -1.558  14.169  22.948  0.00  0.00    +0.000 A 
ATOM     20  C   UNL     1      -0.732  13.110  22.576  0.00  0.00    +0.000 A 
ATOM     21  F   UNL     1       0.462  13.403  22.040  0.00  0.00    +0.000 F 
ENDBRANCH  12  15
ENDBRANCH   9  11
ENDBRANCH   4   7
BRANCH   1  22
ATOM     22  S   UNL     1       4.103   4.093  17.793  0.00  0.00    +0.000 S 
ATOM     23  O   UNL     1       3.079   3.594  16.896  0.00  0.00    +0.000 OA
ATOM     24  O   UNL     1       4.515   3.304  18.937  0.00  0.00    +0.000 OA
BRANCH  22  25
ATOM     25  N   UNL     1       5.494   4.476  16.900  0.00  0.00    +0.000 N 
BRANCH  25  26
ATOM     26  C   UNL     1       6.443   5.395  17.462  0.00  0.00    +0.000 A 
ATOM     27  C   UNL     1       7.166   5.107  18.622  0.00  0.00    +0.000 A 
ATOM     28  C   UNL     1       8.009   6.079  19.185  0.00  0.00    +0.000 A 
ATOM     29  C   UNL     1       8.157   7.323  18.571  0.00  0.00    +0.000 A 
ATOM     30  C   UNL     1       7.470   7.599  17.391  0.00  0.00    +0.000 A 
ATOM     31  C   UNL     1       6.608   6.641  16.847  0.00  0.00    +0.000 A 
ENDBRANCH  25  26
BRANCH  25  33
ATOM     32  C   UNL     1       5.524   4.362  14.422  0.00  0.00    +0.000 C 
ATOM     33  C   UNL     1       5.846   3.645  15.731  0.00  0.00    +0.000 C 
ENDBRANCH  25  33
ENDBRANCH  22  25
ENDBRANCH   1  22
TORSDOF 7
ENDMDL
MODEL 2
REMARK VINA RESULT:      -8.7      2.129      3.341
REMARK  Name = 
REMARK  8 active torsions:
REMARK  status: ('A' for Active; 'I' for Inactive)
REMARK    1  A    between atoms: C_1  and  C_2
REMARK    2  A    between atoms: C_2  and  N_3
REMARK    3  A    between atoms: N_3  and  C_4
REMARK    4  A    between atoms: N_3  and  S_10
REMARK    5  A    between atoms: S_10  and  C_13
REMARK    6  A    between atoms: C_16  and  C_17
REMARK    7  A    between atoms: N_19  and  N_20
REMARK    8  A    between atoms: C_21  and  C_23
REMARK                            x       y       z     vdW  Elec       q    Type
REMARK                         _______ _______ _______ _____ _____    ______ ____
ROOT
ATOM      1  C   UNL     1       3.402   6.961  18.457  0.00  0.00    +0.000 A 
ATOM      2  C   UNL     1       2.772   6.894  19.705  0.00  0.00    +0.000 A 
ATOM      3  C   UNL     1       1.779   7.829  20.044  0.00  0.00    +0.000 A 
ATOM      4  C   UNL     1       1.424   8.862  19.159  0.00  0.00    +0.000 A 
ATOM      5  C   UNL     1       2.060   8.915  17.909  0.00  0.00    +0.000 A 
ATOM      6  C   UNL     1       3.041   7.973  17.560  0.00  0.00    +0.000 A 
ENDROOT
BRANCH   4   7
ATOM      7  C   UNL     1       0.407   9.875  19.612  0.00  0.00    +0.000 C 
ATOM      8  O   UNL     1      -0.589  10.106  18.935  0.00  0.00    +0.000 OA
ATOM      9  N   UNL     1       0.647  10.517  20.814  0.00  0.00    +0.000 N 
ATOM     10  H   UNL     1       1.434  10.350  21.432  0.00  0.00    +0.000 HD
BRANCH   9  11
ATOM     11  N   UNL     1      -0.276  11.453  21.286  0.00  0.00    +0.000 N 
ATOM     12  C   UNL     1      -0.661  11.378  22.616  0.00  0.00    +0.000 C 
ATOM     13  O   UNL     1      -0.195  10.527  23.374  0.00  0.00    +0.000 OA
ATOM     14  H   UNL     1      -0.648  12.131  20.617  0.00  0.00    +0.000 HD
BRANCH  12  15
ATOM     15  C   UNL     1      -1.665  12.359  23.109  0.00  0.00    +0.000 A 
ATOM     16  C   UNL     1      -2.948  11.903  23.453  0.00  0.00    +0.000 A 
ATOM     17  C   UNL     1      -3.923  12.797  23.907  0.00  0.00    +0.000 A 
ATOM     18  C   UNL     1      -3.627  14.155  24.019  0.00  0.00    +0.000 A 
ATOM     19  C   UNL     1      -2.356  14.617  23.682  0.00  0.00    +0.000 A 
ATOM     20  C   UNL     1      -1.386  13.722  23.235  0.00  0.00    +0.000 A 
ATOM     21  F   UNL     1      -0.177  14.211  22.921  0.00  0.00    +0.000 F 
ENDBRANCH  12  15
ENDBRANCH   9  11
ENDBRANCH   4   7
BRANCH   1  22
ATOM     22  S   UNL     1       4.870   5.973  18.136  0.00  0.00    +0.000 S 
ATOM     23  O   UNL     1       5.312   5.470  19.423  0.00  0.00    +0.000 OA
ATOM     24  O   UNL     1       5.750   6.805  17.340  0.00  0.00    +0.000 OA
BRANCH  22  25
ATOM     25  N   UNL     1       4.368   4.673  17.168  0.00  0.00    +0.000 N 
BRANCH  25  26
ATOM     26  C   UNL     1       3.363   3.782  17.675  0.00  0.00    +0.000 A 
ATOM     27  C   UNL     1       2.003   4.100  17.653  0.00  0.00    +0.000 A 
ATOM     28  C   UNL     1       1.070   3.238  18.250  0.00  0.00    +0.000 A 
ATOM     29  C   UNL     1       1.490   2.044  18.839  0.00  0.00    +0.000 A 
ATOM     30  C   UNL     1       2.841   1.705  18.826  0.00  0.00    +0.000 A 
ATOM     31  C   UNL     1       3.773   2.578  18.257  0.00  0.00    +0.000 A 
ENDBRANCH  25  26
BRANCH  25  33
ATOM     32  C   UNL     1       5.926   3.736  15.479  0.00  0.00    +0.000 C 
ATOM     33  C   UNL     1       4.739   4.661  15.738  0.00  0.00    +0.000 C 
ENDBRANCH  25  33
ENDBRANCH  22  25
ENDBRANCH   1  22
TORSDOF 7
ENDMDL
MODEL 3
REMARK VINA RESULT:      -8.6      4.841      8.130
REMARK  Name = 
REMARK  8 active torsions:
REMARK  status: ('A' for Active; 'I' for Inactive)
REMARK    1  A    between atoms: C_1  and  C_2
REMARK    2  A    between atoms: C_2  and  N_3
REMARK    3  A    between atoms: N_3  and  C_4
REMARK    4  A    between atoms: N_3  and  S_10
REMARK    5  A    between atoms: S_10  and  C_13
REMARK    6  A    between atoms: C_16  and  C_17
REMARK    7  A    between atoms: N_19  and  N_20
REMARK    8  A    between atoms: C_21  and  C_23
REMARK                            x       y       z     vdW  Elec       q    Type
REMARK                         _______ _______ _______ _____ _____    ______ ____
ROOT
ATOM      1  C   UNL     1       4.826   3.867  18.328  0.00  0.00    +0.000 A 
ATOM      2  C   UNL     1       5.039   4.190  16.983  0.00  0.00    +0.000 A 
ATOM      3  C   UNL     1       5.901   5.245  16.641  0.00  0.00    +0.000 A 
ATOM      4  C   UNL     1       6.536   6.014  17.632  0.00  0.00    +0.000 A 
ATOM      5  C   UNL     1       6.316   5.676  18.978  0.00  0.00    +0.000 A 
ATOM      6  C   UNL     1       5.469   4.611  19.323  0.00  0.00    +0.000 A 
ENDROOT
BRANCH   4   7
ATOM      7  C   UNL     1       7.388   7.177  17.201  0.00  0.00    +0.000 C 
ATOM      8  O   UNL     1       8.115   7.088  16.218  0.00  0.00    +0.000 OA
ATOM      9  N   UNL     1       7.307   8.334  17.957  0.00  0.00    +0.000 N 
ATOM     10  H   UNL     1       6.706   8.479  18.761  0.00  0.00    +0.000 HD
BRANCH   9  11
ATOM     11  N   UNL     1       8.065   9.447  17.587  0.00  0.00    +0.000 N 
ATOM     12  C   UNL     1       8.908  10.007  18.535  0.00  0.00    +0.000 C 
ATOM     13  O   UNL     1       9.007   9.536  19.668  0.00  0.00    +0.000 OA
ATOM     14  H   UNL     1       7.938   9.814  16.642  0.00  0.00    +0.000 HD
BRANCH  12  15
ATOM     15  C   UNL     1       9.694  11.209  18.147  0.00  0.00    +0.000 A 
ATOM     16  C   UNL     1      11.090  11.185  18.299  0.00  0.00    +0.000 A 
ATOM     17  C   UNL     1      11.863  12.301  17.959  0.00  0.00    +0.000 A 
ATOM     18  C   UNL     1      11.248  13.451  17.466  0.00  0.00    +0.000 A 
ATOM     19  C   UNL     1       9.863  13.484  17.310  0.00  0.00    +0.000 A 
ATOM     20  C   UNL     1       9.098  12.369  17.646  0.00  0.00    +0.000 A 
ATOM     21  F   UNL     1       7.770  12.445  17.479  0.00  0.00    +0.000 F 
ENDBRANCH  12  15
ENDBRANCH   9  11
ENDBRANCH   4   7
BRANCH   1  22
ATOM     22  S   UNL     1       3.504   2.734  18.782  0.00  0.00    +0.000 S 
ATOM     23  O   UNL     1       4.066   1.824  19.762  0.00  0.00    +0.000 OA
ATOM     24  O   UNL     1       2.967   2.222  17.538  0.00  0.00    +0.000 OA
BRANCH  22  25
ATOM     25  N   UNL     1       2.300   3.677  19.518  0.00  0.00    +0.000 N 
BRANCH  25  26
ATOM     26  C   UNL     1       2.297   5.094  19.289  0.00  0.00    +0.000 A 
ATOM     27  C   UNL     1       2.264   6.020  20.334  0.00  0.00    +0.000 A 
ATOM     28  C   UNL     1       2.164   7.392  20.055  0.00  0.00    +0.000 A 
ATOM     29  C   UNL     1       2.132   7.841  18.733  0.00  0.00    +0.000 A 
ATOM     30  C   UNL     1       2.206   6.923  17.689  0.00  0.00    +0.000 A 
ATOM     31  C   UNL     1       2.277   5.555  17.969  0.00  0.00    +0.000 A 
ENDBRANCH  25  26
BRANCH  25  33
ATOM     32  C   UNL     1       1.330   2.747  21.604  0.00  0.00    +0.000 C 
ATOM     33  C   UNL     1       1.127   3.004  20.112  0.00  0.00    +0.000 C 
ENDBRANCH  25  33
ENDBRANCH  22  25
ENDBRANCH   1  22
TORSDOF 7
ENDMDL
MODEL 4
REMARK VINA RESULT:      -8.5      0.807      1.198
REMARK  Name = 
REMARK  8 active torsions:
REMARK  status: ('A' for Active; 'I' for Inactive)
REMARK    1  A    between atoms: C_1  and  C_2
REMARK    2  A    between atoms: C_2  and  N_3
REMARK    3  A    between atoms: N_3  and  C_4
REMARK    4  A    between atoms: N_3  and  S_10
REMARK    5  A    between atoms: S_10  and  C_13
REMARK    6  A    between atoms: C_16  and  C_17
REMARK    7  A    between atoms: N_19  and  N_20
REMARK    8  A    between atoms: C_21  and  C_23
REMARK                            x       y       z     vdW  Elec       q    Type
REMARK                         _______ _______ _______ _____ _____    ______ ____
ROOT
ATOM      1  C   UNL     1       2.986   6.158  18.761  0.00  0.00    +0.000 A 
ATOM      2  C   UNL     1       2.713   7.159  17.822  0.00  0.00    +0.000 A 
ATOM      3  C   UNL     1       2.000   8.308  18.204  0.00  0.00    +0.000 A 
ATOM      4  C   UNL     1       1.518   8.460  19.517  0.00  0.00    +0.000 A 
ATOM      5  C   UNL     1       1.802   7.450  20.450  0.00  0.00    +0.000 A 
ATOM      6  C   UNL     1       2.530   6.308  20.076  0.00  0.00    +0.000 A 
ENDROOT
BRANCH   4   7
ATOM      7  C   UNL     1       0.697   9.678  19.842  0.00  0.00    +0.000 C 
ATOM      8  O   UNL     1       0.073  10.263  18.965  0.00  0.00    +0.000 OA
ATOM      9  N   UNL     1       0.681  10.094  21.163  0.00  0.00    +0.000 N 
ATOM     10  H   UNL     1       1.152   9.638  21.937  0.00  0.00    +0.000 HD
BRANCH   9  11
ATOM     11  N   UNL     1      -0.080  11.209  21.519  0.00  0.00    +0.000 N 
ATOM     12  C   UNL     1      -0.790  11.164  22.708  0.00  0.00    +0.000 C 
ATOM     13  O   UNL     1      -0.745  10.180  23.447  0.00  0.00    +0.000 OA
ATOM     14  H   UNL     1      -0.101  11.997  20.866  0.00  0.00    +0.000 HD
BRANCH  12  15
ATOM     15  C   UNL     1      -1.622  12.342  23.072  0.00  0.00    +0.000 A 
ATOM     16  C   UNL     1      -2.960  12.139  23.446  0.00  0.00    +0.000 A 
ATOM     17  C   UNL     1      -3.778  13.224  23.781  0.00  0.00    +0.000 A 
ATOM     18  C   UNL     1      -3.267  14.521  23.743  0.00  0.00    +0.000 A 
ATOM     19  C   UNL     1      -1.939  14.732  23.375  0.00  0.00    +0.000 A 
ATOM     20  C   UNL     1      -1.127  13.648  23.046  0.00  0.00    +0.000 A 
ATOM     21  F   UNL     1       0.143  13.899  22.697  0.00  0.00    +0.000 F 
ENDBRANCH  12  15
ENDBRANCH   9  11
ENDBRANCH   4   7
BRANCH   1  22
ATOM     22  S   UNL     1       3.621   4.565  18.219  0.00  0.00    +0.000 S 
ATOM     23  O   UNL     1       2.556   3.939  17.459  0.00  0.00    +0.000 OA
ATOM     24  O   UNL     1       4.147   3.916  19.404  0.00  0.00    +0.000 OA
BRANCH  22  25
ATOM     25  N   UNL     1       4.926   4.898  17.187  0.00  0.00    +0.000 N 
BRANCH  25  26
ATOM     26  C   UNL     1       5.993   5.729  17.670  0.00  0.00    +0.000 A 
ATOM     27  C   UNL     1       6.258   6.992  17.135  0.00  0.00    +0.000 A 
ATOM     28  C   UNL     1       7.373   7.722  17.575  0.00  0.00    +0.000 A 
ATOM     29  C   UNL     1       8.202   7.208  18.574  0.00  0.00    +0.000 A 
ATOM     30  C   UNL     1       7.916   5.968  19.139  0.00  0.00    +0.000 A 
ATOM     31  C   UNL     1       6.822   5.228  18.679  0.00  0.00    +0.000 A 
ENDBRANCH  25  26
BRANCH  25  33
ATOM     32  C   UNL     1       5.621   4.950  14.806  0.00  0.00    +0.000 C 
ATOM     33  C   UNL     1       5.087   4.098  15.955  0.00  0.00    +0.000 C 
ENDBRANCH  25  33
ENDBRANCH  22  25
ENDBRANCH   1  22
TORSDOF 7
ENDMDL
MODEL 5
REMARK VINA RESULT:      -8.3      5.812      8.463
REMARK  Name = 
REMARK  8 active torsions:
REMARK  status: ('A' for Active; 'I' for Inactive)
REMARK    1  A    between atoms: C_1  and  C_2
REMARK    2  A    between atoms: C_2  and  N_3
REMARK    3  A    between atoms: N_3  and  C_4
REMARK    4  A    between atoms: N_3  and  S_10
REMARK    5  A    between atoms: S_10  and  C_13
REMARK    6  A    between atoms: C_16  and  C_17
REMARK    7  A    between atoms: N_19  and  N_20
REMARK    8  A    between atoms: C_21  and  C_23
REMARK                            x       y       z     vdW  Elec       q    Type
REMARK                         _______ _______ _______ _____ _____    ______ ____
ROOT
ATOM      1  C   UNL     1       7.340   6.360  18.011  0.00  0.00    +0.000 A 
ATOM      2  C   UNL     1       8.169   6.551  19.123  0.00  0.00    +0.000 A 
ATOM      3  C   UNL     1       8.718   7.818  19.382  0.00  0.00    +0.000 A 
ATOM      4  C   UNL     1       8.478   8.903  18.520  0.00  0.00    +0.000 A 
ATOM      5  C   UNL     1       7.641   8.699  17.411  0.00  0.00    +0.000 A 
ATOM      6  C   UNL     1       7.077   7.438  17.158  0.00  0.00    +0.000 A 
ENDROOT
BRANCH   4   7
ATOM      7  C   UNL     1       9.156  10.214  18.813  0.00  0.00    +0.000 C 
ATOM      8  O   UNL     1       9.500  10.499  19.955  0.00  0.00    +0.000 OA
ATOM      9  N   UNL     1       9.371  11.066  17.743  0.00  0.00    +0.000 N 
ATOM     10  H   UNL     1       9.137  10.877  16.774  0.00  0.00    +0.000 HD
BRANCH   9  11
ATOM     11  N   UNL     1      10.012  12.288  17.960  0.00  0.00    +0.000 N 
ATOM     12  C   UNL     1       9.258  13.448  17.868  0.00  0.00    +0.000 C 
ATOM     13  O   UNL     1       8.053  13.414  17.620  0.00  0.00    +0.000 OA
ATOM     14  H   UNL     1      11.018  12.269  18.147  0.00  0.00    +0.000 HD
BRANCH  12  15
ATOM     15  C   UNL     1       9.950  14.749  18.073  0.00  0.00    +0.000 A 
ATOM     16  C   UNL     1      10.942  15.141  17.160  0.00  0.00    +0.000 A 
ATOM     17  C   UNL     1      11.625  16.351  17.327  0.00  0.00    +0.000 A 
ATOM     18  C   UNL     1      11.324  17.178  18.408  0.00  0.00    +0.000 A 
ATOM     19  C   UNL     1      10.339  16.798  19.319  0.00  0.00    +0.000 A 
ATOM     20  C   UNL     1       9.659  15.594  19.146  0.00  0.00    +0.000 A 
ATOM     21  F   UNL     1       8.720  15.269  20.046  0.00  0.00    +0.000 F 
ENDBRANCH  12  15
ENDBRANCH   9  11
ENDBRANCH   4   7
BRANCH   1  22
ATOM     22  S   UNL     1       6.886   4.695  17.503  0.00  0.00    +0.000 S 
ATOM     23  O   UNL     1       6.464   4.003  18.705  0.00  0.00    +0.000 OA
ATOM     24  O   UNL     1       8.003   4.192  16.728  0.00  0.00    +0.000 OA
BRANCH  22  25
ATOM     25  N   UNL     1       5.561   4.861  16.456  0.00  0.00    +0.000 N 
BRANCH  25  26
ATOM     26  C   UNL     1       4.238   4.862  17.012  0.00  0.00    +0.000 A 
ATOM     27  C   UNL     1       3.667   6.004  17.580  0.00  0.00    +0.000 A 
ATOM     28  C   UNL     1       2.409   5.928  18.198  0.00  0.00    +0.000 A 
ATOM     29  C   UNL     1       1.707   4.721  18.219  0.00  0.00    +0.000 A 
ATOM     30  C   UNL     1       2.255   3.591  17.618  0.00  0.00    +0.000 A 
ATOM     31  C   UNL     1       3.521   3.661  17.028  0.00  0.00    +0.000 A 
ENDBRANCH  25  26
BRANCH  25  33
ATOM     32  C   UNL     1       5.729   4.124  14.092  0.00  0.00    +0.000 C 
ATOM     33  C   UNL     1       5.798   5.299  15.065  0.00  0.00    +0.000 C 
ENDBRANCH  25  33
ENDBRANCH  22  25
ENDBRANCH   1  22
TORSDOF 7
ENDMDL
MODEL 6
REMARK VINA RESULT:      -8.2      3.242      4.149
REMARK  Name = 
REMARK  8 active torsions:
REMARK  status: ('A' for Active; 'I' for Inactive)
REMARK    1  A    between atoms: C_1  and  C_2
REMARK    2  A    between atoms: C_2  and  N_3
REMARK    3  A    between atoms: N_3  and  C_4
REMARK    4  A    between atoms: N_3  and  S_10
REMARK    5  A    between atoms: S_10  and  C_13
REMARK    6  A    between atoms: C_16  and  C_17
REMARK    7  A    between atoms: N_19  and  N_20
REMARK    8  A    between atoms: C_21  and  C_23
REMARK                            x       y       z     vdW  Elec       q    Type
REMARK                         _______ _______ _______ _____ _____    ______ ____
ROOT
ATOM      1  C   UNL     1       2.766   6.452  19.134  0.00  0.00    +0.000 A 
ATOM      2  C   UNL     1       2.038   7.111  20.131  0.00  0.00    +0.000 A 
ATOM      3  C   UNL     1       1.500   8.385  19.885  0.00  0.00    +0.000 A 
ATOM      4  C   UNL     1       1.708   9.036  18.656  0.00  0.00    +0.000 A 
ATOM      5  C   UNL     1       2.438   8.362  17.662  0.00  0.00    +0.000 A 
ATOM      6  C   UNL     1       2.962   7.081  17.899  0.00  0.00    +0.000 A 
ENDROOT
BRANCH   4   7
ATOM      7  C   UNL     1       1.169  10.430  18.482  0.00  0.00    +0.000 C 
ATOM      8  O   UNL     1      -0.001  10.684  18.747  0.00  0.00    +0.000 OA
ATOM      9  N   UNL     1       2.048  11.394  18.021  0.00  0.00    +0.000 N 
ATOM     10  H   UNL     1       3.031  11.253  17.813  0.00  0.00    +0.000 HD
BRANCH   9  11
ATOM     11  N   UNL     1       1.600  12.707  17.860  0.00  0.00    +0.000 N 
ATOM     12  C   UNL     1       1.842  13.611  18.883  0.00  0.00    +0.000 C 
ATOM     13  O   UNL     1       2.450  13.281  19.903  0.00  0.00    +0.000 OA
ATOM     14  H   UNL     1       1.086  12.931  17.005  0.00  0.00    +0.000 HD
BRANCH  12  15
ATOM     15  C   UNL     1       1.340  15.002  18.721  0.00  0.00    +0.000 A 
ATOM     16  C   UNL     1       2.240  16.006  18.327  0.00  0.00    +0.000 A 
ATOM     17  C   UNL     1       1.809  17.328  18.177  0.00  0.00    +0.000 A 
ATOM     18  C   UNL     1       0.477  17.660  18.422  0.00  0.00    +0.000 A 
ATOM     19  C   UNL     1      -0.424  16.670  18.812  0.00  0.00    +0.000 A 
ATOM     20  C   UNL     1       0.009  15.353  18.955  0.00  0.00    +0.000 A 
ATOM     21  F   UNL     1      -0.892  14.433  19.332  0.00  0.00    +0.000 F 
ENDBRANCH  12  15
ENDBRANCH   9  11
ENDBRANCH   4   7
BRANCH   1  22
ATOM     22  S   UNL     1       3.709   4.974  19.536  0.00  0.00    +0.000 S 
ATOM     23  O   UNL     1       2.936   4.256  20.531  0.00  0.00    +0.000 OA
ATOM     24  O   UNL     1       5.052   5.423  19.844  0.00  0.00    +0.000 OA
BRANCH  22  25
ATOM     25  N   UNL     1       3.783   4.054  18.111  0.00  0.00    +0.000 N 
BRANCH  25  26
ATOM     26  C   UNL     1       4.904   4.232  17.232  0.00  0.00    +0.000 A 
ATOM     27  C   UNL     1       6.214   4.349  17.705  0.00  0.00    +0.000 A 
ATOM     28  C   UNL     1       7.262   4.620  16.812  0.00  0.00    +0.000 A 
ATOM     29  C   UNL     1       7.008   4.741  15.444  0.00  0.00    +0.000 A 
ATOM     30  C   UNL     1       5.710   4.584  14.965  0.00  0.00    +0.000 A 
ATOM     31  C   UNL     1       4.662   4.342  15.859  0.00  0.00    +0.000 A 
ENDBRANCH  25  26
BRANCH  25  33
ATOM     32  C   UNL     1       3.554   1.600  18.400  0.00  0.00    +0.000 C 
ATOM     33  C   UNL     1       2.878   2.896  17.959  0.00  0.00    +0.000 C 
ENDBRANCH  25  33
ENDBRANCH  22  25
ENDBRANCH   1  22
TORSDOF 7
ENDMDL
MODEL 7
REMARK VINA RESULT:      -8.2      2.212      3.494
REMARK  Name = 
REMARK  8 active torsions:
REMARK  status: ('A' for Active; 'I' for Inactive)
REMARK    1  A    between atoms: C_1  and  C_2
REMARK    2  A    between atoms: C_2  and  N_3
REMARK    3  A    between atoms: N_3  and  C_4
REMARK    4  A    between atoms: N_3  and  S_10
REMARK    5  A    between atoms: S_10  and  C_13
REMARK    6  A    between atoms: C_16  and  C_17
REMARK    7  A    between atoms: N_19  and  N_20
REMARK    8  A    between atoms: C_21  and  C_23
REMARK                            x       y       z     vdW  Elec       q    Type
REMARK                         _______ _______ _______ _____ _____    ______ ____
ROOT
ATOM      1  C   UNL     1       3.120   6.936  18.547  0.00  0.00    +0.000 A 
ATOM      2  C   UNL     1       2.598   7.020  19.842  0.00  0.00    +0.000 A 
ATOM      3  C   UNL     1       1.732   8.071  20.187  0.00  0.00    +0.000 A 
ATOM      4  C   UNL     1       1.402   9.072  19.256  0.00  0.00    +0.000 A 
ATOM      5  C   UNL     1       1.929   8.975  17.958  0.00  0.00    +0.000 A 
ATOM      6  C   UNL     1       2.781   7.915  17.606  0.00  0.00    +0.000 A 
ENDROOT
BRANCH   4   7
ATOM      7  C   UNL     1       0.529  10.211  19.709  0.00  0.00    +0.000 C 
ATOM      8  O   UNL     1       0.451  11.241  19.047  0.00  0.00    +0.000 OA
ATOM      9  N   UNL     1      -0.173  10.038  20.889  0.00  0.00    +0.000 N 
ATOM     10  H   UNL     1      -0.174   9.203  21.465  0.00  0.00    +0.000 HD
BRANCH   9  11
ATOM     11  N   UNL     1      -1.010  11.060  21.343  0.00  0.00    +0.000 N 
ATOM     12  C   UNL     1      -1.034  11.330  22.703  0.00  0.00    +0.000 C 
ATOM     13  O   UNL     1      -0.327  10.707  23.496  0.00  0.00    +0.000 OA
ATOM     14  H   UNL     1      -1.591  11.539  20.652  0.00  0.00    +0.000 HD
BRANCH  12  15
ATOM     15  C   UNL     1      -1.947  12.401  23.187  0.00  0.00    +0.000 A 
ATOM     16  C   UNL     1      -3.268  12.064  23.522  0.00  0.00    +0.000 A 
ATOM     17  C   UNL     1      -4.161  13.046  23.967  0.00  0.00    +0.000 A 
ATOM     18  C   UNL     1      -3.742  14.371  24.079  0.00  0.00    +0.000 A 
ATOM     19  C   UNL     1      -2.432  14.714  23.750  0.00  0.00    +0.000 A 
ATOM     20  C   UNL     1      -1.545  13.732  23.311  0.00  0.00    +0.000 A 
ATOM     21  F   UNL     1      -0.294  14.108  23.006  0.00  0.00    +0.000 F 
ENDBRANCH  12  15
ENDBRANCH   9  11
ENDBRANCH   4   7
BRANCH   1  22
ATOM     22  S   UNL     1       4.455   5.785  18.186  0.00  0.00    +0.000 S 
ATOM     23  O   UNL     1       5.270   5.718  19.385  0.00  0.00    +0.000 OA
ATOM     24  O   UNL     1       5.038   6.223  16.934  0.00  0.00    +0.000 OA
BRANCH  22  25
ATOM     25  N   UNL     1       3.724   4.277  17.920  0.00  0.00    +0.000 N 
BRANCH  25  26
ATOM     26  C   UNL     1       2.856   3.742  18.930  0.00  0.00    +0.000 A 
ATOM     27  C   UNL     1       1.466   3.731  18.792  0.00  0.00    +0.000 A 
ATOM     28  C   UNL     1       0.657   3.288  19.850  0.00  0.00    +0.000 A 
ATOM     29  C   UNL     1       1.237   2.823  21.032  0.00  0.00    +0.000 A 
ATOM     30  C   UNL     1       2.623   2.794  21.157  0.00  0.00    +0.000 A 
ATOM     31  C   UNL     1       3.427   3.264  20.114  0.00  0.00    +0.000 A 
ENDBRANCH  25  26
BRANCH  25  33
ATOM     32  C   UNL     1       5.178   3.428  16.097  0.00  0.00    +0.000 C 
ATOM     33  C   UNL     1       3.748   3.700  16.560  0.00  0.00    +0.000 C 
ENDBRANCH  25  33
ENDBRANCH  22  25
ENDBRANCH   1  22
TORSDOF 7
ENDMDL
MODEL 8
REMARK VINA RESULT:      -8.2      3.672      4.226
REMARK  Name = 
REMARK  8 active torsions:
REMARK  status: ('A' for Active; 'I' for Inactive)
REMARK    1  A    between atoms: C_1  and  C_2
REMARK    2  A    between atoms: C_2  and  N_3
REMARK    3  A    between atoms: N_3  and  C_4
REMARK    4  A    between atoms: N_3  and  S_10
REMARK    5  A    between atoms: S_10  and  C_13
REMARK    6  A    between atoms: C_16  and  C_17
REMARK    7  A    between atoms: N_19  and  N_20
REMARK    8  A    between atoms: C_21  and  C_23
REMARK                            x       y       z     vdW  Elec       q    Type
REMARK                         _______ _______ _______ _____ _____    ______ ____
ROOT
ATOM      1  C   UNL     1       2.342   6.497  19.257  0.00  0.00    +0.000 A 
ATOM      2  C   UNL     1       2.520   7.096  18.004  0.00  0.00    +0.000 A 
ATOM      3  C   UNL     1       2.188   8.448  17.817  0.00  0.00    +0.000 A 
ATOM      4  C   UNL     1       1.642   9.213  18.864  0.00  0.00    +0.000 A 
ATOM      5  C   UNL     1       1.473   8.601  20.116  0.00  0.00    +0.000 A 
ATOM      6  C   UNL     1       1.820   7.255  20.312  0.00  0.00    +0.000 A 
ENDROOT
BRANCH   4   7
ATOM      7  C   UNL     1       1.239  10.634  18.578  0.00  0.00    +0.000 C 
ATOM      8  O   UNL     1       0.103  11.024  18.827  0.00  0.00    +0.000 OA
ATOM      9  N   UNL     1       2.201  11.466  18.031  0.00  0.00    +0.000 N 
ATOM     10  H   UNL     1       3.162  11.213  17.829  0.00  0.00    +0.000 HD
BRANCH   9  11
ATOM     11  N   UNL     1       1.881  12.799  17.763  0.00  0.00    +0.000 N 
ATOM     12  C   UNL     1       2.333  13.769  18.644  0.00  0.00    +0.000 C 
ATOM     13  O   UNL     1       3.014  13.479  19.628  0.00  0.00    +0.000 OA
ATOM     14  H   UNL     1       1.299  12.991  16.944  0.00  0.00    +0.000 HD
BRANCH  12  15
ATOM     15  C   UNL     1       1.967  15.185  18.371  0.00  0.00    +0.000 A 
ATOM     16  C   UNL     1       0.762  15.687  18.889  0.00  0.00    +0.000 A 
ATOM     17  C   UNL     1       0.377  17.009  18.642  0.00  0.00    +0.000 A 
ATOM     18  C   UNL     1       1.190  17.841  17.874  0.00  0.00    +0.000 A 
ATOM     19  C   UNL     1       2.389  17.353  17.356  0.00  0.00    +0.000 A 
ATOM     20  C   UNL     1       2.771  16.036  17.609  0.00  0.00    +0.000 A 
ATOM     21  F   UNL     1       3.932  15.609  17.091  0.00  0.00    +0.000 F 
ENDBRANCH  12  15
ENDBRANCH   9  11
ENDBRANCH   4   7
BRANCH   1  22
ATOM     22  S   UNL     1       2.471   4.711  19.426  0.00  0.00    +0.000 S 
ATOM     23  O   UNL     1       1.143   4.181  19.181  0.00  0.00    +0.000 OA
ATOM     24  O   UNL     1       3.125   4.473  20.697  0.00  0.00    +0.000 OA
BRANCH  22  25
ATOM     25  N   UNL     1       3.520   4.190  18.198  0.00  0.00    +0.000 N 
BRANCH  25  26
ATOM     26  C   UNL     1       4.834   4.762  18.124  0.00  0.00    +0.000 A 
ATOM     27  C   UNL     1       5.647   4.916  19.250  0.00  0.00    +0.000 A 
ATOM     28  C   UNL     1       6.884   5.570  19.141  0.00  0.00    +0.000 A 
ATOM     29  C   UNL     1       7.325   6.039  17.902  0.00  0.00    +0.000 A 
ATOM     30  C   UNL     1       6.536   5.850  16.770  0.00  0.00    +0.000 A 
ATOM     31  C   UNL     1       5.291   5.224  16.886  0.00  0.00    +0.000 A 
ENDBRANCH  25  26
BRANCH  25  33
ATOM     32  C   UNL     1       3.568   1.709  18.209  0.00  0.00    +0.000 C 
ATOM     33  C   UNL     1       3.181   2.969  17.438  0.00  0.00    +0.000 C 
ENDBRANCH  25  33
ENDBRANCH  22  25
ENDBRANCH   1  22
TORSDOF 7
ENDMDL
MODEL 9
REMARK VINA RESULT:      -8.1      3.249      3.936
REMARK  Name = 
REMARK  8 active torsions:
REMARK  status: ('A' for Active; 'I' for Inactive)
REMARK    1  A    between atoms: C_1  and  C_2
REMARK    2  A    between atoms: C_2  and  N_3
REMARK    3  A    between atoms: N_3  and  C_4
REMARK    4  A    between atoms: N_3  and  S_10
REMARK    5  A    between atoms: S_10  and  C_13
REMARK    6  A    between atoms: C_16  and  C_17
REMARK    7  A    between atoms: N_19  and  N_20
REMARK    8  A    between atoms: C_21  and  C_23
REMARK                            x       y       z     vdW  Elec       q    Type
REMARK                         _______ _______ _______ _____ _____    ______ ____
ROOT
ATOM      1  C   UNL     1       2.417   6.665  19.138  0.00  0.00    +0.000 A 
ATOM      2  C   UNL     1       2.444   7.301  17.892  0.00  0.00    +0.000 A 
ATOM      3  C   UNL     1       1.987   8.624  17.766  0.00  0.00    +0.000 A 
ATOM      4  C   UNL     1       1.467   9.320  18.872  0.00  0.00    +0.000 A 
ATOM      5  C   UNL     1       1.450   8.671  20.118  0.00  0.00    +0.000 A 
ATOM      6  C   UNL     1       1.921   7.355  20.250  0.00  0.00    +0.000 A 
ENDROOT
BRANCH   4   7
ATOM      7  C   UNL     1       0.926  10.707  18.656  0.00  0.00    +0.000 C 
ATOM      8  O   UNL     1      -0.249  10.964  18.893  0.00  0.00    +0.000 OA
ATOM      9  N   UNL     1       1.810  11.663  18.186  0.00  0.00    +0.000 N 
ATOM     10  H   UNL     1       2.797  11.521  17.998  0.00  0.00    +0.000 HD
BRANCH   9  11
ATOM     11  N   UNL     1       1.361  12.970  17.986  0.00  0.00    +0.000 N 
ATOM     12  C   UNL     1       1.637  13.914  18.963  0.00  0.00    +0.000 C 
ATOM     13  O   UNL     1       2.274  13.624  19.976  0.00  0.00    +0.000 OA
ATOM     14  H   UNL     1       0.821  13.161  17.138  0.00  0.00    +0.000 HD
BRANCH  12  15
ATOM     15  C   UNL     1       1.133  15.299  18.760  0.00  0.00    +0.000 A 
ATOM     16  C   UNL     1       2.028  16.288  18.320  0.00  0.00    +0.000 A 
ATOM     17  C   UNL     1       1.596  17.605  18.131  0.00  0.00    +0.000 A 
ATOM     18  C   UNL     1       0.268  17.947  18.382  0.00  0.00    +0.000 A 
ATOM     19  C   UNL     1      -0.628  16.971  18.816  0.00  0.00    +0.000 A 
ATOM     20  C   UNL     1      -0.194  15.659  18.999  0.00  0.00    +0.000 A 
ATOM     21  F   UNL     1      -1.091  14.754  19.419  0.00  0.00    +0.000 F 
ENDBRANCH  12  15
ENDBRANCH   9  11
ENDBRANCH   4   7
BRANCH   1  22
ATOM     22  S   UNL     1       2.706   4.893  19.251  0.00  0.00    +0.000 S 
ATOM     23  O   UNL     1       1.468   4.252  18.852  0.00  0.00    +0.000 OA
ATOM     24  O   UNL     1       3.254   4.657  20.571  0.00  0.00    +0.000 OA
BRANCH  22  25
ATOM     25  N   UNL     1       3.915   4.534  18.115  0.00  0.00    +0.000 N 
BRANCH  25  26
ATOM     26  C   UNL     1       5.152   5.261  18.172  0.00  0.00    +0.000 A 
ATOM     27  C   UNL     1       5.559   6.124  17.152  0.00  0.00    +0.000 A 
ATOM     28  C   UNL     1       6.821   6.735  17.209  0.00  0.00    +0.000 A 
ATOM     29  C   UNL     1       7.662   6.512  18.301  0.00  0.00    +0.000 A 
ATOM     30  C   UNL     1       7.243   5.685  19.339  0.00  0.00    +0.000 A 
ATOM     31  C   UNL     1       5.997   5.054  19.267  0.00  0.00    +0.000 A 
ENDBRANCH  25  26
BRANCH  25  33
ATOM     32  C   UNL     1       3.801   2.057  18.192  0.00  0.00    +0.000 C 
ATOM     33  C   UNL     1       3.797   3.302  17.308  0.00  0.00    +0.000 C 
ENDBRANCH  25  33
ENDBRANCH  22  25
ENDBRANCH   1  22
TORSDOF 7
ENDMDL
