MODEL 1
REMARK VINA RESULT:      -7.6      0.000      0.000
REMARK  Name = 
REMARK  8 active torsions:
REMARK  status: ('A' for Active; 'I' for Inactive)
REMARK    1  A    between atoms: C_1  and  O_2
REMARK    2  A    between atoms: O_2  and  C_3
REMARK    3  A    between atoms: C_6  and  S_7
REMARK    4  A    between atoms: S_7  and  N_10
REMARK    5  A    between atoms: C_19  and  C_20
REMARK    6  A    between atoms: C_20  and  C_21
REMARK    7  A    between atoms: C_20  and  C_22
REMARK    8  A    between atoms: C_20  and  C_23
REMARK                            x       y       z     vdW  Elec       q    Type
REMARK                         _______ _______ _______ _____ _____    ______ ____
ROOT
ATOM      1  N   UNL     1       3.419   5.781  19.005  0.00  0.00    +0.000 N 
ATOM      2  C   UNL     1       2.503   4.810  19.631  0.00  0.00    +0.000 A 
ATOM      3  C   UNL     1       2.624   4.575  21.009  0.00  0.00    +0.000 A 
ATOM      4  C   UNL     1       2.088   3.415  21.588  0.00  0.00    +0.000 A 
ATOM      5  C   UNL     1       1.370   2.510  20.819  0.00  0.00    +0.000 A 
ATOM      6  C   UNL     1       1.289   2.699  19.427  0.00  0.00    +0.000 A 
ATOM      7  C   UNL     1       1.931   3.797  18.837  0.00  0.00    +0.000 A 
ATOM      8  O   UNL     1       2.200   3.694  17.483  0.00  0.00    +0.000 OA
ATOM      9  C   UNL     1       3.518   4.189  17.060  0.00  0.00    +0.000 C 
ATOM     10  C   UNL     1       4.347   4.832  18.201  0.00  0.00    +0.000 C 
ENDROOT
BRANCH  10  11
ATOM     11  C   UNL     1       5.799   5.359  18.094  0.00  0.00    +0.000 C 
ATOM     12  C   UNL     1       6.411   5.502  19.461  0.00  0.00    +0.000 C 
ATOM     13  C   UNL     1       6.610   4.302  17.291  0.00  0.00    +0.000 C 
ATOM     14  C   UNL     1       5.991   6.719  17.415  0.00  0.00    +0.000 C 
ENDBRANCH  10  11
BRANCH   1  15
ATOM     15  S   UNL     1       2.550   7.136  18.177  0.00  0.00    +0.000 S 
ATOM     16  O   UNL     1       1.440   6.567  17.471  0.00  0.00    +0.000 OA
ATOM     17  O   UNL     1       3.504   7.982  17.492  0.00  0.00    +0.000 OA
BRANCH  15  21
ATOM     18  C   UNL     1       0.680   9.997  21.430  0.00  0.00    +0.000 A 
ATOM     19  C   UNL     1       0.711  10.376  20.086  0.00  0.00    +0.000 A 
ATOM     20  C   UNL     1       1.196   9.494  19.080  0.00  0.00    +0.000 A 
ATOM     21  C   UNL     1       1.741   8.246  19.438  0.00  0.00    +0.000 A 
ATOM     22  C   UNL     1       1.670   7.854  20.775  0.00  0.00    +0.000 A 
ATOM     23  C   UNL     1       1.143   8.722  21.770  0.00  0.00    +0.000 A 
BRANCH  18  25
ATOM     24  C   UNL     1      -0.929  10.670  23.077  0.00  0.00    +0.000 C 
ATOM     25  O   UNL     1       0.230  10.960  22.301  0.00  0.00    +0.000 OA
ENDBRANCH  18  25
ENDBRANCH  15  21
ENDBRANCH   1  15
TORSDOF 4
ENDMDL
MODEL 2
REMARK VINA RESULT:      -7.4      0.360      1.024
REMARK  Name = 
REMARK  8 active torsions:
REMARK  status: ('A' for Active; 'I' for Inactive)
REMARK    1  A    between atoms: C_1  and  O_2
REMARK    2  A    between atoms: O_2  and  C_3
REMARK    3  A    between atoms: C_6  and  S_7
REMARK    4  A    between atoms: S_7  and  N_10
REMARK    5  A    between atoms: C_19  and  C_20
REMARK    6  A    between atoms: C_20  and  C_21
REMARK    7  A    between atoms: C_20  and  C_22
REMARK    8  A    between atoms: C_20  and  C_23
REMARK                            x       y       z     vdW  Elec       q    Type
REMARK                         _______ _______ _______ _____ _____    ______ ____
ROOT
ATOM      1  N   UNL     1       3.587   5.642  18.931  0.00  0.00    +0.000 N 
ATOM      2  C   UNL     1       2.709   4.627  19.542  0.00  0.00    +0.000 A 
ATOM      3  C   UNL     1       2.796   4.418  20.926  0.00  0.00    +0.000 A 
ATOM      4  C   UNL     1       2.309   3.237  21.505  0.00  0.00    +0.000 A 
ATOM      5  C   UNL     1       1.671   2.280  20.727  0.00  0.00    +0.000 A 
ATOM      6  C   UNL     1       1.627   2.445  19.331  0.00  0.00    +0.000 A 
ATOM      7  C   UNL     1       2.224   3.571  18.745  0.00  0.00    +0.000 A 
ATOM      8  O   UNL     1       2.545   3.466  17.403  0.00  0.00    +0.000 OA
ATOM      9  C   UNL     1       3.846   4.032  17.016  0.00  0.00    +0.000 C 
ATOM     10  C   UNL     1       4.596   4.738  18.174  0.00  0.00    +0.000 C 
ENDROOT
BRANCH  10  11
ATOM     11  C   UNL     1       6.018   5.347  18.107  0.00  0.00    +0.000 C 
ATOM     12  C   UNL     1       6.590   5.506  19.490  0.00  0.00    +0.000 C 
ATOM     13  C   UNL     1       6.905   4.351  17.309  0.00  0.00    +0.000 C 
ATOM     14  C   UNL     1       6.147   6.726  17.451  0.00  0.00    +0.000 C 
ENDBRANCH  10  11
BRANCH   1  15
ATOM     15  S   UNL     1       2.669   6.931  18.054  0.00  0.00    +0.000 S 
ATOM     16  O   UNL     1       1.532   6.310  17.443  0.00  0.00    +0.000 OA
ATOM     17  O   UNL     1       3.583   7.732  17.268  0.00  0.00    +0.000 OA
BRANCH  15  21
ATOM     18  C   UNL     1       0.579   9.900  21.067  0.00  0.00    +0.000 A 
ATOM     19  C   UNL     1       1.057   8.664  21.506  0.00  0.00    +0.000 A 
ATOM     20  C   UNL     1       1.761   7.790  20.633  0.00  0.00    +0.000 A 
ATOM     21  C   UNL     1       1.912   8.123  19.273  0.00  0.00    +0.000 A 
ATOM     22  C   UNL     1       1.471   9.376  18.847  0.00  0.00    +0.000 A 
ATOM     23  C   UNL     1       0.807  10.264  19.736  0.00  0.00    +0.000 A 
BRANCH  18  25
ATOM     24  C   UNL     1      -0.559   9.951  23.178  0.00  0.00    +0.000 C 
ATOM     25  O   UNL     1      -0.123  10.624  22.000  0.00  0.00    +0.000 OA
ENDBRANCH  18  25
ENDBRANCH  15  21
ENDBRANCH   1  15
TORSDOF 4
ENDMDL
MODEL 3
REMARK VINA RESULT:      -7.4      3.318      7.787
REMARK  Name = 
REMARK  8 active torsions:
REMARK  status: ('A' for Active; 'I' for Inactive)
REMARK    1  A    between atoms: C_1  and  O_2
REMARK    2  A    between atoms: O_2  and  C_3
REMARK    3  A    between atoms: C_6  and  S_7
REMARK    4  A    between atoms: S_7  and  N_10
REMARK    5  A    between atoms: C_19  and  C_20
REMARK    6  A    between atoms: C_20  and  C_21
REMARK    7  A    between atoms: C_20  and  C_22
REMARK    8  A    between atoms: C_20  and  C_23
REMARK                            x       y       z     vdW  Elec       q    Type
REMARK                         _______ _______ _______ _____ _____    ______ ____
ROOT
ATOM      1  N   UNL     1       0.007  11.226  19.185  0.00  0.00    +0.000 N 
ATOM      2  C   UNL     1      -1.381  11.099  18.703  0.00  0.00    +0.000 A 
ATOM      3  C   UNL     1      -1.593  10.895  17.332  0.00  0.00    +0.000 A 
ATOM      4  C   UNL     1      -2.843  11.159  16.752  0.00  0.00    +0.000 A 
ATOM      5  C   UNL     1      -3.913  11.565  17.538  0.00  0.00    +0.000 A 
ATOM      6  C   UNL     1      -3.704  11.831  18.904  0.00  0.00    +0.000 A 
ATOM      7  C   UNL     1      -2.422  11.681  19.452  0.00  0.00    +0.000 A 
ATOM      8  O   UNL     1      -2.177  12.363  20.631  0.00  0.00    +0.000 OA
ATOM      9  C   UNL     1      -0.862  13.014  20.725  0.00  0.00    +0.000 C 
ATOM     10  C   UNL     1       0.065  12.742  19.513  0.00  0.00    +0.000 C 
ENDROOT
BRANCH  10  11
ATOM     11  C   UNL     1       1.466  13.357  19.276  0.00  0.00    +0.000 C 
ATOM     12  C   UNL     1       2.241  12.535  18.282  0.00  0.00    +0.000 C 
ATOM     13  C   UNL     1       1.247  14.779  18.686  0.00  0.00    +0.000 C 
ATOM     14  C   UNL     1       2.379  13.486  20.499  0.00  0.00    +0.000 C 
ENDBRANCH  10  11
BRANCH   1  15
ATOM     15  S   UNL     1       0.432   9.996  20.442  0.00  0.00    +0.000 S 
ATOM     16  O   UNL     1      -0.773   9.306  20.793  0.00  0.00    +0.000 OA
ATOM     17  O   UNL     1       1.257  10.605  21.462  0.00  0.00    +0.000 OA
BRANCH  15  21
ATOM     18  C   UNL     1       2.969   6.510  18.524  0.00  0.00    +0.000 A 
ATOM     19  C   UNL     1       2.725   7.686  17.810  0.00  0.00    +0.000 A 
ATOM     20  C   UNL     1       2.033   8.779  18.400  0.00  0.00    +0.000 A 
ATOM     21  C   UNL     1       1.498   8.659  19.697  0.00  0.00    +0.000 A 
ATOM     22  C   UNL     1       1.779   7.501  20.422  0.00  0.00    +0.000 A 
ATOM     23  C   UNL     1       2.510   6.429  19.843  0.00  0.00    +0.000 A 
BRANCH  18  25
ATOM     24  C   UNL     1       4.273   4.498  18.560  0.00  0.00    +0.000 C 
ATOM     25  O   UNL     1       3.607   5.518  17.821  0.00  0.00    +0.000 OA
ENDBRANCH  18  25
ENDBRANCH  15  21
ENDBRANCH   1  15
TORSDOF 4
ENDMDL
MODEL 4
REMARK VINA RESULT:      -7.3      3.636      8.252
REMARK  Name = 
REMARK  8 active torsions:
REMARK  status: ('A' for Active; 'I' for Inactive)
REMARK    1  A    between atoms: C_1  and  O_2
REMARK    2  A    between atoms: O_2  and  C_3
REMARK    3  A    between atoms: C_6  and  S_7
REMARK    4  A    between atoms: S_7  and  N_10
REMARK    5  A    between atoms: C_19  and  C_20
REMARK    6  A    between atoms: C_20  and  C_21
REMARK    7  A    between atoms: C_20  and  C_22
REMARK    8  A    between atoms: C_20  and  C_23
REMARK                            x       y       z     vdW  Elec       q    Type
REMARK                         _______ _______ _______ _____ _____    ______ ____
ROOT
ATOM      1  N   UNL     1      -0.315  11.850  19.235  0.00  0.00    +0.000 N 
ATOM      2  C   UNL     1      -1.688  11.532  18.800  0.00  0.00    +0.000 A 
ATOM      3  C   UNL     1      -1.916  11.297  17.437  0.00  0.00    +0.000 A 
ATOM      4  C   UNL     1      -3.210  11.386  16.901  0.00  0.00    +0.000 A 
ATOM      5  C   UNL     1      -4.298  11.643  17.724  0.00  0.00    +0.000 A 
ATOM      6  C   UNL     1      -4.081  11.939  19.082  0.00  0.00    +0.000 A 
ATOM      7  C   UNL     1      -2.773  11.968  19.586  0.00  0.00    +0.000 A 
ATOM      8  O   UNL     1      -2.583  12.681  20.757  0.00  0.00    +0.000 OA
ATOM      9  C   UNL     1      -1.368  13.506  20.807  0.00  0.00    +0.000 C 
ATOM     10  C   UNL     1      -0.454  13.360  19.564  0.00  0.00    +0.000 C 
ENDROOT
BRANCH  10  11
ATOM     11  C   UNL     1       0.841  14.160  19.280  0.00  0.00    +0.000 C 
ATOM     12  C   UNL     1       1.703  13.433  18.283  0.00  0.00    +0.000 C 
ATOM     13  C   UNL     1       0.410  15.523  18.668  0.00  0.00    +0.000 C 
ATOM     14  C   UNL     1       1.753  14.445  20.478  0.00  0.00    +0.000 C 
ENDBRANCH  10  11
BRANCH   1  15
ATOM     15  S   UNL     1       0.317  10.693  20.474  0.00  0.00    +0.000 S 
ATOM     16  O   UNL     1      -0.812  10.052  21.080  0.00  0.00    +0.000 OA
ATOM     17  O   UNL     1       1.318  11.348  21.289  0.00  0.00    +0.000 OA
BRANCH  15  21
ATOM     18  C   UNL     1       2.767   7.245  18.382  0.00  0.00    +0.000 A 
ATOM     19  C   UNL     1       2.373   7.126  19.717  0.00  0.00    +0.000 A 
ATOM     20  C   UNL     1       1.565   8.116  20.340  0.00  0.00    +0.000 A 
ATOM     21  C   UNL     1       1.221   9.290  19.642  0.00  0.00    +0.000 A 
ATOM     22  C   UNL     1       1.580   9.386  18.297  0.00  0.00    +0.000 A 
ATOM     23  C   UNL     1       2.350   8.371  17.666  0.00  0.00    +0.000 A 
BRANCH  18  25
ATOM     24  C   UNL     1       4.596   6.584  16.978  0.00  0.00    +0.000 C 
ATOM     25  O   UNL     1       3.582   6.241  17.918  0.00  0.00    +0.000 OA
ENDBRANCH  18  25
ENDBRANCH  15  21
ENDBRANCH   1  15
TORSDOF 4
ENDMDL
MODEL 5
REMARK VINA RESULT:      -7.3      3.763      8.294
REMARK  Name = 
REMARK  8 active torsions:
REMARK  status: ('A' for Active; 'I' for Inactive)
REMARK    1  A    between atoms: C_1  and  O_2
REMARK    2  A    between atoms: O_2  and  C_3
REMARK    3  A    between atoms: C_6  and  S_7
REMARK    4  A    between atoms: S_7  and  N_10
REMARK    5  A    between atoms: C_19  and  C_20
REMARK    6  A    between atoms: C_20  and  C_21
REMARK    7  A    between atoms: C_20  and  C_22
REMARK    8  A    between atoms: C_20  and  C_23
REMARK                            x       y       z     vdW  Elec       q    Type
REMARK                         _______ _______ _______ _____ _____    ______ ____
ROOT
ATOM      1  N   UNL     1      -0.507  11.998  19.199  0.00  0.00    +0.000 N 
ATOM      2  C   UNL     1      -1.826  11.580  18.690  0.00  0.00    +0.000 A 
ATOM      3  C   UNL     1      -1.955  11.309  17.320  0.00  0.00    +0.000 A 
ATOM      4  C   UNL     1      -3.217  11.300  16.706  0.00  0.00    +0.000 A 
ATOM      5  C   UNL     1      -4.368  11.494  17.458  0.00  0.00    +0.000 A 
ATOM      6  C   UNL     1      -4.254  11.824  18.821  0.00  0.00    +0.000 A 
ATOM      7  C   UNL     1      -2.984  11.952  19.401  0.00  0.00    +0.000 A 
ATOM      8  O   UNL     1      -2.915  12.693  20.568  0.00  0.00    +0.000 OA
ATOM      9  C   UNL     1      -1.764  13.601  20.674  0.00  0.00    +0.000 C 
ATOM     10  C   UNL     1      -0.768  13.500  19.490  0.00  0.00    +0.000 C 
ENDROOT
BRANCH  10  11
ATOM     11  C   UNL     1       0.484  14.383  19.268  0.00  0.00    +0.000 C 
ATOM     12  C   UNL     1       1.488  13.667  18.406  0.00  0.00    +0.000 C 
ATOM     13  C   UNL     1       0.012  15.666  18.527  0.00  0.00    +0.000 C 
ATOM     14  C   UNL     1       1.254  14.815  20.520  0.00  0.00    +0.000 C 
ENDBRANCH  10  11
BRANCH   1  15
ATOM     15  S   UNL     1       0.126  10.906  20.495  0.00  0.00    +0.000 S 
ATOM     16  O   UNL     1      -0.997  10.236  21.080  0.00  0.00    +0.000 OA
ATOM     17  O   UNL     1       1.068  11.627  21.325  0.00  0.00    +0.000 OA
BRANCH  15  21
ATOM     18  C   UNL     1       2.470   7.291  18.571  0.00  0.00    +0.000 A 
ATOM     19  C   UNL     1       2.161   8.421  17.811  0.00  0.00    +0.000 A 
ATOM     20  C   UNL     1       1.528   9.553  18.393  0.00  0.00    +0.000 A 
ATOM     21  C   UNL     1       1.117   9.518  19.740  0.00  0.00    +0.000 A 
ATOM     22  C   UNL     1       1.464   8.406  20.506  0.00  0.00    +0.000 A 
ATOM     23  C   UNL     1       2.137   7.295  19.929  0.00  0.00    +0.000 A 
BRANCH  18  25
ATOM     24  C   UNL     1       3.745   5.260  18.614  0.00  0.00    +0.000 C 
ATOM     25  O   UNL     1       3.038   6.252  17.875  0.00  0.00    +0.000 OA
ENDBRANCH  18  25
ENDBRANCH  15  21
ENDBRANCH   1  15
TORSDOF 4
ENDMDL
MODEL 6
REMARK VINA RESULT:      -7.2      3.298      7.779
REMARK  Name = 
REMARK  8 active torsions:
REMARK  status: ('A' for Active; 'I' for Inactive)
REMARK    1  A    between atoms: C_1  and  O_2
REMARK    2  A    between atoms: O_2  and  C_3
REMARK    3  A    between atoms: C_6  and  S_7
REMARK    4  A    between atoms: S_7  and  N_10
REMARK    5  A    between atoms: C_19  and  C_20
REMARK    6  A    between atoms: C_20  and  C_21
REMARK    7  A    between atoms: C_20  and  C_22
REMARK    8  A    between atoms: C_20  and  C_23
REMARK                            x       y       z     vdW  Elec       q    Type
REMARK                         _______ _______ _______ _____ _____    ______ ____
ROOT
ATOM      1  N   UNL     1       0.055  11.284  19.300  0.00  0.00    +0.000 N 
ATOM      2  C   UNL     1      -1.334  11.147  18.826  0.00  0.00    +0.000 A 
ATOM      3  C   UNL     1      -1.549  10.862  17.470  0.00  0.00    +0.000 A 
ATOM      4  C   UNL     1      -2.796  11.108  16.874  0.00  0.00    +0.000 A 
ATOM      5  C   UNL     1      -3.860  11.577  17.632  0.00  0.00    +0.000 A 
ATOM      6  C   UNL     1      -3.647  11.923  18.979  0.00  0.00    +0.000 A 
ATOM      7  C   UNL     1      -2.367  11.789  19.537  0.00  0.00    +0.000 A 
ATOM      8  O   UNL     1      -2.112  12.538  20.672  0.00  0.00    +0.000 OA
ATOM      9  C   UNL     1      -0.788  13.175  20.726  0.00  0.00    +0.000 C 
ATOM     10  C   UNL     1       0.135  12.816  19.535  0.00  0.00    +0.000 C 
ENDROOT
BRANCH  10  11
ATOM     11  C   UNL     1       1.545  13.395  19.261  0.00  0.00    +0.000 C 
ATOM     12  C   UNL     1       2.318  13.529  20.545  0.00  0.00    +0.000 C 
ATOM     13  C   UNL     1       2.281  12.386  18.336  0.00  0.00    +0.000 C 
ATOM     14  C   UNL     1       1.606  14.776  18.601  0.00  0.00    +0.000 C 
ENDBRANCH  10  11
BRANCH   1  15
ATOM     15  S   UNL     1       0.462  10.127  20.630  0.00  0.00    +0.000 S 
ATOM     16  O   UNL     1      -0.769   9.581  21.118  0.00  0.00    +0.000 OA
ATOM     17  O   UNL     1       1.408  10.740  21.539  0.00  0.00    +0.000 OA
BRANCH  15  21
ATOM     18  C   UNL     1       2.886   6.459  18.916  0.00  0.00    +0.000 A 
ATOM     19  C   UNL     1       2.324   6.404  20.193  0.00  0.00    +0.000 A 
ATOM     20  C   UNL     1       1.523   7.465  20.696  0.00  0.00    +0.000 A 
ATOM     21  C   UNL     1       1.354   8.641  19.940  0.00  0.00    +0.000 A 
ATOM     22  C   UNL     1       1.881   8.677  18.649  0.00  0.00    +0.000 A 
ATOM     23  C   UNL     1       2.645   7.594  18.135  0.00  0.00    +0.000 A 
BRANCH  18  25
ATOM     24  C   UNL     1       3.190   4.492  17.578  0.00  0.00    +0.000 C 
ATOM     25  O   UNL     1       3.675   5.388  18.574  0.00  0.00    +0.000 OA
ENDBRANCH  18  25
ENDBRANCH  15  21
ENDBRANCH   1  15
TORSDOF 4
ENDMDL
MODEL 7
REMARK VINA RESULT:      -7.1      3.749      8.361
REMARK  Name = 
REMARK  8 active torsions:
REMARK  status: ('A' for Active; 'I' for Inactive)
REMARK    1  A    between atoms: C_1  and  O_2
REMARK    2  A    between atoms: O_2  and  C_3
REMARK    3  A    between atoms: C_6  and  S_7
REMARK    4  A    between atoms: S_7  and  N_10
REMARK    5  A    between atoms: C_19  and  C_20
REMARK    6  A    between atoms: C_20  and  C_21
REMARK    7  A    between atoms: C_20  and  C_22
REMARK    8  A    between atoms: C_20  and  C_23
REMARK                            x       y       z     vdW  Elec       q    Type
REMARK                         _______ _______ _______ _____ _____    ______ ____
ROOT
ATOM      1  N   UNL     1      -0.569  12.074  19.423  0.00  0.00    +0.000 N 
ATOM      2  C   UNL     1      -1.960  11.719  19.088  0.00  0.00    +0.000 A 
ATOM      3  C   UNL     1      -2.270  11.429  17.751  0.00  0.00    +0.000 A 
ATOM      4  C   UNL     1      -3.595  11.477  17.295  0.00  0.00    +0.000 A 
ATOM      5  C   UNL     1      -4.634  11.749  18.175  0.00  0.00    +0.000 A 
ATOM      6  C   UNL     1      -4.339  12.099  19.504  0.00  0.00    +0.000 A 
ATOM      7  C   UNL     1      -3.002  12.167  19.924  0.00  0.00    +0.000 A 
ATOM      8  O   UNL     1      -2.753  12.926  21.054  0.00  0.00    +0.000 OA
ATOM      9  C   UNL     1      -1.551  13.772  20.997  0.00  0.00    +0.000 C 
ATOM     10  C   UNL     1      -0.714  13.593  19.705  0.00  0.00    +0.000 C 
ENDROOT
BRANCH  10  11
ATOM     11  C   UNL     1       0.546  14.402  19.310  0.00  0.00    +0.000 C 
ATOM     12  C   UNL     1       1.312  14.816  20.538  0.00  0.00    +0.000 C 
ATOM     13  C   UNL     1       1.441  13.464  18.453  0.00  0.00    +0.000 C 
ATOM     14  C   UNL     1       0.316  15.693  18.518  0.00  0.00    +0.000 C 
ENDBRANCH  10  11
BRANCH   1  15
ATOM     15  S   UNL     1       0.160  10.975  20.662  0.00  0.00    +0.000 S 
ATOM     16  O   UNL     1      -0.918  10.346  21.366  0.00  0.00    +0.000 OA
ATOM     17  O   UNL     1       1.203  11.673  21.382  0.00  0.00    +0.000 OA
BRANCH  15  21
ATOM     18  C   UNL     1       2.514   7.469  18.556  0.00  0.00    +0.000 A 
ATOM     19  C   UNL     1       2.157   7.375  19.903  0.00  0.00    +0.000 A 
ATOM     20  C   UNL     1       1.378   8.384  20.534  0.00  0.00    +0.000 A 
ATOM     21  C   UNL     1       1.025   9.549  19.826  0.00  0.00    +0.000 A 
ATOM     22  C   UNL     1       1.346   9.620  18.471  0.00  0.00    +0.000 A 
ATOM     23  C   UNL     1       2.087   8.588  17.834  0.00  0.00    +0.000 A 
BRANCH  18  25
ATOM     24  C   UNL     1       2.809   5.117  18.186  0.00  0.00    +0.000 C 
ATOM     25  O   UNL     1       3.305   6.449  18.085  0.00  0.00    +0.000 OA
ENDBRANCH  18  25
ENDBRANCH  15  21
ENDBRANCH   1  15
TORSDOF 4
ENDMDL
MODEL 8
REMARK VINA RESULT:      -7.0      3.898      8.416
REMARK  Name = 
REMARK  8 active torsions:
REMARK  status: ('A' for Active; 'I' for Inactive)
REMARK    1  A    between atoms: C_1  and  O_2
REMARK    2  A    between atoms: O_2  and  C_3
REMARK    3  A    between atoms: C_6  and  S_7
REMARK    4  A    between atoms: S_7  and  N_10
REMARK    5  A    between atoms: C_19  and  C_20
REMARK    6  A    between atoms: C_20  and  C_21
REMARK    7  A    between atoms: C_20  and  C_22
REMARK    8  A    between atoms: C_20  and  C_23
REMARK                            x       y       z     vdW  Elec       q    Type
REMARK                         _______ _______ _______ _____ _____    ______ ____
ROOT
ATOM      1  N   UNL     1      -0.625  12.260  19.355  0.00  0.00    +0.000 N 
ATOM      2  C   UNL     1      -1.913  11.769  18.831  0.00  0.00    +0.000 A 
ATOM      3  C   UNL     1      -1.996  11.440  17.470  0.00  0.00    +0.000 A 
ATOM      4  C   UNL     1      -3.240  11.356  16.827  0.00  0.00    +0.000 A 
ATOM      5  C   UNL     1      -4.416  11.532  17.542  0.00  0.00    +0.000 A 
ATOM      6  C   UNL     1      -4.351  11.920  18.893  0.00  0.00    +0.000 A 
ATOM      7  C   UNL     1      -3.103  12.121  19.498  0.00  0.00    +0.000 A 
ATOM      8  O   UNL     1      -3.093  12.909  20.636  0.00  0.00    +0.000 OA
ATOM      9  C   UNL     1      -1.982  13.867  20.734  0.00  0.00    +0.000 C 
ATOM     10  C   UNL     1      -0.953  13.760  19.580  0.00  0.00    +0.000 C 
ENDROOT
BRANCH  10  11
ATOM     11  C   UNL     1       0.269  14.684  19.353  0.00  0.00    +0.000 C 
ATOM     12  C   UNL     1       0.860  15.109  20.670  0.00  0.00    +0.000 C 
ATOM     13  C   UNL     1       1.328  13.858  18.572  0.00  0.00    +0.000 C 
ATOM     14  C   UNL     1       0.016  15.983  18.581  0.00  0.00    +0.000 C 
ENDBRANCH  10  11
BRANCH   1  15
ATOM     15  S   UNL     1       0.017  11.246  20.709  0.00  0.00    +0.000 S 
ATOM     16  O   UNL     1      -1.103  10.617  21.344  0.00  0.00    +0.000 OA
ATOM     17  O   UNL     1       0.970  12.012  21.484  0.00  0.00    +0.000 OA
BRANCH  15  21
ATOM     18  C   UNL     1       2.325   7.516  18.968  0.00  0.00    +0.000 A 
ATOM     19  C   UNL     1       2.106   8.647  18.178  0.00  0.00    +0.000 A 
ATOM     20  C   UNL     1       1.485   9.811  18.709  0.00  0.00    +0.000 A 
ATOM     21  C   UNL     1       0.995   9.810  20.029  0.00  0.00    +0.000 A 
ATOM     22  C   UNL     1       1.252   8.696  20.828  0.00  0.00    +0.000 A 
ATOM     23  C   UNL     1       1.914   7.552  20.305  0.00  0.00    +0.000 A 
BRANCH  18  25
ATOM     24  C   UNL     1       3.891   6.713  17.339  0.00  0.00    +0.000 C 
ATOM     25  O   UNL     1       2.892   6.447  18.319  0.00  0.00    +0.000 OA
ENDBRANCH  18  25
ENDBRANCH  15  21
ENDBRANCH   1  15
TORSDOF 4
ENDMDL
MODEL 9
REMARK VINA RESULT:      -6.9      2.106      4.348
REMARK  Name = 
REMARK  8 active torsions:
REMARK  status: ('A' for Active; 'I' for Inactive)
REMARK    1  A    between atoms: C_1  and  O_2
REMARK    2  A    between atoms: O_2  and  C_3
REMARK    3  A    between atoms: C_6  and  S_7
REMARK    4  A    between atoms: S_7  and  N_10
REMARK    5  A    between atoms: C_19  and  C_20
REMARK    6  A    between atoms: C_20  and  C_21
REMARK    7  A    between atoms: C_20  and  C_22
REMARK    8  A    between atoms: C_20  and  C_23
REMARK                            x       y       z     vdW  Elec       q    Type
REMARK                         _______ _______ _______ _____ _____    ______ ____
ROOT
ATOM      1  N   UNL     1       3.502   4.943  18.232  0.00  0.00    +0.000 N 
ATOM      2  C   UNL     1       4.753   5.187  17.491  0.00  0.00    +0.000 A 
ATOM      3  C   UNL     1       4.665   5.585  16.149  0.00  0.00    +0.000 A 
ATOM      4  C   UNL     1       5.763   5.450  15.287  0.00  0.00    +0.000 A 
ATOM      5  C   UNL     1       6.980   4.982  15.763  0.00  0.00    +0.000 A 
ATOM      6  C   UNL     1       7.071   4.524  17.090  0.00  0.00    +0.000 A 
ATOM      7  C   UNL     1       5.936   4.548  17.913  0.00  0.00    +0.000 A 
ATOM      8  O   UNL     1       5.954   3.703  19.008  0.00  0.00    +0.000 OA
ATOM      9  C   UNL     1       4.695   2.996  19.285  0.00  0.00    +0.000 C 
ATOM     10  C   UNL     1       3.528   3.396  18.347  0.00  0.00    +0.000 C 
ENDROOT
BRANCH  10  11
ATOM     11  C   UNL     1       2.113   2.767  18.326  0.00  0.00    +0.000 C 
ATOM     12  C   UNL     1       1.100   3.763  17.832  0.00  0.00    +0.000 C 
ATOM     13  C   UNL     1       2.161   1.568  17.337  0.00  0.00    +0.000 C 
ATOM     14  C   UNL     1       1.566   2.256  19.663  0.00  0.00    +0.000 C 
ENDBRANCH  10  11
BRANCH   1  15
ATOM     15  S   UNL     1       3.347   5.973  19.711  0.00  0.00    +0.000 S 
ATOM     16  O   UNL     1       4.642   6.516  19.995  0.00  0.00    +0.000 OA
ATOM     17  O   UNL     1       2.608   5.258  20.730  0.00  0.00    +0.000 OA
BRANCH  15  21
ATOM     18  C   UNL     1       0.873   9.898  18.850  0.00  0.00    +0.000 A 
ATOM     19  C   UNL     1       1.566   9.256  17.821  0.00  0.00    +0.000 A 
ATOM     20  C   UNL     1       2.250   8.029  18.043  0.00  0.00    +0.000 A 
ATOM     21  C   UNL     1       2.315   7.481  19.339  0.00  0.00    +0.000 A 
ATOM     22  C   UNL     1       1.588   8.102  20.355  0.00  0.00    +0.000 A 
ATOM     23  C   UNL     1       0.869   9.305  20.116  0.00  0.00    +0.000 A 
BRANCH  18  25
ATOM     24  C   UNL     1      -1.114  11.127  18.307  0.00  0.00    +0.000 C 
ATOM     25  O   UNL     1       0.296  11.097  18.510  0.00  0.00    +0.000 OA
ENDBRANCH  18  25
ENDBRANCH  15  21
ENDBRANCH   1  15
TORSDOF 4
ENDMDL
