MODEL 1
REMARK VINA RESULT:      -8.6      0.000      0.000
REMARK  Name = 
REMARK  6 active torsions:
REMARK  status: ('A' for Active; 'I' for Inactive)
REMARK    1  A    between atoms: C_4  and  C_5
REMARK    2  A    between atoms: C_5  and  O_6
REMARK    3  A    between atoms: O_6  and  N_7
REMARK    4  A    between atoms: N_13  and  C_14
REMARK    5  A    between atoms: C_17  and  N_18
REMARK    6  A    between atoms: N_21  and  C_22
REMARK                            x       y       z     vdW  Elec       q    Type
REMARK                         _______ _______ _______ _____ _____    ______ ____
ROOT
ATOM      1  C   UNL     1       3.090   6.861  18.422  0.00  0.00    +0.000 A 
ATOM      2  C   UNL     1       2.730   7.918  17.584  0.00  0.00    +0.000 A 
ATOM      3  C   UNL     1       1.850   8.913  18.023  0.00  0.00    +0.000 A 
ATOM      4  C   UNL     1       1.310   8.909  19.315  0.00  0.00    +0.000 A 
ATOM      5  C   UNL     1       1.677   7.839  20.140  0.00  0.00    +0.000 A 
ATOM      6  F   UNL     1       1.200   7.745  21.393  0.00  0.00    +0.000 F 
ATOM      7  C   UNL     1       2.535   6.826  19.705  0.00  0.00    +0.000 A 
ENDROOT
BRANCH   1  13
ATOM      8  O   UNL     1       2.552   4.078  17.379  0.00  0.00    +0.000 OA
ATOM      9  C   UNL     1       3.650   4.586  17.533  0.00  0.00    +0.000 C 
ATOM     10  O   UNL     1       4.794   3.918  17.175  0.00  0.00    +0.000 OA
ATOM     11  C   UNL     1       5.922   4.682  17.619  0.00  0.00    +0.000 C 
ATOM     12  C   UNL     1       5.384   6.081  17.808  0.00  0.00    +0.000 C 
ATOM     13  N   UNL     1       3.983   5.852  17.988  0.00  0.00    +0.000 N 
BRANCH  11  14
ATOM     14  C   UNL     1       7.032   4.607  16.577  0.00  0.00    +0.000 C 
BRANCH  14  15
ATOM     15  O   UNL     1       6.818   5.586  15.554  0.00  0.00    +0.000 OA
BRANCH  15  16
ATOM     16  N   UNL     1       6.872   5.013  14.278  0.00  0.00    +0.000 N 
ATOM     17  C   UNL     1       6.077   3.957  13.900  0.00  0.00    +0.000 A 
ATOM     18  C   UNL     1       6.392   3.637  12.558  0.00  0.00    +0.000 A 
ATOM     19  C   UNL     1       7.377   4.564  12.230  0.00  0.00    +0.000 A 
ATOM     20  O   UNL     1       7.686   5.400  13.283  0.00  0.00    +0.000 OA
ENDBRANCH  15  16
ENDBRANCH  14  15
ENDBRANCH  11  14
ENDBRANCH   1  13
BRANCH   4  21
ATOM     21  N   UNL     1       0.528   9.980  19.708  0.00  0.00    +0.000 N 
ATOM     22  C   UNL     1      -0.235  10.757  18.716  0.00  0.00    +0.000 C 
ATOM     23  C   UNL     1      -1.457  11.424  19.395  0.00  0.00    +0.000 C 
ATOM     24  N   UNL     1      -1.060  12.173  20.605  0.00  0.00    +0.000 N 
ATOM     25  C   UNL     1      -0.234  11.404  21.560  0.00  0.00    +0.000 C 
ATOM     26  C   UNL     1       0.994  10.807  20.841  0.00  0.00    +0.000 C 
BRANCH  24  27
ATOM     27  C   UNL     1      -1.512  13.452  20.887  0.00  0.00    +0.000 A 
ATOM     28  C   UNL     1      -2.373  13.636  21.990  0.00  0.00    +0.000 A 
ATOM     29  C   UNL     1      -2.841  14.894  22.388  0.00  0.00    +0.000 A 
ATOM     30  C   UNL     1      -2.441  16.028  21.702  0.00  0.00    +0.000 A 
ATOM     31  C   UNL     1      -1.601  15.896  20.602  0.00  0.00    +0.000 A 
ATOM     32  C   UNL     1      -1.159  14.630  20.183  0.00  0.00    +0.000 A 
ATOM     33 CL   UNL     1      -0.259  14.632  18.697  0.00  0.00    +0.000 Cl
ENDBRANCH  24  27
ENDBRANCH   4  21
TORSDOF 6
ENDMDL
MODEL 2
REMARK VINA RESULT:      -8.4      1.627      1.956
REMARK  Name = 
REMARK  6 active torsions:
REMARK  status: ('A' for Active; 'I' for Inactive)
REMARK    1  A    between atoms: C_4  and  C_5
REMARK    2  A    between atoms: C_5  and  O_6
REMARK    3  A    between atoms: O_6  and  N_7
REMARK    4  A    between atoms: N_13  and  C_14
REMARK    5  A    between atoms: C_17  and  N_18
REMARK    6  A    between atoms: N_21  and  C_22
REMARK                            x       y       z     vdW  Elec       q    Type
REMARK                         _______ _______ _______ _____ _____    ______ ____
ROOT
ATOM      1  C   UNL     1       2.854   6.684  18.846  0.00  0.00    +0.000 A 
ATOM      2  C   UNL     1       2.363   6.525  20.143  0.00  0.00    +0.000 A 
ATOM      3  C   UNL     1       1.608   7.532  20.753  0.00  0.00    +0.000 A 
ATOM      4  C   UNL     1       1.294   8.727  20.093  0.00  0.00    +0.000 A 
ATOM      5  C   UNL     1       1.799   8.874  18.795  0.00  0.00    +0.000 A 
ATOM      6  F   UNL     1       1.559   9.991  18.088  0.00  0.00    +0.000 F 
ATOM      7  C   UNL     1       2.575   7.885  18.185  0.00  0.00    +0.000 A 
ENDROOT
BRANCH   1  13
ATOM      8  O   UNL     1       1.978   4.174  17.414  0.00  0.00    +0.000 OA
ATOM      9  C   UNL     1       3.130   4.533  17.591  0.00  0.00    +0.000 C 
ATOM     10  O   UNL     1       4.181   3.815  17.079  0.00  0.00    +0.000 OA
ATOM     11  C   UNL     1       5.400   4.377  17.580  0.00  0.00    +0.000 C 
ATOM     12  C   UNL     1       5.026   5.777  18.009  0.00  0.00    +0.000 C 
ATOM     13  N   UNL     1       3.615   5.669  18.219  0.00  0.00    +0.000 N 
BRANCH  11  14
ATOM     14  C   UNL     1       6.462   4.353  16.487  0.00  0.00    +0.000 C 
BRANCH  14  15
ATOM     15  O   UNL     1       5.948   3.718  15.311  0.00  0.00    +0.000 OA
BRANCH  15  16
ATOM     16  N   UNL     1       6.595   4.175  14.157  0.00  0.00    +0.000 N 
ATOM     17  C   UNL     1       6.345   3.660  12.908  0.00  0.00    +0.000 A 
ATOM     18  C   UNL     1       7.166   4.349  11.983  0.00  0.00    +0.000 A 
ATOM     19  C   UNL     1       7.857   5.256  12.782  0.00  0.00    +0.000 A 
ATOM     20  O   UNL     1       7.523   5.145  14.116  0.00  0.00    +0.000 OA
ENDBRANCH  15  16
ENDBRANCH  14  15
ENDBRANCH  11  14
ENDBRANCH   1  13
BRANCH   4  21
ATOM     21  N   UNL     1       0.459   9.631  20.725  0.00  0.00    +0.000 N 
ATOM     22  C   UNL     1       0.100  10.904  20.076  0.00  0.00    +0.000 C 
ATOM     23  C   UNL     1      -1.259  11.410  20.620  0.00  0.00    +0.000 C 
ATOM     24  N   UNL     1      -1.272  11.435  22.098  0.00  0.00    +0.000 N 
ATOM     25  C   UNL     1      -0.842  10.173  22.737  0.00  0.00    +0.000 C 
ATOM     26  C   UNL     1       0.539   9.746  22.196  0.00  0.00    +0.000 C 
BRANCH  24  27
ATOM     27  C   UNL     1      -1.753  12.507  22.833  0.00  0.00    +0.000 A 
ATOM     28  C   UNL     1      -2.997  12.372  23.487  0.00  0.00    +0.000 A 
ATOM     29  C   UNL     1      -3.543  13.375  24.296  0.00  0.00    +0.000 A 
ATOM     30  C   UNL     1      -2.846  14.554  24.499  0.00  0.00    +0.000 A 
ATOM     31  C   UNL     1      -1.621  14.737  23.867  0.00  0.00    +0.000 A 
ATOM     32  C   UNL     1      -1.089  13.743  23.029  0.00  0.00    +0.000 A 
ATOM     33 CL   UNL     1       0.361  14.202  22.189  0.00  0.00    +0.000 Cl
ENDBRANCH  24  27
ENDBRANCH   4  21
TORSDOF 6
ENDMDL
MODEL 3
REMARK VINA RESULT:      -8.4      1.215      1.816
REMARK  Name = 
REMARK  6 active torsions:
REMARK  status: ('A' for Active; 'I' for Inactive)
REMARK    1  A    between atoms: C_4  and  C_5
REMARK    2  A    between atoms: C_5  and  O_6
REMARK    3  A    between atoms: O_6  and  N_7
REMARK    4  A    between atoms: N_13  and  C_14
REMARK    5  A    between atoms: C_17  and  N_18
REMARK    6  A    between atoms: N_21  and  C_22
REMARK                            x       y       z     vdW  Elec       q    Type
REMARK                         _______ _______ _______ _____ _____    ______ ____
ROOT
ATOM      1  C   UNL     1       2.745   6.969  18.654  0.00  0.00    +0.000 A 
ATOM      2  C   UNL     1       2.190   7.021  19.934  0.00  0.00    +0.000 A 
ATOM      3  C   UNL     1       1.476   8.145  20.361  0.00  0.00    +0.000 A 
ATOM      4  C   UNL     1       1.269   9.253  19.529  0.00  0.00    +0.000 A 
ATOM      5  C   UNL     1       1.837   9.188  18.252  0.00  0.00    +0.000 A 
ATOM      6  F   UNL     1       1.700  10.208  17.388  0.00  0.00    +0.000 F 
ATOM      7  C   UNL     1       2.573   8.081  17.822  0.00  0.00    +0.000 A 
ENDROOT
BRANCH   1  13
ATOM      8  O   UNL     1       1.769   4.319  17.586  0.00  0.00    +0.000 OA
ATOM      9  C   UNL     1       2.935   4.642  17.744  0.00  0.00    +0.000 C 
ATOM     10  O   UNL     1       3.957   3.803  17.381  0.00  0.00    +0.000 OA
ATOM     11  C   UNL     1       5.192   4.373  17.832  0.00  0.00    +0.000 C 
ATOM     12  C   UNL     1       4.885   5.838  18.034  0.00  0.00    +0.000 C 
ATOM     13  N   UNL     1       3.465   5.834  18.211  0.00  0.00    +0.000 N 
BRANCH  11  14
ATOM     14  C   UNL     1       6.278   4.130  16.790  0.00  0.00    +0.000 C 
BRANCH  14  15
ATOM     15  O   UNL     1       6.461   5.300  15.984  0.00  0.00    +0.000 OA
BRANCH  15  16
ATOM     16  N   UNL     1       6.759   4.967  14.658  0.00  0.00    +0.000 N 
ATOM     17  C   UNL     1       6.085   3.991  13.964  0.00  0.00    +0.000 A 
ATOM     18  C   UNL     1       6.641   3.920  12.664  0.00  0.00    +0.000 A 
ATOM     19  C   UNL     1       7.631   4.898  12.686  0.00  0.00    +0.000 A 
ATOM     20  O   UNL     1       7.719   5.533  13.908  0.00  0.00    +0.000 OA
ENDBRANCH  15  16
ENDBRANCH  14  15
ENDBRANCH  11  14
ENDBRANCH   1  13
BRANCH   4  21
ATOM     21  N   UNL     1       0.468  10.283  19.989  0.00  0.00    +0.000 N 
ATOM     22  C   UNL     1       0.557  10.739  21.387  0.00  0.00    +0.000 C 
ATOM     23  C   UNL     1       0.096  12.214  21.491  0.00  0.00    +0.000 C 
ATOM     24  N   UNL     1      -1.220  12.415  20.851  0.00  0.00    +0.000 N 
ATOM     25  C   UNL     1      -1.319  11.889  19.472  0.00  0.00    +0.000 C 
ATOM     26  C   UNL     1      -0.898  10.405  19.437  0.00  0.00    +0.000 C 
BRANCH  24  27
ATOM     27  C   UNL     1      -2.248  13.135  21.439  0.00  0.00    +0.000 A 
ATOM     28  C   UNL     1      -3.179  12.444  22.246  0.00  0.00    +0.000 A 
ATOM     29  C   UNL     1      -4.219  13.088  22.926  0.00  0.00    +0.000 A 
ATOM     30  C   UNL     1      -4.353  14.464  22.840  0.00  0.00    +0.000 A 
ATOM     31  C   UNL     1      -3.466  15.185  22.050  0.00  0.00    +0.000 A 
ATOM     32  C   UNL     1      -2.443  14.534  21.341  0.00  0.00    +0.000 A 
ATOM     33 CL   UNL     1      -1.535  15.561  20.272  0.00  0.00    +0.000 Cl
ENDBRANCH  24  27
ENDBRANCH   4  21
TORSDOF 6
ENDMDL
MODEL 4
REMARK VINA RESULT:      -8.3      1.097      1.426
REMARK  Name = 
REMARK  6 active torsions:
REMARK  status: ('A' for Active; 'I' for Inactive)
REMARK    1  A    between atoms: C_4  and  C_5
REMARK    2  A    between atoms: C_5  and  O_6
REMARK    3  A    between atoms: O_6  and  N_7
REMARK    4  A    between atoms: N_13  and  C_14
REMARK    5  A    between atoms: C_17  and  N_18
REMARK    6  A    between atoms: N_21  and  C_22
REMARK                            x       y       z     vdW  Elec       q    Type
REMARK                         _______ _______ _______ _____ _____    ______ ____
ROOT
ATOM      1  C   UNL     1       3.155   6.872  18.371  0.00  0.00    +0.000 A 
ATOM      2  C   UNL     1       2.842   7.932  17.519  0.00  0.00    +0.000 A 
ATOM      3  C   UNL     1       1.948   8.932  17.917  0.00  0.00    +0.000 A 
ATOM      4  C   UNL     1       1.346   8.929  19.182  0.00  0.00    +0.000 A 
ATOM      5  C   UNL     1       1.665   7.854  20.021  0.00  0.00    +0.000 A 
ATOM      6  F   UNL     1       1.127   7.761  21.249  0.00  0.00    +0.000 F 
ATOM      7  C   UNL     1       2.537   6.837  19.626  0.00  0.00    +0.000 A 
ENDROOT
BRANCH   1  13
ATOM      8  O   UNL     1       2.654   4.043  17.440  0.00  0.00    +0.000 OA
ATOM      9  C   UNL     1       3.745   4.570  17.574  0.00  0.00    +0.000 C 
ATOM     10  O   UNL     1       4.898   3.903  17.245  0.00  0.00    +0.000 OA
ATOM     11  C   UNL     1       6.015   4.699  17.658  0.00  0.00    +0.000 C 
ATOM     12  C   UNL     1       5.459   6.098  17.792  0.00  0.00    +0.000 C 
ATOM     13  N   UNL     1       4.061   5.858  17.979  0.00  0.00    +0.000 N 
BRANCH  11  14
ATOM     14  C   UNL     1       7.128   4.597  16.622  0.00  0.00    +0.000 C 
BRANCH  14  15
ATOM     15  O   UNL     1       6.884   5.506  15.543  0.00  0.00    +0.000 OA
BRANCH  15  16
ATOM     16  N   UNL     1       6.745   4.830  14.325  0.00  0.00    +0.000 N 
ATOM     17  C   UNL     1       7.554   5.072  13.240  0.00  0.00    +0.000 A 
ATOM     18  C   UNL     1       7.137   4.220  12.190  0.00  0.00    +0.000 A 
ATOM     19  C   UNL     1       6.083   3.508  12.755  0.00  0.00    +0.000 A 
ATOM     20  O   UNL     1       5.828   3.887  14.056  0.00  0.00    +0.000 OA
ENDBRANCH  15  16
ENDBRANCH  14  15
ENDBRANCH  11  14
ENDBRANCH   1  13
BRANCH   4  21
ATOM     21  N   UNL     1       0.553  10.004  19.538  0.00  0.00    +0.000 N 
ATOM     22  C   UNL     1      -0.396  10.591  18.576  0.00  0.00    +0.000 C 
ATOM     23  C   UNL     1      -1.555  11.285  19.333  0.00  0.00    +0.000 C 
ATOM     24  N   UNL     1      -1.046  12.220  20.359  0.00  0.00    +0.000 N 
ATOM     25  C   UNL     1      -0.041  11.638  21.275  0.00  0.00    +0.000 C 
ATOM     26  C   UNL     1       1.113  11.008  20.468  0.00  0.00    +0.000 C 
BRANCH  24  27
ATOM     27  C   UNL     1      -1.544  13.502  20.529  0.00  0.00    +0.000 A 
ATOM     28  C   UNL     1      -0.794  14.589  20.030  0.00  0.00    +0.000 A 
ATOM     29  C   UNL     1      -1.234  15.915  20.105  0.00  0.00    +0.000 A 
ATOM     30  C   UNL     1      -2.466  16.202  20.670  0.00  0.00    +0.000 A 
ATOM     31  C   UNL     1      -3.236  15.165  21.184  0.00  0.00    +0.000 A 
ATOM     32  C   UNL     1      -2.778  13.838  21.138  0.00  0.00    +0.000 A 
ATOM     33 CL   UNL     1      -3.783  12.694  21.976  0.00  0.00    +0.000 Cl
ENDBRANCH  24  27
ENDBRANCH   4  21
TORSDOF 6
ENDMDL
MODEL 5
REMARK VINA RESULT:      -8.3      1.758      2.201
REMARK  Name = 
REMARK  6 active torsions:
REMARK  status: ('A' for Active; 'I' for Inactive)
REMARK    1  A    between atoms: C_4  and  C_5
REMARK    2  A    between atoms: C_5  and  O_6
REMARK    3  A    between atoms: O_6  and  N_7
REMARK    4  A    between atoms: N_13  and  C_14
REMARK    5  A    between atoms: C_17  and  N_18
REMARK    6  A    between atoms: N_21  and  C_22
REMARK                            x       y       z     vdW  Elec       q    Type
REMARK                         _______ _______ _______ _____ _____    ______ ____
ROOT
ATOM      1  C   UNL     1       2.858   6.889  18.747  0.00  0.00    +0.000 A 
ATOM      2  C   UNL     1       2.311   6.778  20.026  0.00  0.00    +0.000 A 
ATOM      3  C   UNL     1       1.506   7.793  20.553  0.00  0.00    +0.000 A 
ATOM      4  C   UNL     1       1.197   8.949  19.823  0.00  0.00    +0.000 A 
ATOM      5  C   UNL     1       1.759   9.047  18.545  0.00  0.00    +0.000 A 
ATOM      6  F   UNL     1       1.527  10.124  17.775  0.00  0.00    +0.000 F 
ATOM      7  C   UNL     1       2.584   8.051  18.018  0.00  0.00    +0.000 A 
ENDROOT
BRANCH   1  13
ATOM      8  O   UNL     1       2.110   4.239  17.505  0.00  0.00    +0.000 OA
ATOM      9  C   UNL     1       3.243   4.663  17.661  0.00  0.00    +0.000 C 
ATOM     10  O   UNL     1       4.330   3.957  17.213  0.00  0.00    +0.000 OA
ATOM     11  C   UNL     1       5.517   4.610  17.677  0.00  0.00    +0.000 C 
ATOM     12  C   UNL     1       5.077   6.020  17.995  0.00  0.00    +0.000 C 
ATOM     13  N   UNL     1       3.670   5.865  18.204  0.00  0.00    +0.000 N 
BRANCH  11  14
ATOM     14  C   UNL     1       6.590   4.551  16.595  0.00  0.00    +0.000 C 
BRANCH  14  15
ATOM     15  O   UNL     1       6.126   3.783  15.479  0.00  0.00    +0.000 OA
BRANCH  15  16
ATOM     16  N   UNL     1       6.697   4.225  14.280  0.00  0.00    +0.000 N 
ATOM     17  C   UNL     1       6.377   3.685  13.058  0.00  0.00    +0.000 A 
ATOM     18  C   UNL     1       7.134   4.364  12.073  0.00  0.00    +0.000 A 
ATOM     19  C   UNL     1       7.863   5.291  12.812  0.00  0.00    +0.000 A 
ATOM     20  O   UNL     1       7.612   5.202  14.165  0.00  0.00    +0.000 OA
ENDBRANCH  15  16
ENDBRANCH  14  15
ENDBRANCH  11  14
ENDBRANCH   1  13
BRANCH   4  21
ATOM     21  N   UNL     1       0.314   9.860  20.373  0.00  0.00    +0.000 N 
ATOM     22  C   UNL     1       0.104   9.919  21.830  0.00  0.00    +0.000 C 
ATOM     23  C   UNL     1      -0.374  11.335  22.238  0.00  0.00    +0.000 C 
ATOM     24  N   UNL     1      -1.525  11.772  21.422  0.00  0.00    +0.000 N 
ATOM     25  C   UNL     1      -1.328  11.641  19.962  0.00  0.00    +0.000 C 
ATOM     26  C   UNL     1      -0.905  10.200  19.609  0.00  0.00    +0.000 C 
BRANCH  24  27
ATOM     27  C   UNL     1      -2.656  12.362  21.962  0.00  0.00    +0.000 A 
ATOM     28  C   UNL     1      -2.679  12.636  23.347  0.00  0.00    +0.000 A 
ATOM     29  C   UNL     1      -3.751  13.276  23.978  0.00  0.00    +0.000 A 
ATOM     30  C   UNL     1      -4.842  13.692  23.233  0.00  0.00    +0.000 A 
ATOM     31  C   UNL     1      -4.869  13.437  21.867  0.00  0.00    +0.000 A 
ATOM     32  C   UNL     1      -3.808  12.763  21.241  0.00  0.00    +0.000 A 
ATOM     33 CL   UNL     1      -4.081  12.377  19.568  0.00  0.00    +0.000 Cl
ENDBRANCH  24  27
ENDBRANCH   4  21
TORSDOF 6
ENDMDL
MODEL 6
REMARK VINA RESULT:      -8.3      1.265      1.766
REMARK  Name = 
REMARK  6 active torsions:
REMARK  status: ('A' for Active; 'I' for Inactive)
REMARK    1  A    between atoms: C_4  and  C_5
REMARK    2  A    between atoms: C_5  and  O_6
REMARK    3  A    between atoms: O_6  and  N_7
REMARK    4  A    between atoms: N_13  and  C_14
REMARK    5  A    between atoms: C_17  and  N_18
REMARK    6  A    between atoms: N_21  and  C_22
REMARK                            x       y       z     vdW  Elec       q    Type
REMARK                         _______ _______ _______ _____ _____    ______ ____
ROOT
ATOM      1  C   UNL     1       2.944   7.045  18.398  0.00  0.00    +0.000 A 
ATOM      2  C   UNL     1       2.643   8.122  17.563  0.00  0.00    +0.000 A 
ATOM      3  C   UNL     1       1.825   9.166  18.006  0.00  0.00    +0.000 A 
ATOM      4  C   UNL     1       1.290   9.192  19.301  0.00  0.00    +0.000 A 
ATOM      5  C   UNL     1       1.597   8.102  20.124  0.00  0.00    +0.000 A 
ATOM      6  F   UNL     1       1.121   8.035  21.378  0.00  0.00    +0.000 F 
ATOM      7  C   UNL     1       2.393   7.041  19.684  0.00  0.00    +0.000 A 
ENDROOT
BRANCH   1  13
ATOM      8  O   UNL     1       2.245   4.265  17.449  0.00  0.00    +0.000 OA
ATOM      9  C   UNL     1       3.370   4.725  17.551  0.00  0.00    +0.000 C 
ATOM     10  O   UNL     1       4.468   3.997  17.171  0.00  0.00    +0.000 OA
ATOM     11  C   UNL     1       5.644   4.720  17.555  0.00  0.00    +0.000 C 
ATOM     12  C   UNL     1       5.177   6.146  17.726  0.00  0.00    +0.000 C 
ATOM     13  N   UNL     1       3.775   5.986  17.961  0.00  0.00    +0.000 N 
BRANCH  11  14
ATOM     14  C   UNL     1       6.712   4.569  16.477  0.00  0.00    +0.000 C 
BRANCH  14  15
ATOM     15  O   UNL     1       6.437   5.447  15.380  0.00  0.00    +0.000 OA
BRANCH  15  16
ATOM     16  N   UNL     1       6.463   4.765  14.158  0.00  0.00    +0.000 N 
ATOM     17  C   UNL     1       7.436   4.969  13.210  0.00  0.00    +0.000 A 
ATOM     18  C   UNL     1       7.156   4.121  12.112  0.00  0.00    +0.000 A 
ATOM     19  C   UNL     1       6.003   3.451  12.511  0.00  0.00    +0.000 A 
ATOM     20  O   UNL     1       5.565   3.850  13.756  0.00  0.00    +0.000 OA
ENDBRANCH  15  16
ENDBRANCH  14  15
ENDBRANCH  11  14
ENDBRANCH   1  13
BRANCH   4  21
ATOM     21  N   UNL     1       0.574  10.307  19.697  0.00  0.00    +0.000 N 
ATOM     22  C   UNL     1       1.062  11.164  20.793  0.00  0.00    +0.000 C 
ATOM     23  C   UNL     1       0.503  12.599  20.630  0.00  0.00    +0.000 C 
ATOM     24  N   UNL     1      -0.964  12.589  20.449  0.00  0.00    +0.000 N 
ATOM     25  C   UNL     1      -1.446  11.672  19.394  0.00  0.00    +0.000 C 
ATOM     26  C   UNL     1      -0.901  10.249  19.636  0.00  0.00    +0.000 C 
BRANCH  24  27
ATOM     27  C   UNL     1      -1.817  13.446  21.126  0.00  0.00    +0.000 A 
ATOM     28  C   UNL     1      -2.036  14.737  20.597  0.00  0.00    +0.000 A 
ATOM     29  C   UNL     1      -2.918  15.655  21.177  0.00  0.00    +0.000 A 
ATOM     30  C   UNL     1      -3.638  15.303  22.307  0.00  0.00    +0.000 A 
ATOM     31  C   UNL     1      -3.448  14.046  22.869  0.00  0.00    +0.000 A 
ATOM     32  C   UNL     1      -2.537  13.137  22.306  0.00  0.00    +0.000 A 
ATOM     33 CL   UNL     1      -2.298  11.684  23.229  0.00  0.00    +0.000 Cl
ENDBRANCH  24  27
ENDBRANCH   4  21
TORSDOF 6
ENDMDL
MODEL 7
REMARK VINA RESULT:      -8.3      1.890      2.511
REMARK  Name = 
REMARK  6 active torsions:
REMARK  status: ('A' for Active; 'I' for Inactive)
REMARK    1  A    between atoms: C_4  and  C_5
REMARK    2  A    between atoms: C_5  and  O_6
REMARK    3  A    between atoms: O_6  and  N_7
REMARK    4  A    between atoms: N_13  and  C_14
REMARK    5  A    between atoms: C_17  and  N_18
REMARK    6  A    between atoms: N_21  and  C_22
REMARK                            x       y       z     vdW  Elec       q    Type
REMARK                         _______ _______ _______ _____ _____    ______ ____
ROOT
ATOM      1  C   UNL     1       2.114   7.383  19.723  0.00  0.00    +0.000 A 
ATOM      2  C   UNL     1       1.989   8.190  18.591  0.00  0.00    +0.000 A 
ATOM      3  C   UNL     1       1.369   9.441  18.667  0.00  0.00    +0.000 A 
ATOM      4  C   UNL     1       0.865   9.948  19.871  0.00  0.00    +0.000 A 
ATOM      5  C   UNL     1       0.992   9.124  20.996  0.00  0.00    +0.000 A 
ATOM      6  F   UNL     1       0.529   9.521  22.193  0.00  0.00    +0.000 F 
ATOM      7  C   UNL     1       1.588   7.862  20.928  0.00  0.00    +0.000 A 
ENDROOT
BRANCH   1  13
ATOM      8  O   UNL     1       1.073   4.633  20.411  0.00  0.00    +0.000 OA
ATOM      9  C   UNL     1       2.194   4.895  20.008  0.00  0.00    +0.000 C 
ATOM     10  O   UNL     1       3.109   3.901  19.769  0.00  0.00    +0.000 OA
ATOM     11  C   UNL     1       4.370   4.511  19.467  0.00  0.00    +0.000 C 
ATOM     12  C   UNL     1       4.022   5.919  19.046  0.00  0.00    +0.000 C 
ATOM     13  N   UNL     1       2.744   6.118  19.657  0.00  0.00    +0.000 N 
BRANCH  11  14
ATOM     14  C   UNL     1       5.073   3.718  18.371  0.00  0.00    +0.000 C 
BRANCH  14  15
ATOM     15  O   UNL     1       6.264   4.395  17.957  0.00  0.00    +0.000 OA
BRANCH  15  16
ATOM     16  N   UNL     1       6.345   4.481  16.562  0.00  0.00    +0.000 N 
ATOM     17  C   UNL     1       5.276   4.230  15.735  0.00  0.00    +0.000 A 
ATOM     18  C   UNL     1       5.710   4.410  14.400  0.00  0.00    +0.000 A 
ATOM     19  C   UNL     1       7.046   4.773  14.543  0.00  0.00    +0.000 A 
ATOM     20  O   UNL     1       7.445   4.805  15.863  0.00  0.00    +0.000 OA
ENDBRANCH  15  16
ENDBRANCH  14  15
ENDBRANCH  11  14
ENDBRANCH   1  13
BRANCH   4  21
ATOM     21  N   UNL     1       0.357  11.235  19.885  0.00  0.00    +0.000 N 
ATOM     22  C   UNL     1      -0.662  11.651  18.905  0.00  0.00    +0.000 C 
ATOM     23  C   UNL     1      -1.502  12.818  19.481  0.00  0.00    +0.000 C 
ATOM     24  N   UNL     1      -0.640  13.906  19.988  0.00  0.00    +0.000 N 
ATOM     25  C   UNL     1       0.424  13.464  20.915  0.00  0.00    +0.000 C 
ATOM     26  C   UNL     1       1.260  12.339  20.270  0.00  0.00    +0.000 C 
BRANCH  24  27
ATOM     27  C   UNL     1      -0.868  15.244  19.713  0.00  0.00    +0.000 A 
ATOM     28  C   UNL     1      -0.244  15.818  18.583  0.00  0.00    +0.000 A 
ATOM     29  C   UNL     1      -0.453  17.145  18.192  0.00  0.00    +0.000 A 
ATOM     30  C   UNL     1      -1.321  17.949  18.912  0.00  0.00    +0.000 A 
ATOM     31  C   UNL     1      -1.952  17.431  20.037  0.00  0.00    +0.000 A 
ATOM     32  C   UNL     1      -1.715  16.109  20.449  0.00  0.00    +0.000 A 
ATOM     33 CL   UNL     1      -2.448  15.680  21.965  0.00  0.00    +0.000 Cl
ENDBRANCH  24  27
ENDBRANCH   4  21
TORSDOF 6
ENDMDL
MODEL 8
REMARK VINA RESULT:      -8.3      1.652      2.216
REMARK  Name = 
REMARK  6 active torsions:
REMARK  status: ('A' for Active; 'I' for Inactive)
REMARK    1  A    between atoms: C_4  and  C_5
REMARK    2  A    between atoms: C_5  and  O_6
REMARK    3  A    between atoms: O_6  and  N_7
REMARK    4  A    between atoms: N_13  and  C_14
REMARK    5  A    between atoms: C_17  and  N_18
REMARK    6  A    between atoms: N_21  and  C_22
REMARK                            x       y       z     vdW  Elec       q    Type
REMARK                         _______ _______ _______ _____ _____    ______ ____
ROOT
ATOM      1  C   UNL     1       2.855   6.982  18.653  0.00  0.00    +0.000 A 
ATOM      2  C   UNL     1       2.295   6.941  19.931  0.00  0.00    +0.000 A 
ATOM      3  C   UNL     1       1.505   7.993  20.402  0.00  0.00    +0.000 A 
ATOM      4  C   UNL     1       1.222   9.119  19.617  0.00  0.00    +0.000 A 
ATOM      5  C   UNL     1       1.796   9.147  18.340  0.00  0.00    +0.000 A 
ATOM      6  F   UNL     1       1.590  10.190  17.519  0.00  0.00    +0.000 F 
ATOM      7  C   UNL     1       2.608   8.113  17.868  0.00  0.00    +0.000 A 
ENDROOT
BRANCH   1  13
ATOM      8  O   UNL     1       2.068   4.299  17.511  0.00  0.00    +0.000 OA
ATOM      9  C   UNL     1       3.208   4.705  17.667  0.00  0.00    +0.000 C 
ATOM     10  O   UNL     1       4.286   3.958  17.266  0.00  0.00    +0.000 OA
ATOM     11  C   UNL     1       5.480   4.605  17.721  0.00  0.00    +0.000 C 
ATOM     12  C   UNL     1       5.066   6.036  17.974  0.00  0.00    +0.000 C 
ATOM     13  N   UNL     1       3.653   5.919  18.166  0.00  0.00    +0.000 N 
BRANCH  11  14
ATOM     14  C   UNL     1       6.567   4.479  16.660  0.00  0.00    +0.000 C 
BRANCH  14  15
ATOM     15  O   UNL     1       6.082   3.727  15.541  0.00  0.00    +0.000 OA
BRANCH  15  16
ATOM     16  N   UNL     1       6.645   4.176  14.340  0.00  0.00    +0.000 N 
ATOM     17  C   UNL     1       6.293   3.663  13.115  0.00  0.00    +0.000 A 
ATOM     18  C   UNL     1       7.050   4.341  12.129  0.00  0.00    +0.000 A 
ATOM     19  C   UNL     1       7.811   5.239  12.871  0.00  0.00    +0.000 A 
ATOM     20  O   UNL     1       7.579   5.134  14.226  0.00  0.00    +0.000 OA
ENDBRANCH  15  16
ENDBRANCH  14  15
ENDBRANCH  11  14
ENDBRANCH   1  13
BRANCH   4  21
ATOM     21  N   UNL     1       0.351  10.070  20.115  0.00  0.00    +0.000 N 
ATOM     22  C   UNL     1       0.178  10.244  21.568  0.00  0.00    +0.000 C 
ATOM     23  C   UNL     1      -0.292  11.688  21.875  0.00  0.00    +0.000 C 
ATOM     24  N   UNL     1      -1.466  12.058  21.057  0.00  0.00    +0.000 N 
ATOM     25  C   UNL     1      -1.306  11.812  19.607  0.00  0.00    +0.000 C 
ATOM     26  C   UNL     1      -0.888  10.348  19.359  0.00  0.00    +0.000 C 
BRANCH  24  27
ATOM     27  C   UNL     1      -2.584  12.689  21.577  0.00  0.00    +0.000 A 
ATOM     28  C   UNL     1      -3.822  12.520  20.919  0.00  0.00    +0.000 A 
ATOM     29  C   UNL     1      -5.017  13.071  21.395  0.00  0.00    +0.000 A 
ATOM     30  C   UNL     1      -5.020  13.801  22.572  0.00  0.00    +0.000 A 
ATOM     31  C   UNL     1      -3.824  14.003  23.250  0.00  0.00    +0.000 A 
ATOM     32  C   UNL     1      -2.619  13.477  22.754  0.00  0.00    +0.000 A 
ATOM     33 CL   UNL     1      -1.199  13.967  23.629  0.00  0.00    +0.000 Cl
ENDBRANCH  24  27
ENDBRANCH   4  21
TORSDOF 6
ENDMDL
MODEL 9
REMARK VINA RESULT:      -8.2      1.595      2.179
REMARK  Name = 
REMARK  6 active torsions:
REMARK  status: ('A' for Active; 'I' for Inactive)
REMARK    1  A    between atoms: C_4  and  C_5
REMARK    2  A    between atoms: C_5  and  O_6
REMARK    3  A    between atoms: O_6  and  N_7
REMARK    4  A    between atoms: N_13  and  C_14
REMARK    5  A    between atoms: C_17  and  N_18
REMARK    6  A    between atoms: N_21  and  C_22
REMARK                            x       y       z     vdW  Elec       q    Type
REMARK                         _______ _______ _______ _____ _____    ______ ____
ROOT
ATOM      1  C   UNL     1       2.688   6.900  18.650  0.00  0.00    +0.000 A 
ATOM      2  C   UNL     1       2.137   6.995  19.929  0.00  0.00    +0.000 A 
ATOM      3  C   UNL     1       1.461   8.149  20.335  0.00  0.00    +0.000 A 
ATOM      4  C   UNL     1       1.288   9.247  19.482  0.00  0.00    +0.000 A 
ATOM      5  C   UNL     1       1.852   9.139  18.205  0.00  0.00    +0.000 A 
ATOM      6  F   UNL     1       1.746  10.145  17.322  0.00  0.00    +0.000 F 
ATOM      7  C   UNL     1       2.550   8.000  17.796  0.00  0.00    +0.000 A 
ENDROOT
BRANCH   1  13
ATOM      8  O   UNL     1       1.743   4.040  18.440  0.00  0.00    +0.000 OA
ATOM      9  C   UNL     1       2.862   4.446  18.174  0.00  0.00    +0.000 C 
ATOM     10  O   UNL     1       3.822   3.600  17.680  0.00  0.00    +0.000 OA
ATOM     11  C   UNL     1       5.064   4.311  17.621  0.00  0.00    +0.000 C 
ATOM     12  C   UNL     1       4.670   5.769  17.631  0.00  0.00    +0.000 C 
ATOM     13  N   UNL     1       3.370   5.734  18.228  0.00  0.00    +0.000 N 
BRANCH  11  14
ATOM     14  C   UNL     1       5.825   3.909  16.363  0.00  0.00    +0.000 C 
BRANCH  14  15
ATOM     15  O   UNL     1       6.607   5.009  15.884  0.00  0.00    +0.000 OA
BRANCH  15  16
ATOM     16  N   UNL     1       6.921   4.863  14.528  0.00  0.00    +0.000 N 
ATOM     17  C   UNL     1       6.315   3.932  13.718  0.00  0.00    +0.000 A 
ATOM     18  C   UNL     1       6.867   4.062  12.421  0.00  0.00    +0.000 A 
ATOM     19  C   UNL     1       7.783   5.099  12.565  0.00  0.00    +0.000 A 
ATOM     20  O   UNL     1       7.832   5.585  13.855  0.00  0.00    +0.000 OA
ENDBRANCH  15  16
ENDBRANCH  14  15
ENDBRANCH  11  14
ENDBRANCH   1  13
BRANCH   4  21
ATOM     21  N   UNL     1       0.521  10.311  19.922  0.00  0.00    +0.000 N 
ATOM     22  C   UNL     1       0.656  10.816  21.300  0.00  0.00    +0.000 C 
ATOM     23  C   UNL     1       0.230  12.304  21.361  0.00  0.00    +0.000 C 
ATOM     24  N   UNL     1      -1.097  12.511  20.746  0.00  0.00    +0.000 N 
ATOM     25  C   UNL     1      -1.242  11.937  19.390  0.00  0.00    +0.000 C 
ATOM     26  C   UNL     1      -0.855  10.444  19.400  0.00  0.00    +0.000 C 
BRANCH  24  27
ATOM     27  C   UNL     1      -2.093  13.275  21.332  0.00  0.00    +0.000 A 
ATOM     28  C   UNL     1      -2.446  14.502  20.729  0.00  0.00    +0.000 A 
ATOM     29  C   UNL     1      -3.474  15.319  21.213  0.00  0.00    +0.000 A 
ATOM     30  C   UNL     1      -4.208  14.922  22.318  0.00  0.00    +0.000 A 
ATOM     31  C   UNL     1      -3.891  13.727  22.952  0.00  0.00    +0.000 A 
ATOM     32  C   UNL     1      -2.837  12.923  22.485  0.00  0.00    +0.000 A 
ATOM     33 CL   UNL     1      -2.468  11.556  23.491  0.00  0.00    +0.000 Cl
ENDBRANCH  24  27
ENDBRANCH   4  21
TORSDOF 6
ENDMDL
