MODEL 1
REMARK VINA RESULT:      -6.5      0.000      0.000
REMARK  Name = 
REMARK  5 active torsions:
REMARK  status: ('A' for Active; 'I' for Inactive)
REMARK    1  A    between atoms: C_2  and  C_3
REMARK    2  A    between atoms: C_2  and  C_4
REMARK    3  A    between atoms: C_7  and  C_8
REMARK    4  A    between atoms: C_12  and  C_13
REMARK    5  A    between atoms: C_17  and  C_18
REMARK                            x       y       z     vdW  Elec       q    Type
REMARK                         _______ _______ _______ _____ _____    ______ ____
ROOT
ATOM      1  C   UNL     1       3.981   3.176  19.145  0.00  0.00    +0.000 C 
ATOM      2  C   UNL     1       2.572   3.285  18.456  0.00  0.00    +0.000 C 
ATOM      3  C   UNL     1       1.420   3.238  19.457  0.00  0.00    +0.000 C 
ATOM      4  C   UNL     1       1.350   3.948  20.610  0.00  0.00    +0.000 C 
ATOM      5  C   UNL     1       1.447   3.134  21.879  0.00  0.00    +0.000 C 
ATOM      6  C   UNL     1       1.357   5.455  20.820  0.00  0.00    +0.000 C 
ATOM      7  C   UNL     1       1.927   6.308  19.694  0.00  0.00    +0.000 C 
ATOM      8  C   UNL     1       1.610   7.779  19.674  0.00  0.00    +0.000 C 
ATOM      9  C   UNL     1       2.032   8.688  18.756  0.00  0.00    +0.000 C 
ATOM     10  C   UNL     1       1.532  10.113  18.878  0.00  0.00    +0.000 C 
ATOM     11  C   UNL     1       2.979   8.469  17.552  0.00  0.00    +0.000 C 
ATOM     12  C   UNL     1       3.726   7.123  17.505  0.00  0.00    +0.000 C 
ATOM     13  C   UNL     1       4.654   6.754  16.389  0.00  0.00    +0.000 C 
ATOM     14  C   UNL     1       5.277   5.557  16.219  0.00  0.00    +0.000 C 
ATOM     15  C   UNL     1       6.072   5.370  14.937  0.00  0.00    +0.000 C 
ATOM     16  C   UNL     1       5.315   4.266  17.083  0.00  0.00    +0.000 C 
ATOM     17  C   UNL     1       4.937   4.264  18.576  0.00  0.00    +0.000 C 
ENDROOT
BRANCH   1  19
ATOM     18  C   UNL     1       4.206   0.701  18.557  0.00  0.00    +0.000 C 
ATOM     19  C   UNL     1       4.464   1.730  19.402  0.00  0.00    +0.000 C 
ATOM     20  C   UNL     1       5.086   1.375  20.726  0.00  0.00    +0.000 C 
ENDBRANCH   1  19
TORSDOF 1
ENDMDL
MODEL 2
REMARK VINA RESULT:      -6.0      7.945     11.571
REMARK  Name = 
REMARK  5 active torsions:
REMARK  status: ('A' for Active; 'I' for Inactive)
REMARK    1  A    between atoms: C_2  and  C_3
REMARK    2  A    between atoms: C_2  and  C_4
REMARK    3  A    between atoms: C_7  and  C_8
REMARK    4  A    between atoms: C_12  and  C_13
REMARK    5  A    between atoms: C_17  and  C_18
REMARK                            x       y       z     vdW  Elec       q    Type
REMARK                         _______ _______ _______ _____ _____    ______ ____
ROOT
ATOM      1  C   UNL     1      -4.449  13.622  20.846  0.00  0.00    +0.000 C 
ATOM      2  C   UNL     1      -5.226  12.257  20.771  0.00  0.00    +0.000 C 
ATOM      3  C   UNL     1      -6.543  12.368  20.006  0.00  0.00    +0.000 C 
ATOM      4  C   UNL     1      -6.708  12.981  18.808  0.00  0.00    +0.000 C 
ATOM      5  C   UNL     1      -7.526  14.250  18.837  0.00  0.00    +0.000 C 
ATOM      6  C   UNL     1      -6.055  12.676  17.468  0.00  0.00    +0.000 C 
ATOM      7  C   UNL     1      -4.753  11.885  17.496  0.00  0.00    +0.000 C 
ATOM      8  C   UNL     1      -4.280  11.232  16.225  0.00  0.00    +0.000 C 
ATOM      9  C   UNL     1      -3.149  10.497  16.063  0.00  0.00    +0.000 C 
ATOM     10  C   UNL     1      -2.897   9.860  14.712  0.00  0.00    +0.000 C 
ATOM     11  C   UNL     1      -2.040  10.197  17.101  0.00  0.00    +0.000 C 
ATOM     12  C   UNL     1      -2.091  11.008  18.409  0.00  0.00    +0.000 C 
ATOM     13  C   UNL     1      -1.105  10.810  19.519  0.00  0.00    +0.000 C 
ATOM     14  C   UNL     1      -1.131  11.412  20.738  0.00  0.00    +0.000 C 
ATOM     15  C   UNL     1      -0.096  10.955  21.753  0.00  0.00    +0.000 C 
ATOM     16  C   UNL     1      -2.067  12.488  21.354  0.00  0.00    +0.000 C 
ATOM     17  C   UNL     1      -2.952  13.403  20.486  0.00  0.00    +0.000 C 
ENDROOT
BRANCH   1  19
ATOM     18  C   UNL     1      -4.932  14.127  23.302  0.00  0.00    +0.000 C 
ATOM     19  C   UNL     1      -4.874  14.543  22.012  0.00  0.00    +0.000 C 
ATOM     20  C   UNL     1      -5.434  15.909  21.719  0.00  0.00    +0.000 C 
ENDBRANCH   1  19
TORSDOF 1
ENDMDL
MODEL 3
REMARK VINA RESULT:      -6.0      9.350     11.706
REMARK  Name = 
REMARK  5 active torsions:
REMARK  status: ('A' for Active; 'I' for Inactive)
REMARK    1  A    between atoms: C_2  and  C_3
REMARK    2  A    between atoms: C_2  and  C_4
REMARK    3  A    between atoms: C_7  and  C_8
REMARK    4  A    between atoms: C_12  and  C_13
REMARK    5  A    between atoms: C_17  and  C_18
REMARK                            x       y       z     vdW  Elec       q    Type
REMARK                         _______ _______ _______ _____ _____    ______ ____
ROOT
ATOM      1  C   UNL     1       9.698  14.616  18.627  0.00  0.00    +0.000 C 
ATOM      2  C   UNL     1       8.825  13.357  18.273  0.00  0.00    +0.000 C 
ATOM      3  C   UNL     1       9.609  12.050  18.366  0.00  0.00    +0.000 C 
ATOM      4  C   UNL     1      10.420  11.691  19.391  0.00  0.00    +0.000 C 
ATOM      5  C   UNL     1      11.894  11.635  19.063  0.00  0.00    +0.000 C 
ATOM      6  C   UNL     1      10.090  11.498  20.864  0.00  0.00    +0.000 C 
ATOM      7  C   UNL     1       8.828  12.173  21.385  0.00  0.00    +0.000 C 
ATOM      8  C   UNL     1       8.252  11.710  22.696  0.00  0.00    +0.000 C 
ATOM      9  C   UNL     1       7.143  12.197  23.312  0.00  0.00    +0.000 C 
ATOM     10  C   UNL     1       6.690  11.533  24.597  0.00  0.00    +0.000 C 
ATOM     11  C   UNL     1       6.235  13.370  22.872  0.00  0.00    +0.000 C 
ATOM     12  C   UNL     1       6.765  14.252  21.725  0.00  0.00    +0.000 C 
ATOM     13  C   UNL     1       5.989  15.406  21.171  0.00  0.00    +0.000 C 
ATOM     14  C   UNL     1       6.336  16.174  20.104  0.00  0.00    +0.000 C 
ATOM     15  C   UNL     1       5.324  17.210  19.643  0.00  0.00    +0.000 C 
ATOM     16  C   UNL     1       7.592  16.188  19.190  0.00  0.00    +0.000 C 
ATOM     17  C   UNL     1       8.924  15.540  19.612  0.00  0.00    +0.000 C 
ENDROOT
BRANCH   1  19
ATOM     18  C   UNL     1      11.475  14.497  16.797  0.00  0.00    +0.000 C 
ATOM     19  C   UNL     1      10.508  15.194  17.444  0.00  0.00    +0.000 C 
ATOM     20  C   UNL     1      10.376  16.651  17.090  0.00  0.00    +0.000 C 
ENDBRANCH   1  19
TORSDOF 1
ENDMDL
MODEL 4
REMARK VINA RESULT:      -5.9      8.207     11.556
REMARK  Name = 
REMARK  5 active torsions:
REMARK  status: ('A' for Active; 'I' for Inactive)
REMARK    1  A    between atoms: C_2  and  C_3
REMARK    2  A    between atoms: C_2  and  C_4
REMARK    3  A    between atoms: C_7  and  C_8
REMARK    4  A    between atoms: C_12  and  C_13
REMARK    5  A    between atoms: C_17  and  C_18
REMARK                            x       y       z     vdW  Elec       q    Type
REMARK                         _______ _______ _______ _____ _____    ______ ____
ROOT
ATOM      1  C   UNL     1      -3.788  12.780  21.790  0.00  0.00    +0.000 C 
ATOM      2  C   UNL     1      -2.882  13.680  20.873  0.00  0.00    +0.000 C 
ATOM      3  C   UNL     1      -1.412  13.270  20.909  0.00  0.00    +0.000 C 
ATOM      4  C   UNL     1      -0.947  12.001  20.798  0.00  0.00    +0.000 C 
ATOM      5  C   UNL     1      -0.324  11.427  22.049  0.00  0.00    +0.000 C 
ATOM      6  C   UNL     1      -1.107  11.009  19.655  0.00  0.00    +0.000 C 
ATOM      7  C   UNL     1      -2.257  11.249  18.685  0.00  0.00    +0.000 C 
ATOM      8  C   UNL     1      -2.230  10.553  17.351  0.00  0.00    +0.000 C 
ATOM      9  C   UNL     1      -3.165  10.646  16.369  0.00  0.00    +0.000 C 
ATOM     10  C   UNL     1      -2.907   9.918  15.065  0.00  0.00    +0.000 C 
ATOM     11  C   UNL     1      -4.504  11.422  16.386  0.00  0.00    +0.000 C 
ATOM     12  C   UNL     1      -4.957  11.974  17.751  0.00  0.00    +0.000 C 
ATOM     13  C   UNL     1      -6.215  12.769  17.921  0.00  0.00    +0.000 C 
ATOM     14  C   UNL     1      -6.640  13.371  19.064  0.00  0.00    +0.000 C 
ATOM     15  C   UNL     1      -7.885  14.236  18.964  0.00  0.00    +0.000 C 
ATOM     16  C   UNL     1      -6.069  13.393  20.509  0.00  0.00    +0.000 C 
ATOM     17  C   UNL     1      -5.063  12.342  21.013  0.00  0.00    +0.000 C 
ENDROOT
BRANCH   1  19
ATOM     18  C   UNL     1      -4.847  12.847  24.113  0.00  0.00    +0.000 C 
ATOM     19  C   UNL     1      -3.857  13.227  23.268  0.00  0.00    +0.000 C 
ATOM     20  C   UNL     1      -2.906  14.279  23.774  0.00  0.00    +0.000 C 
ENDBRANCH   1  19
TORSDOF 1
ENDMDL
MODEL 5
REMARK VINA RESULT:      -5.7      7.523     10.053
REMARK  Name = 
REMARK  5 active torsions:
REMARK  status: ('A' for Active; 'I' for Inactive)
REMARK    1  A    between atoms: C_2  and  C_3
REMARK    2  A    between atoms: C_2  and  C_4
REMARK    3  A    between atoms: C_7  and  C_8
REMARK    4  A    between atoms: C_12  and  C_13
REMARK    5  A    between atoms: C_17  and  C_18
REMARK                            x       y       z     vdW  Elec       q    Type
REMARK                         _______ _______ _______ _____ _____    ______ ____
ROOT
ATOM      1  C   UNL     1      -0.588  12.413  19.435  0.00  0.00    +0.000 C 
ATOM      2  C   UNL     1      -0.989  11.279  20.448  0.00  0.00    +0.000 C 
ATOM      3  C   UNL     1      -0.973  11.751  21.900  0.00  0.00    +0.000 C 
ATOM      4  C   UNL     1      -1.524  12.902  22.359  0.00  0.00    +0.000 C 
ATOM      5  C   UNL     1      -0.541  13.948  22.832  0.00  0.00    +0.000 C 
ATOM      6  C   UNL     1      -2.972  13.366  22.314  0.00  0.00    +0.000 C 
ATOM      7  C   UNL     1      -3.879  12.707  21.282  0.00  0.00    +0.000 C 
ATOM      8  C   UNL     1      -5.370  12.835  21.448  0.00  0.00    +0.000 C 
ATOM      9  C   UNL     1      -6.324  12.320  20.629  0.00  0.00    +0.000 C 
ATOM     10  C   UNL     1      -7.776  12.500  21.021  0.00  0.00    +0.000 C 
ATOM     11  C   UNL     1      -6.136  11.538  19.306  0.00  0.00    +0.000 C 
ATOM     12  C   UNL     1      -4.715  11.533  18.711  0.00  0.00    +0.000 C 
ATOM     13  C   UNL     1      -4.371  10.798  17.452  0.00  0.00    +0.000 C 
ATOM     14  C   UNL     1      -3.131  10.662  16.910  0.00  0.00    +0.000 C 
ATOM     15  C   UNL     1      -3.007   9.758  15.695  0.00  0.00    +0.000 C 
ATOM     16  C   UNL     1      -1.744  11.230  17.317  0.00  0.00    +0.000 C 
ATOM     17  C   UNL     1      -1.594  12.447  18.249  0.00  0.00    +0.000 C 
ENDROOT
BRANCH   1  19
ATOM     18  C   UNL     1       1.704  11.596  18.660  0.00  0.00    +0.000 C 
ATOM     19  C   UNL     1       0.933  12.568  19.209  0.00  0.00    +0.000 C 
ATOM     20  C   UNL     1       1.655  13.759  19.780  0.00  0.00    +0.000 C 
ENDBRANCH   1  19
TORSDOF 1
ENDMDL
MODEL 6
REMARK VINA RESULT:      -5.6      6.510     10.782
REMARK  Name = 
REMARK  5 active torsions:
REMARK  status: ('A' for Active; 'I' for Inactive)
REMARK    1  A    between atoms: C_2  and  C_3
REMARK    2  A    between atoms: C_2  and  C_4
REMARK    3  A    between atoms: C_7  and  C_8
REMARK    4  A    between atoms: C_12  and  C_13
REMARK    5  A    between atoms: C_17  and  C_18
REMARK                            x       y       z     vdW  Elec       q    Type
REMARK                         _______ _______ _______ _____ _____    ______ ____
ROOT
ATOM      1  C   UNL     1      -4.859  12.668  20.202  0.00  0.00    +0.000 C 
ATOM      2  C   UNL     1      -3.651  13.658  20.383  0.00  0.00    +0.000 C 
ATOM      3  C   UNL     1      -3.475  14.118  21.827  0.00  0.00    +0.000 C 
ATOM      4  C   UNL     1      -3.489  13.311  22.917  0.00  0.00    +0.000 C 
ATOM      5  C   UNL     1      -4.677  13.482  23.835  0.00  0.00    +0.000 C 
ATOM      6  C   UNL     1      -2.577  12.145  23.268  0.00  0.00    +0.000 C 
ATOM      7  C   UNL     1      -1.816  11.491  22.122  0.00  0.00    +0.000 C 
ATOM      8  C   UNL     1      -0.634  10.617  22.448  0.00  0.00    +0.000 C 
ATOM      9  C   UNL     1       0.154   9.956  21.561  0.00  0.00    +0.000 C 
ATOM     10  C   UNL     1       1.345   9.188  22.097  0.00  0.00    +0.000 C 
ATOM     11  C   UNL     1       0.012   9.875  20.022  0.00  0.00    +0.000 C 
ATOM     12  C   UNL     1      -1.304  10.411  19.427  0.00  0.00    +0.000 C 
ATOM     13  C   UNL     1      -1.576  10.426  17.955  0.00  0.00    +0.000 C 
ATOM     14  C   UNL     1      -2.663  10.964  17.340  0.00  0.00    +0.000 C 
ATOM     15  C   UNL     1      -2.659  10.977  15.821  0.00  0.00    +0.000 C 
ATOM     16  C   UNL     1      -3.950  11.637  17.893  0.00  0.00    +0.000 C 
ATOM     17  C   UNL     1      -4.420  11.444  19.347  0.00  0.00    +0.000 C 
ENDROOT
BRANCH   1  19
ATOM     18  C   UNL     1      -6.427  14.355  19.099  0.00  0.00    +0.000 C 
ATOM     19  C   UNL     1      -6.229  13.352  19.991  0.00  0.00    +0.000 C 
ATOM     20  C   UNL     1      -7.367  13.049  20.928  0.00  0.00    +0.000 C 
ENDBRANCH   1  19
TORSDOF 1
ENDMDL
MODEL 7
REMARK VINA RESULT:      -5.5      8.061     10.304
REMARK  Name = 
REMARK  5 active torsions:
REMARK  status: ('A' for Active; 'I' for Inactive)
REMARK    1  A    between atoms: C_2  and  C_3
REMARK    2  A    between atoms: C_2  and  C_4
REMARK    3  A    between atoms: C_7  and  C_8
REMARK    4  A    between atoms: C_12  and  C_13
REMARK    5  A    between atoms: C_17  and  C_18
REMARK                            x       y       z     vdW  Elec       q    Type
REMARK                         _______ _______ _______ _____ _____    ______ ____
ROOT
ATOM      1  C   UNL     1      -0.616  12.772  20.178  0.00  0.00    +0.000 C 
ATOM      2  C   UNL     1      -1.045  11.564  21.089  0.00  0.00    +0.000 C 
ATOM      3  C   UNL     1      -1.194  11.954  22.557  0.00  0.00    +0.000 C 
ATOM      4  C   UNL     1      -1.852  13.047  23.017  0.00  0.00    +0.000 C 
ATOM      5  C   UNL     1      -0.981  14.115  23.637  0.00  0.00    +0.000 C 
ATOM      6  C   UNL     1      -3.314  13.435  22.854  0.00  0.00    +0.000 C 
ATOM      7  C   UNL     1      -4.079  12.788  21.707  0.00  0.00    +0.000 C 
ATOM      8  C   UNL     1      -5.584  12.827  21.732  0.00  0.00    +0.000 C 
ATOM      9  C   UNL     1      -6.424  12.309  20.799  0.00  0.00    +0.000 C 
ATOM     10  C   UNL     1      -7.915  12.389  21.055  0.00  0.00    +0.000 C 
ATOM     11  C   UNL     1      -6.066  11.613  19.463  0.00  0.00    +0.000 C 
ATOM     12  C   UNL     1      -4.598  11.715  19.011  0.00  0.00    +0.000 C 
ATOM     13  C   UNL     1      -4.094  11.071  17.756  0.00  0.00    +0.000 C 
ATOM     14  C   UNL     1      -2.802  11.031  17.332  0.00  0.00    +0.000 C 
ATOM     15  C   UNL     1      -2.511  10.204  16.091  0.00  0.00    +0.000 C 
ATOM     16  C   UNL     1      -1.495  11.649  17.901  0.00  0.00    +0.000 C 
ATOM     17  C   UNL     1      -1.506  12.819  18.903  0.00  0.00    +0.000 C 
ENDROOT
BRANCH   1  19
ATOM     18  C   UNL     1       1.533  13.996  20.815  0.00  0.00    +0.000 C 
ATOM     19  C   UNL     1       0.908  13.020  20.110  0.00  0.00    +0.000 C 
ATOM     20  C   UNL     1       1.738  12.290  19.089  0.00  0.00    +0.000 C 
ENDBRANCH   1  19
TORSDOF 1
ENDMDL
MODEL 8
REMARK VINA RESULT:      -5.5      5.807     10.112
REMARK  Name = 
REMARK  5 active torsions:
REMARK  status: ('A' for Active; 'I' for Inactive)
REMARK    1  A    between atoms: C_2  and  C_3
REMARK    2  A    between atoms: C_2  and  C_4
REMARK    3  A    between atoms: C_7  and  C_8
REMARK    4  A    between atoms: C_12  and  C_13
REMARK    5  A    between atoms: C_17  and  C_18
REMARK                            x       y       z     vdW  Elec       q    Type
REMARK                         _______ _______ _______ _____ _____    ______ ____
ROOT
ATOM      1  C   UNL     1       2.644  14.451  18.988  0.00  0.00    +0.000 C 
ATOM      2  C   UNL     1       3.224  14.012  20.382  0.00  0.00    +0.000 C 
ATOM      3  C   UNL     1       3.165  15.126  21.424  0.00  0.00    +0.000 C 
ATOM      4  C   UNL     1       2.089  15.912  21.675  0.00  0.00    +0.000 C 
ATOM      5  C   UNL     1       2.239  17.362  21.281  0.00  0.00    +0.000 C 
ATOM      6  C   UNL     1       0.693  15.521  22.139  0.00  0.00    +0.000 C 
ATOM      7  C   UNL     1       0.266  14.077  21.909  0.00  0.00    +0.000 C 
ATOM      8  C   UNL     1      -0.914  13.545  22.678  0.00  0.00    +0.000 C 
ATOM      9  C   UNL     1      -1.435  12.293  22.598  0.00  0.00    +0.000 C 
ATOM     10  C   UNL     1      -2.584  11.937  23.520  0.00  0.00    +0.000 C 
ATOM     11  C   UNL     1      -1.005  11.129  21.673  0.00  0.00    +0.000 C 
ATOM     12  C   UNL     1      -0.024  11.483  20.540  0.00  0.00    +0.000 C 
ATOM     13  C   UNL     1       0.505  10.460  19.582  0.00  0.00    +0.000 C 
ATOM     14  C   UNL     1       1.441  10.666  18.618  0.00  0.00    +0.000 C 
ATOM     15  C   UNL     1       1.919   9.444  17.850  0.00  0.00    +0.000 C 
ATOM     16  C   UNL     1       2.190  11.941  18.142  0.00  0.00    +0.000 C 
ATOM     17  C   UNL     1       1.675  13.360  18.447  0.00  0.00    +0.000 C 
ENDROOT
BRANCH   1  19
ATOM     18  C   UNL     1       4.938  14.743  17.904  0.00  0.00    +0.000 C 
ATOM     19  C   UNL     1       3.658  15.163  18.063  0.00  0.00    +0.000 C 
ATOM     20  C   UNL     1       3.300  16.486  17.443  0.00  0.00    +0.000 C 
ENDBRANCH   1  19
TORSDOF 1
ENDMDL
MODEL 9
REMARK VINA RESULT:      -5.5      6.059     10.145
REMARK  Name = 
REMARK  5 active torsions:
REMARK  status: ('A' for Active; 'I' for Inactive)
REMARK    1  A    between atoms: C_2  and  C_3
REMARK    2  A    between atoms: C_2  and  C_4
REMARK    3  A    between atoms: C_7  and  C_8
REMARK    4  A    between atoms: C_12  and  C_13
REMARK    5  A    between atoms: C_17  and  C_18
REMARK                            x       y       z     vdW  Elec       q    Type
REMARK                         _______ _______ _______ _____ _____    ______ ____
ROOT
ATOM      1  C   UNL     1      -0.699  11.225  19.167  0.00  0.00    +0.000 C 
ATOM      2  C   UNL     1      -1.336  12.384  18.317  0.00  0.00    +0.000 C 
ATOM      3  C   UNL     1      -2.031  11.879  17.055  0.00  0.00    +0.000 C 
ATOM      4  C   UNL     1      -2.888  10.829  16.996  0.00  0.00    +0.000 C 
ATOM      5  C   UNL     1      -2.377   9.617  16.253  0.00  0.00    +0.000 C 
ATOM      6  C   UNL     1      -4.218  10.626  17.706  0.00  0.00    +0.000 C 
ATOM      7  C   UNL     1      -4.471  11.460  18.955  0.00  0.00    +0.000 C 
ATOM      8  C   UNL     1      -5.882  11.589  19.461  0.00  0.00    +0.000 C 
ATOM      9  C   UNL     1      -6.292  12.284  20.554  0.00  0.00    +0.000 C 
ATOM     10  C   UNL     1      -7.777  12.349  20.846  0.00  0.00    +0.000 C 
ATOM     11  C   UNL     1      -5.429  13.055  21.582  0.00  0.00    +0.000 C 
ATOM     12  C   UNL     1      -3.907  12.829  21.504  0.00  0.00    +0.000 C 
ATOM     13  C   UNL     1      -2.941  13.526  22.412  0.00  0.00    +0.000 C 
ATOM     14  C   UNL     1      -1.584  13.459  22.351  0.00  0.00    +0.000 C 
ATOM     15  C   UNL     1      -0.807  14.359  23.297  0.00  0.00    +0.000 C 
ATOM     16  C   UNL     1      -0.617  12.647  21.446  0.00  0.00    +0.000 C 
ATOM     17  C   UNL     1      -1.072  11.398  20.668  0.00  0.00    +0.000 C 
ENDROOT
BRANCH   1  19
ATOM     18  C   UNL     1       1.759  11.690  18.649  0.00  0.00    +0.000 C 
ATOM     19  C   UNL     1       0.727  10.814  18.731  0.00  0.00    +0.000 C 
ATOM     20  C   UNL     1       0.971   9.432  18.187  0.00  0.00    +0.000 C 
ENDBRANCH   1  19
TORSDOF 1
ENDMDL
