MODEL 1
REMARK VINA RESULT:     -10.9      0.000      0.000
REMARK  Name = 
REMARK  6 active torsions:
REMARK  status: ('A' for Active; 'I' for Inactive)
REMARK    1  A    between atoms: C_2  and  C_3
REMARK    2  A    between atoms: C_3  and  N_4
REMARK    3  A    between atoms: C_5  and  C_6
REMARK    4  A    between atoms: C_12  and  C_13
REMARK    5  A    between atoms: C_13  and  C_14
REMARK    6  A    between atoms: C_15  and  O_16
REMARK                            x       y       z     vdW  Elec       q    Type
REMARK                         _______ _______ _______ _____ _____    ______ ____
ROOT
ATOM      1  N   UNL     1       3.241   4.422  18.279  0.00  0.00    +0.000 N 
ATOM      2  C   UNL     1       3.859   5.776  18.115  0.00  0.00    +0.000 A 
ATOM      3  C   UNL     1       5.218   5.965  17.694  0.00  0.00    +0.000 A 
ATOM      4  C   UNL     1       5.932   4.743  17.558  0.00  0.00    +0.000 A 
ATOM      5  O   UNL     1       7.104   4.890  17.247  0.00  0.00    +0.000 OA
ATOM      6  N   UNL     1       5.348   3.548  17.776  0.00  0.00    +0.000 N 
ATOM      7  C   UNL     1       4.050   3.288  18.128  0.00  0.00    +0.000 A 
ATOM      8  S   UNL     1       3.609   1.674  18.333  0.00  0.00    +0.000 S 
ATOM      9  H   UNL     1       5.980   2.775  17.652  0.00  0.00    +0.000 HD
ENDROOT
BRANCH   2  10
ATOM     10  C   UNL     1       2.897   6.914  18.384  0.00  0.00    +0.000 A 
ATOM     11  C   UNL     1       2.574   7.923  17.435  0.00  0.00    +0.000 A 
ATOM     12  C   UNL     1       1.965   9.132  17.816  0.00  0.00    +0.000 A 
ATOM     13  C   UNL     1       1.483   9.265  19.103  0.00  0.00    +0.000 A 
ATOM     14  C   UNL     1       1.643   8.214  20.000  0.00  0.00    +0.000 A 
ATOM     15  C   UNL     1       2.465   7.126  19.694  0.00  0.00    +0.000 A 
ENDBRANCH   2  10
BRANCH   1  16
ATOM     16  C   UNL     1       1.794   4.148  18.664  0.00  0.00    +0.000 C 
BRANCH  16  18
ATOM     17  C   UNL     1       0.894   3.061  20.739  0.00  0.00    +0.000 C 
ATOM     18  C   UNL     1       1.580   4.023  20.128  0.00  0.00    +0.000 C 
ENDBRANCH  16  18
ENDBRANCH   1  16
BRANCH   3  19
ATOM     19  C   UNL     1       6.469   7.281  17.313  0.00  0.00    +0.000 C 
BRANCH  19  20
ATOM     20  C   UNL     1       7.602   8.939  17.742  0.00  0.00    +0.000 A 
ATOM     21  C   UNL     1       7.973   7.944  18.350  0.00  0.00    +0.000 A 
ATOM     22  C   UNL     1       8.217   9.108  18.064  0.00  0.00    +0.000 A 
ATOM     23  C   UNL     1       9.375   9.581  18.835  0.00  0.00    +0.000 A 
ATOM     24  C   UNL     1       9.576  10.800  18.628  0.00  0.00    +0.000 A 
ATOM     25  C   UNL     1      10.853  11.447  19.483  0.00  0.00    +0.000 A 
ATOM     26  C   UNL     1      11.203  12.760  19.679  0.00  0.00    +0.000 A 
ATOM     27  C   UNL     1      10.427  13.440  18.823  0.00  0.00    +0.000 A 
ATOM     28  C   UNL     1       9.297  12.537  17.867  0.00  0.00    +0.000 A 
ATOM     29  C   UNL     1       8.497  10.864  17.794  0.00  0.00    +0.000 A 
BRANCH  21  30
ATOM     30  O   UNL     1       8.565   7.125  19.085  0.00  0.00    +0.000 OA
ATOM     31  H   UNL     1       9.376   6.884  18.595  0.00  0.00    +0.000 HD
ENDBRANCH  21  30
ENDBRANCH  19  20
ENDBRANCH   3  19
TORSDOF 6
ENDMDL
MODEL 2
REMARK VINA RESULT:      -9.3      0.594      1.114
REMARK  Name = 
REMARK  6 active torsions:
REMARK  status: ('A' for Active; 'I' for Inactive)
REMARK    1  A    between atoms: C_2  and  C_3
REMARK    2  A    between atoms: C_3  and  N_4
REMARK    3  A    between atoms: C_5  and  C_6
REMARK    4  A    between atoms: C_12  and  C_13
REMARK    5  A    between atoms: C_13  and  C_14
REMARK    6  A    between atoms: C_15  and  O_16
REMARK                            x       y       z     vdW  Elec       q    Type
REMARK                         _______ _______ _______ _____ _____    ______ ____
ROOT
ATOM      1  N   UNL     1       3.475   4.548  18.712  0.00  0.00    +0.000 N 
ATOM      2  C   UNL     1       4.060   5.908  18.487  0.00  0.00    +0.000 A 
ATOM      3  C   UNL     1       5.372   6.109  17.940  0.00  0.00    +0.000 A 
ATOM      4  C   UNL     1       6.083   4.895  17.741  0.00  0.00    +0.000 A 
ATOM      5  O   UNL     1       7.219   5.053  17.321  0.00  0.00    +0.000 OA
ATOM      6  N   UNL     1       5.536   3.694  18.017  0.00  0.00    +0.000 N 
ATOM      7  C   UNL     1       4.279   3.422  18.490  0.00  0.00    +0.000 A 
ATOM      8  S   UNL     1       3.877   1.804  18.740  0.00  0.00    +0.000 S 
ATOM      9  H   UNL     1       6.161   2.928  17.836  0.00  0.00    +0.000 HD
ENDROOT
BRANCH   2  10
ATOM     10  C   UNL     1       3.115   7.037  18.841  0.00  0.00    +0.000 A 
ATOM     11  C   UNL     1       2.459   7.159  20.096  0.00  0.00    +0.000 A 
ATOM     12  C   UNL     1       1.346   8.001  20.272  0.00  0.00    +0.000 A 
ATOM     13  C   UNL     1       1.005   8.884  19.267  0.00  0.00    +0.000 A 
ATOM     14  C   UNL     1       1.748   8.892  18.091  0.00  0.00    +0.000 A 
ATOM     15  C   UNL     1       2.684   7.890  17.824  0.00  0.00    +0.000 A 
ENDBRANCH   2  10
BRANCH   1  16
ATOM     16  C   UNL     1       2.074   4.260  19.232  0.00  0.00    +0.000 C 
BRANCH  16  18
ATOM     17  C   UNL     1       0.450   2.464  18.574  0.00  0.00    +0.000 C 
ATOM     18  C   UNL     1       1.226   3.503  18.278  0.00  0.00    +0.000 C 
ENDBRANCH  16  18
ENDBRANCH   1  16
BRANCH   3  19
ATOM     19  C   UNL     1       6.567   7.437  17.439  0.00  0.00    +0.000 C 
BRANCH  19  20
ATOM     20  C   UNL     1       7.725   9.103  17.759  0.00  0.00    +0.000 A 
ATOM     21  C   UNL     1       8.105   8.134  18.401  0.00  0.00    +0.000 A 
ATOM     22  C   UNL     1       8.350   9.281  18.055  0.00  0.00    +0.000 A 
ATOM     23  C   UNL     1       9.533   9.778  18.769  0.00  0.00    +0.000 A 
ATOM     24  C   UNL     1       9.738  10.985  18.500  0.00  0.00    +0.000 A 
ATOM     25  C   UNL     1      11.044  11.659  19.288  0.00  0.00    +0.000 A 
ATOM     26  C   UNL     1      11.411  12.976  19.413  0.00  0.00    +0.000 A 
ATOM     27  C   UNL     1      10.615  13.623  18.548  0.00  0.00    +0.000 A 
ATOM     28  C   UNL     1       9.451  12.687  17.668  0.00  0.00    +0.000 A 
ATOM     29  C   UNL     1       8.636  11.020  17.696  0.00  0.00    +0.000 A 
BRANCH  21  30
ATOM     30  O   UNL     1       8.712   7.344  19.157  0.00  0.00    +0.000 OA
ATOM     31  H   UNL     1       9.053   6.641  18.568  0.00  0.00    +0.000 HD
ENDBRANCH  21  30
ENDBRANCH  19  20
ENDBRANCH   3  19
TORSDOF 6
ENDMDL
MODEL 3
REMARK VINA RESULT:      -9.2      4.438      7.483
REMARK  Name = 
REMARK  6 active torsions:
REMARK  status: ('A' for Active; 'I' for Inactive)
REMARK    1  A    between atoms: C_2  and  C_3
REMARK    2  A    between atoms: C_3  and  N_4
REMARK    3  A    between atoms: C_5  and  C_6
REMARK    4  A    between atoms: C_12  and  C_13
REMARK    5  A    between atoms: C_13  and  C_14
REMARK    6  A    between atoms: C_15  and  O_16
REMARK                            x       y       z     vdW  Elec       q    Type
REMARK                         _______ _______ _______ _____ _____    ______ ____
ROOT
ATOM      1  N   UNL     1       4.307   4.991  18.110  0.00  0.00    +0.000 N 
ATOM      2  C   UNL     1       3.131   5.692  18.717  0.00  0.00    +0.000 A 
ATOM      3  C   UNL     1       2.755   7.030  18.361  0.00  0.00    +0.000 A 
ATOM      4  C   UNL     1       3.671   7.644  17.464  0.00  0.00    +0.000 A 
ATOM      5  O   UNL     1       3.391   8.801  17.189  0.00  0.00    +0.000 OA
ATOM      6  N   UNL     1       4.752   6.992  16.991  0.00  0.00    +0.000 N 
ATOM      7  C   UNL     1       5.145   5.704  17.244  0.00  0.00    +0.000 A 
ATOM      8  S   UNL     1       6.558   5.163  16.501  0.00  0.00    +0.000 S 
ATOM      9  H   UNL     1       5.312   7.557  16.376  0.00  0.00    +0.000 HD
ENDROOT
BRANCH   2  10
ATOM     10  C   UNL     1       2.356   4.834  19.695  0.00  0.00    +0.000 A 
ATOM     11  C   UNL     1       2.798   4.534  21.013  0.00  0.00    +0.000 A 
ATOM     12  C   UNL     1       2.245   3.478  21.758  0.00  0.00    +0.000 A 
ATOM     13  C   UNL     1       1.111   2.846  21.289  0.00  0.00    +0.000 A 
ATOM     14  C   UNL     1       0.565   3.245  20.073  0.00  0.00    +0.000 A 
ATOM     15  C   UNL     1       1.257   4.112  19.225  0.00  0.00    +0.000 A 
ENDBRANCH   2  10
BRANCH   1  16
ATOM     16  C   UNL     1       4.728   3.556  18.397  0.00  0.00    +0.000 C 
BRANCH  16  18
ATOM     17  C   UNL     1       3.448   1.404  18.232  0.00  0.00    +0.000 C 
ATOM     18  C   UNL     1       3.897   2.540  17.705  0.00  0.00    +0.000 C 
ENDBRANCH  16  18
ENDBRANCH   1  16
BRANCH   3  19
ATOM     19  C   UNL     1       1.493   8.345  18.710  0.00  0.00    +0.000 C 
BRANCH  19  20
ATOM     20  C   UNL     1       0.460   9.646  19.917  0.00  0.00    +0.000 A 
ATOM     21  C   UNL     1       0.301   9.879  18.728  0.00  0.00    +0.000 A 
ATOM     22  C   UNL     1      -0.051  10.142  19.869  0.00  0.00    +0.000 A 
ATOM     23  C   UNL     1      -0.976  11.284  19.857  0.00  0.00    +0.000 A 
ATOM     24  C   UNL     1      -1.267  11.629  21.026  0.00  0.00    +0.000 A 
ATOM     25  C   UNL     1      -2.290  12.942  21.127  0.00  0.00    +0.000 A 
ATOM     26  C   UNL     1      -2.621  13.717  22.211  0.00  0.00    +0.000 A 
ATOM     27  C   UNL     1      -2.126  13.043  23.260  0.00  0.00    +0.000 A 
ATOM     28  C   UNL     1      -1.263  11.574  22.942  0.00  0.00    +0.000 A 
ATOM     29  C   UNL     1      -0.454  10.662  21.543  0.00  0.00    +0.000 A 
BRANCH  21  30
ATOM     30  O   UNL     1      -0.044  10.346  17.620  0.00  0.00    +0.000 OA
ATOM     31  H   UNL     1      -0.978  10.611  17.736  0.00  0.00    +0.000 HD
ENDBRANCH  21  30
ENDBRANCH  19  20
ENDBRANCH   3  19
TORSDOF 6
ENDMDL
MODEL 4
REMARK VINA RESULT:      -8.9      4.452      7.291
REMARK  Name = 
REMARK  6 active torsions:
REMARK  status: ('A' for Active; 'I' for Inactive)
REMARK    1  A    between atoms: C_2  and  C_3
REMARK    2  A    between atoms: C_3  and  N_4
REMARK    3  A    between atoms: C_5  and  C_6
REMARK    4  A    between atoms: C_12  and  C_13
REMARK    5  A    between atoms: C_13  and  C_14
REMARK    6  A    between atoms: C_15  and  O_16
REMARK                            x       y       z     vdW  Elec       q    Type
REMARK                         _______ _______ _______ _____ _____    ______ ____
ROOT
ATOM      1  N   UNL     1       4.320   5.073  18.197  0.00  0.00    +0.000 N 
ATOM      2  C   UNL     1       3.069   5.704  18.727  0.00  0.00    +0.000 A 
ATOM      3  C   UNL     1       2.628   7.010  18.326  0.00  0.00    +0.000 A 
ATOM      4  C   UNL     1       3.551   7.669  17.470  0.00  0.00    +0.000 A 
ATOM      5  O   UNL     1       3.212   8.801  17.159  0.00  0.00    +0.000 OA
ATOM      6  N   UNL     1       4.696   7.083  17.068  0.00  0.00    +0.000 N 
ATOM      7  C   UNL     1       5.157   5.827  17.365  0.00  0.00    +0.000 A 
ATOM      8  S   UNL     1       6.640   5.368  16.709  0.00  0.00    +0.000 S 
ATOM      9  H   UNL     1       5.252   7.674  16.473  0.00  0.00    +0.000 HD
ENDROOT
BRANCH   2  10
ATOM     10  C   UNL     1       2.299   4.812  19.677  0.00  0.00    +0.000 A 
ATOM     11  C   UNL     1       2.682   4.567  21.024  0.00  0.00    +0.000 A 
ATOM     12  C   UNL     1       2.159   3.488  21.759  0.00  0.00    +0.000 A 
ATOM     13  C   UNL     1       1.100   2.771  21.239  0.00  0.00    +0.000 A 
ATOM     14  C   UNL     1       0.602   3.109  19.986  0.00  0.00    +0.000 A 
ATOM     15  C   UNL     1       1.282   4.008  19.160  0.00  0.00    +0.000 A 
ENDBRANCH   2  10
BRANCH   1  16
ATOM     16  C   UNL     1       4.816   3.673  18.532  0.00  0.00    +0.000 C 
BRANCH  16  18
ATOM     17  C   UNL     1       3.607   1.484  18.328  0.00  0.00    +0.000 C 
ATOM     18  C   UNL     1       4.107   2.596  17.797  0.00  0.00    +0.000 C 
ENDBRANCH  16  18
ENDBRANCH   1  16
BRANCH   3  19
ATOM     19  C   UNL     1       1.267   8.245  18.584  0.00  0.00    +0.000 C 
BRANCH  19  20
ATOM     20  C   UNL     1       0.281   9.727  19.607  0.00  0.00    +0.000 A 
ATOM     21  C   UNL     1       0.804   8.909  20.350  0.00  0.00    +0.000 A 
ATOM     22  C   UNL     1       0.222   9.982  20.271  0.00  0.00    +0.000 A 
ATOM     23  C   UNL     1      -0.092  10.481  21.617  0.00  0.00    +0.000 A 
ATOM     24  C   UNL     1      -0.775  11.530  21.551  0.00  0.00    +0.000 A 
ATOM     25  C   UNL     1      -1.215  12.165  23.029  0.00  0.00    +0.000 A 
ATOM     26  C   UNL     1      -2.134  13.141  23.327  0.00  0.00    +0.000 A 
ATOM     27  C   UNL     1      -2.451  13.670  22.136  0.00  0.00    +0.000 A 
ATOM     28  C   UNL     1      -1.711  12.985  20.726  0.00  0.00    +0.000 A 
ATOM     29  C   UNL     1      -0.782  11.472  20.187  0.00  0.00    +0.000 A 
BRANCH  21  30
ATOM     30  O   UNL     1       1.216   8.255  21.333  0.00  0.00    +0.000 OA
ATOM     31  H   UNL     1       0.905   8.750  22.116  0.00  0.00    +0.000 HD
ENDBRANCH  21  30
ENDBRANCH  19  20
ENDBRANCH   3  19
TORSDOF 6
ENDMDL
MODEL 5
REMARK VINA RESULT:      -8.8      6.060      9.129
REMARK  Name = 
REMARK  6 active torsions:
REMARK  status: ('A' for Active; 'I' for Inactive)
REMARK    1  A    between atoms: C_2  and  C_3
REMARK    2  A    between atoms: C_3  and  N_4
REMARK    3  A    between atoms: C_5  and  C_6
REMARK    4  A    between atoms: C_12  and  C_13
REMARK    5  A    between atoms: C_13  and  C_14
REMARK    6  A    between atoms: C_15  and  O_16
REMARK                            x       y       z     vdW  Elec       q    Type
REMARK                         _______ _______ _______ _____ _____    ______ ____
ROOT
ATOM      1  N   UNL     1      -3.804  12.251  19.420  0.00  0.00    +0.000 N 
ATOM      2  C   UNL     1      -2.375  11.881  19.671  0.00  0.00    +0.000 A 
ATOM      3  C   UNL     1      -1.636  11.004  18.808  0.00  0.00    +0.000 A 
ATOM      4  C   UNL     1      -2.430  10.451  17.768  0.00  0.00    +0.000 A 
ATOM      5  O   UNL     1      -1.827   9.665  17.053  0.00  0.00    +0.000 OA
ATOM      6  N   UNL     1      -3.732  10.767  17.618  0.00  0.00    +0.000 N 
ATOM      7  C   UNL     1      -4.487  11.630  18.367  0.00  0.00    +0.000 A 
ATOM      8  S   UNL     1      -6.105  11.823  17.934  0.00  0.00    +0.000 S 
ATOM      9  H   UNL     1      -4.165  10.290  16.846  0.00  0.00    +0.000 HD
ENDROOT
BRANCH   2  10
ATOM     10  C   UNL     1      -1.780  12.562  20.886  0.00  0.00    +0.000 A 
ATOM     11  C   UNL     1      -1.774  11.996  22.190  0.00  0.00    +0.000 A 
ATOM     12  C   UNL     1      -1.536  12.776  23.336  0.00  0.00    +0.000 A 
ATOM     13  C   UNL     1      -1.098  14.076  23.185  0.00  0.00    +0.000 A 
ATOM     14  C   UNL     1      -0.937  14.593  21.904  0.00  0.00    +0.000 A 
ATOM     15  C   UNL     1      -1.412  13.904  20.785  0.00  0.00    +0.000 A 
ENDBRANCH   2  10
BRANCH   1  16
ATOM     16  C   UNL     1      -4.630  13.217  20.258  0.00  0.00    +0.000 C 
BRANCH  16  18
ATOM     17  C   UNL     1      -5.374  13.212  22.654  0.00  0.00    +0.000 C 
ATOM     18  C   UNL     1      -5.203  12.606  21.483  0.00  0.00    +0.000 C 
ENDBRANCH  16  18
ENDBRANCH   1  16
BRANCH   3  19
ATOM     19  C   UNL     1       0.036  10.233  18.580  0.00  0.00    +0.000 C 
BRANCH  19  20
ATOM     20  C   UNL     1       1.324   8.668  18.252  0.00  0.00    +0.000 A 
ATOM     21  C   UNL     1       1.769   9.735  17.855  0.00  0.00    +0.000 A 
ATOM     22  C   UNL     1       2.004   8.554  18.065  0.00  0.00    +0.000 A 
ATOM     23  C   UNL     1       3.330   8.205  17.538  0.00  0.00    +0.000 A 
ATOM     24  C   UNL     1       3.544   6.976  17.656  0.00  0.00    +0.000 A 
ATOM     25  C   UNL     1       5.015   6.468  17.057  0.00  0.00    +0.000 A 
ATOM     26  C   UNL     1       5.471   5.196  16.810  0.00  0.00    +0.000 A 
ATOM     27  C   UNL     1       4.558   4.401  17.387  0.00  0.00    +0.000 A 
ATOM     28  C   UNL     1       3.194   5.156  18.145  0.00  0.00    +0.000 A 
ATOM     29  C   UNL     1       2.310   6.786  18.206  0.00  0.00    +0.000 A 
BRANCH  21  30
ATOM     30  O   UNL     1       2.468  10.650  17.367  0.00  0.00    +0.000 OA
ATOM     31  H   UNL     1       3.351  10.252  17.237  0.00  0.00    +0.000 HD
ENDBRANCH  21  30
ENDBRANCH  19  20
ENDBRANCH   3  19
TORSDOF 6
ENDMDL
MODEL 6
REMARK VINA RESULT:      -8.7      4.375      8.062
REMARK  Name = 
REMARK  6 active torsions:
REMARK  status: ('A' for Active; 'I' for Inactive)
REMARK    1  A    between atoms: C_2  and  C_3
REMARK    2  A    between atoms: C_3  and  N_4
REMARK    3  A    between atoms: C_5  and  C_6
REMARK    4  A    between atoms: C_12  and  C_13
REMARK    5  A    between atoms: C_13  and  C_14
REMARK    6  A    between atoms: C_15  and  O_16
REMARK                            x       y       z     vdW  Elec       q    Type
REMARK                         _______ _______ _______ _____ _____    ______ ____
ROOT
ATOM      1  N   UNL     1       4.390   5.070  18.135  0.00  0.00    +0.000 N 
ATOM      2  C   UNL     1       3.178   5.760  18.681  0.00  0.00    +0.000 A 
ATOM      3  C   UNL     1       2.808   7.095  18.304  0.00  0.00    +0.000 A 
ATOM      4  C   UNL     1       3.762   7.717  17.454  0.00  0.00    +0.000 A 
ATOM      5  O   UNL     1       3.485   8.870  17.163  0.00  0.00    +0.000 OA
ATOM      6  N   UNL     1       4.872   7.075  17.037  0.00  0.00    +0.000 N 
ATOM      7  C   UNL     1       5.264   5.791  17.311  0.00  0.00    +0.000 A 
ATOM      8  S   UNL     1       6.717   5.262  16.640  0.00  0.00    +0.000 S 
ATOM      9  H   UNL     1       5.457   7.644  16.450  0.00  0.00    +0.000 HD
ENDROOT
BRANCH   2  10
ATOM     10  C   UNL     1       2.363   4.896  19.620  0.00  0.00    +0.000 A 
ATOM     11  C   UNL     1       2.732   4.616  20.964  0.00  0.00    +0.000 A 
ATOM     12  C   UNL     1       2.156   3.556  21.686  0.00  0.00    +0.000 A 
ATOM     13  C   UNL     1       1.064   2.898  21.157  0.00  0.00    +0.000 A 
ATOM     14  C   UNL     1       0.584   3.276  19.907  0.00  0.00    +0.000 A 
ATOM     15  C   UNL     1       1.308   4.149  19.092  0.00  0.00    +0.000 A 
ENDBRANCH   2  10
BRANCH   1  16
ATOM     16  C   UNL     1       4.810   3.640  18.444  0.00  0.00    +0.000 C 
BRANCH  16  18
ATOM     17  C   UNL     1       3.528   1.492  18.240  0.00  0.00    +0.000 C 
ATOM     18  C   UNL     1       4.017   2.615  17.720  0.00  0.00    +0.000 C 
ENDBRANCH  16  18
ENDBRANCH   1  16
BRANCH   3  19
ATOM     19  C   UNL     1       1.518   8.398  18.588  0.00  0.00    +0.000 C 
BRANCH  19  20
ATOM     20  C   UNL     1      -0.275   9.335  18.240  0.00  0.00    +0.000 A 
ATOM     21  C   UNL     1       0.228   9.661  19.306  0.00  0.00    +0.000 A 
ATOM     22  C   UNL     1      -0.665   9.875  18.499  0.00  0.00    +0.000 A 
ATOM     23  C   UNL     1      -1.612  10.855  19.047  0.00  0.00    +0.000 A 
ATOM     24  C   UNL     1      -2.586  11.010  18.273  0.00  0.00    +0.000 A 
ATOM     25  C   UNL     1      -3.741  12.082  18.819  0.00  0.00    +0.000 A 
ATOM     26  C   UNL     1      -5.014  12.311  18.358  0.00  0.00    +0.000 A 
ATOM     27  C   UNL     1      -5.068  11.647  17.194  0.00  0.00    +0.000 A 
ATOM     28  C   UNL     1      -3.664  10.753  16.709  0.00  0.00    +0.000 A 
ATOM     29  C   UNL     1      -2.080  10.085  17.407  0.00  0.00    +0.000 A 
BRANCH  21  30
ATOM     30  O   UNL     1       0.486  10.172  20.417  0.00  0.00    +0.000 OA
ATOM     31  H   UNL     1       0.656   9.415  21.012  0.00  0.00    +0.000 HD
ENDBRANCH  21  30
ENDBRANCH  19  20
ENDBRANCH   3  19
TORSDOF 6
ENDMDL
MODEL 7
REMARK VINA RESULT:      -8.7      4.239      6.391
REMARK  Name = 
REMARK  6 active torsions:
REMARK  status: ('A' for Active; 'I' for Inactive)
REMARK    1  A    between atoms: C_2  and  C_3
REMARK    2  A    between atoms: C_3  and  N_4
REMARK    3  A    between atoms: C_5  and  C_6
REMARK    4  A    between atoms: C_12  and  C_13
REMARK    5  A    between atoms: C_13  and  C_14
REMARK    6  A    between atoms: C_15  and  O_16
REMARK                            x       y       z     vdW  Elec       q    Type
REMARK                         _______ _______ _______ _____ _____    ______ ____
ROOT
ATOM      1  N   UNL     1       3.590   4.478  19.522  0.00  0.00    +0.000 N 
ATOM      2  C   UNL     1       3.625   5.688  18.640  0.00  0.00    +0.000 A 
ATOM      3  C   UNL     1       2.839   6.861  18.899  0.00  0.00    +0.000 A 
ATOM      4  C   UNL     1       1.958   6.707  20.004  0.00  0.00    +0.000 A 
ATOM      5  O   UNL     1       1.248   7.679  20.207  0.00  0.00    +0.000 OA
ATOM      6  N   UNL     1       1.918   5.572  20.732  0.00  0.00    +0.000 N 
ATOM      7  C   UNL     1       2.670   4.438  20.578  0.00  0.00    +0.000 A 
ATOM      8  S   UNL     1       2.391   3.169  21.652  0.00  0.00    +0.000 S 
ATOM      9  H   UNL     1       1.240   5.606  21.473  0.00  0.00    +0.000 HD
ENDROOT
BRANCH   2  10
ATOM     10  C   UNL     1       4.604   5.570  17.492  0.00  0.00    +0.000 A 
ATOM     11  C   UNL     1       4.364   4.802  16.320  0.00  0.00    +0.000 A 
ATOM     12  C   UNL     1       5.405   4.435  15.448  0.00  0.00    +0.000 A 
ATOM     13  C   UNL     1       6.653   4.999  15.616  0.00  0.00    +0.000 A 
ATOM     14  C   UNL     1       6.860   5.888  16.665  0.00  0.00    +0.000 A 
ATOM     15  C   UNL     1       5.902   6.052  17.669  0.00  0.00    +0.000 A 
ENDBRANCH   2  10
BRANCH   1  16
ATOM     16  C   UNL     1       4.436   3.225  19.342  0.00  0.00    +0.000 C 
BRANCH  16  18
ATOM     17  C   UNL     1       2.586   2.247  17.957  0.00  0.00    +0.000 C 
ATOM     18  C   UNL     1       3.749   2.142  18.595  0.00  0.00    +0.000 C 
ENDBRANCH  16  18
ENDBRANCH   1  16
BRANCH   3  19
ATOM     19  C   UNL     1       2.478   8.561  18.249  0.00  0.00    +0.000 C 
BRANCH  19  20
ATOM     20  C   UNL     1       2.130  10.577  18.429  0.00  0.00    +0.000 A 
ATOM     21  C   UNL     1       1.103   9.933  18.268  0.00  0.00    +0.000 A 
ATOM     22  C   UNL     1       1.585  11.027  18.526  0.00  0.00    +0.000 A 
ATOM     23  C   UNL     1       0.526  12.045  18.566  0.00  0.00    +0.000 A 
ATOM     24  C   UNL     1       1.015  13.186  18.732  0.00  0.00    +0.000 A 
ATOM     25  C   UNL     1      -0.103  14.423  18.759  0.00  0.00    +0.000 A 
ATOM     26  C   UNL     1       0.086  15.781  18.686  0.00  0.00    +0.000 A 
ATOM     27  C   UNL     1       1.411  15.937  18.830  0.00  0.00    +0.000 A 
ATOM     28  C   UNL     1       2.378  14.508  18.996  0.00  0.00    +0.000 A 
ATOM     29  C   UNL     1       2.280  12.673  18.737  0.00  0.00    +0.000 A 
BRANCH  21  30
ATOM     30  O   UNL     1      -0.081   9.558  18.121  0.00  0.00    +0.000 OA
ATOM     31  H   UNL     1      -0.266   9.669  17.168  0.00  0.00    +0.000 HD
ENDBRANCH  21  30
ENDBRANCH  19  20
ENDBRANCH   3  19
TORSDOF 6
ENDMDL
MODEL 8
REMARK VINA RESULT:      -8.6      6.109      9.528
REMARK  Name = 
REMARK  6 active torsions:
REMARK  status: ('A' for Active; 'I' for Inactive)
REMARK    1  A    between atoms: C_2  and  C_3
REMARK    2  A    between atoms: C_3  and  N_4
REMARK    3  A    between atoms: C_5  and  C_6
REMARK    4  A    between atoms: C_12  and  C_13
REMARK    5  A    between atoms: C_13  and  C_14
REMARK    6  A    between atoms: C_15  and  O_16
REMARK                            x       y       z     vdW  Elec       q    Type
REMARK                         _______ _______ _______ _____ _____    ______ ____
ROOT
ATOM      1  N   UNL     1      -0.460  13.017  21.755  0.00  0.00    +0.000 N 
ATOM      2  C   UNL     1       0.530  11.975  21.335  0.00  0.00    +0.000 A 
ATOM      3  C   UNL     1       0.449  10.608  21.766  0.00  0.00    +0.000 A 
ATOM      4  C   UNL     1      -0.595  10.382  22.704  0.00  0.00    +0.000 A 
ATOM      5  O   UNL     1      -0.646   9.233  23.116  0.00  0.00    +0.000 OA
ATOM      6  N   UNL     1      -1.425  11.368  23.099  0.00  0.00    +0.000 N 
ATOM      7  C   UNL     1      -1.441  12.677  22.695  0.00  0.00    +0.000 A 
ATOM      8  S   UNL     1      -2.610  13.684  23.373  0.00  0.00    +0.000 S 
ATOM      9  H   UNL     1      -2.105  11.061  23.772  0.00  0.00    +0.000 HD
ENDROOT
BRANCH   2  10
ATOM     10  C   UNL     1       1.584  12.493  20.379  0.00  0.00    +0.000 A 
ATOM     11  C   UNL     1       2.537  13.493  20.714  0.00  0.00    +0.000 A 
ATOM     12  C   UNL     1       3.259  14.189  19.728  0.00  0.00    +0.000 A 
ATOM     13  C   UNL     1       3.196  13.757  18.418  0.00  0.00    +0.000 A 
ATOM     14  C   UNL     1       2.392  12.667  18.101  0.00  0.00    +0.000 A 
ATOM     15  C   UNL     1       1.490  12.144  19.031  0.00  0.00    +0.000 A 
ENDBRANCH   2  10
BRANCH   1  16
ATOM     16  C   UNL     1      -0.469  14.468  21.293  0.00  0.00    +0.000 C 
BRANCH  16  18
ATOM     17  C   UNL     1      -0.397  15.324  18.935  0.00  0.00    +0.000 C 
ATOM     18  C   UNL     1      -0.993  14.653  19.917  0.00  0.00    +0.000 C 
ENDBRANCH  16  18
ENDBRANCH   1  16
BRANCH   3  19
ATOM     19  C   UNL     1       1.288   8.962  21.597  0.00  0.00    +0.000 C 
BRANCH  19  20
ATOM     20  C   UNL     1       1.541   7.085  20.804  0.00  0.00    +0.000 A 
ATOM     21  C   UNL     1       1.770   7.973  19.995  0.00  0.00    +0.000 A 
ATOM     22  C   UNL     1       1.818   6.772  20.225  0.00  0.00    +0.000 A 
ATOM     23  C   UNL     1       2.214   6.046  19.011  0.00  0.00    +0.000 A 
ATOM     24  C   UNL     1       2.172   4.808  19.203  0.00  0.00    +0.000 A 
ATOM     25  C   UNL     1       2.573   3.886  17.872  0.00  0.00    +0.000 A 
ATOM     26  C   UNL     1       2.410   2.540  17.655  0.00  0.00    +0.000 A 
ATOM     27  C   UNL     1       2.069   2.051  18.856  0.00  0.00    +0.000 A 
ATOM     28  C   UNL     1       1.906   3.173  20.168  0.00  0.00    +0.000 A 
ATOM     29  C   UNL     1       1.734   4.994  20.482  0.00  0.00    +0.000 A 
BRANCH  21  30
ATOM     30  O   UNL     1       2.063   8.639  18.979  0.00  0.00    +0.000 OA
ATOM     31  H   UNL     1       1.298   9.229  18.833  0.00  0.00    +0.000 HD
ENDBRANCH  21  30
ENDBRANCH  19  20
ENDBRANCH   3  19
TORSDOF 6
ENDMDL
MODEL 9
REMARK VINA RESULT:      -8.6      4.761      7.777
REMARK  Name = 
REMARK  6 active torsions:
REMARK  status: ('A' for Active; 'I' for Inactive)
REMARK    1  A    between atoms: C_2  and  C_3
REMARK    2  A    between atoms: C_3  and  N_4
REMARK    3  A    between atoms: C_5  and  C_6
REMARK    4  A    between atoms: C_12  and  C_13
REMARK    5  A    between atoms: C_13  and  C_14
REMARK    6  A    between atoms: C_15  and  O_16
REMARK                            x       y       z     vdW  Elec       q    Type
REMARK                         _______ _______ _______ _____ _____    ______ ____
ROOT
ATOM      1  N   UNL     1       3.646   5.508  18.059  0.00  0.00    +0.000 N 
ATOM      2  C   UNL     1       2.706   5.917  19.152  0.00  0.00    +0.000 A 
ATOM      3  C   UNL     1       2.191   7.251  19.274  0.00  0.00    +0.000 A 
ATOM      4  C   UNL     1       2.746   8.150  18.324  0.00  0.00    +0.000 A 
ATOM      5  O   UNL     1       2.353   9.300  18.446  0.00  0.00    +0.000 OA
ATOM      6  N   UNL     1       3.638   7.748  17.396  0.00  0.00    +0.000 N 
ATOM      7  C   UNL     1       4.135   6.488  17.187  0.00  0.00    +0.000 A 
ATOM      8  S   UNL     1       5.249   6.291  15.937  0.00  0.00    +0.000 S 
ATOM      9  H   UNL     1       3.950   8.496  16.801  0.00  0.00    +0.000 HD
ENDROOT
BRANCH   2  10
ATOM     10  C   UNL     1       2.319   4.779  20.072  0.00  0.00    +0.000 A 
ATOM     11  C   UNL     1       3.240   4.069  20.889  0.00  0.00    +0.000 A 
ATOM     12  C   UNL     1       2.921   2.822  21.455  0.00  0.00    +0.000 A 
ATOM     13  C   UNL     1       1.620   2.367  21.390  0.00  0.00    +0.000 A 
ATOM     14  C   UNL     1       0.664   3.136  20.734  0.00  0.00    +0.000 A 
ATOM     15  C   UNL     1       1.036   4.241  19.963  0.00  0.00    +0.000 A 
ENDBRANCH   2  10
BRANCH   1  16
ATOM     16  C   UNL     1       4.186   4.102  17.835  0.00  0.00    +0.000 C 
BRANCH  16  18
ATOM     17  C   UNL     1       2.744   2.056  17.655  0.00  0.00    +0.000 C 
ATOM     18  C   UNL     1       3.224   3.194  17.161  0.00  0.00    +0.000 C 
ENDBRANCH  16  18
ENDBRANCH   1  16
BRANCH   3  19
ATOM     19  C   UNL     1       1.066   8.303  20.309  0.00  0.00    +0.000 C 
BRANCH  19  20
ATOM     20  C   UNL     1      -0.068   9.968  20.704  0.00  0.00    +0.000 A 
ATOM     21  C   UNL     1       0.618   9.628  21.657  0.00  0.00    +0.000 A 
ATOM     22  C   UNL     1      -0.123  10.484  21.195  0.00  0.00    +0.000 A 
ATOM     23  C   UNL     1      -0.425  11.493  22.220  0.00  0.00    +0.000 A 
ATOM     24  C   UNL     1      -1.262  12.321  21.792  0.00  0.00    +0.000 A 
ATOM     25  C   UNL     1      -1.700  13.495  22.892  0.00  0.00    +0.000 A 
ATOM     26  C   UNL     1      -2.736  14.396  22.851  0.00  0.00    +0.000 A 
ATOM     27  C   UNL     1      -3.204  14.301  21.597  0.00  0.00    +0.000 A 
ATOM     28  C   UNL     1      -2.458  13.146  20.542  0.00  0.00    +0.000 A 
ATOM     29  C   UNL     1      -1.345  11.662  20.600  0.00  0.00    +0.000 A 
BRANCH  21  30
ATOM     30  O   UNL     1       1.186   9.529  22.767  0.00  0.00    +0.000 OA
ATOM     31  H   UNL     1       0.643  10.065  23.378  0.00  0.00    +0.000 HD
ENDBRANCH  21  30
ENDBRANCH  19  20
ENDBRANCH   3  19
TORSDOF 6
ENDMDL
