MODEL 1
REMARK VINA RESULT:      -8.7      0.000      0.000
REMARK  Name = 
REMARK  4 active torsions:
REMARK  status: ('A' for Active; 'I' for Inactive)
REMARK    1  A    between atoms: C_1  and  C_2
REMARK    2  A    between atoms: C_2  and  C_3
REMARK    3  A    between atoms: C_5  and  C_6
REMARK    4  A    between atoms: C_6  and  C_8
REMARK                            x       y       z     vdW  Elec       q    Type
REMARK                         _______ _______ _______ _____ _____    ______ ____
ROOT
ATOM      1  C   UNL     1       6.864   6.126  17.283  0.00  0.00    +0.000 C 
ATOM      2  N   UNL     1       5.575   6.433  17.942  0.00  0.00    +0.000 NA
ATOM      3  C   UNL     1       4.564   5.339  17.783  0.00  0.00    +0.000 C 
ATOM      4  C   UNL     1       4.188   5.071  16.304  0.00  0.00    +0.000 C 
ATOM      5  C   UNL     1       5.425   4.974  15.487  0.00  0.00    +0.000 A 
ATOM      6  C   UNL     1       6.621   5.482  15.952  0.00  0.00    +0.000 A 
ATOM      7  N   UNL     1       7.566   5.276  14.982  0.00  0.00    +0.000 N 
ATOM      8  C   UNL     1       7.007   4.597  13.918  0.00  0.00    +0.000 A 
ATOM      9  C   UNL     1       7.593   4.144  12.731  0.00  0.00    +0.000 A 
ATOM     10  C   UNL     1       6.773   3.475  11.817  0.00  0.00    +0.000 A 
ATOM     11  C   UNL     1       5.421   3.269  12.080  0.00  0.00    +0.000 A 
ATOM     12  C   UNL     1       4.849   3.731  13.270  0.00  0.00    +0.000 A 
ATOM     13  C   UNL     1       5.655   4.403  14.210  0.00  0.00    +0.000 A 
ATOM     14  H   UNL     1       5.173   7.268  17.509  0.00  0.00    +0.000 HD
ATOM     15  H   UNL     1       8.537   5.551  15.038  0.00  0.00    +0.000 HD
ENDROOT
BRANCH   1  17
ATOM     16  C   UNL     1       7.822   5.731  19.621  0.00  0.00    +0.000 C 
ATOM     17  C   UNL     1       7.752   5.240  18.180  0.00  0.00    +0.000 C 
ENDBRANCH   1  17
BRANCH   3  18
ATOM     18  C   UNL     1       3.272   5.714  18.522  0.00  0.00    +0.000 C 
ATOM     19  O   UNL     1       2.749   6.825  18.420  0.00  0.00    +0.000 OA
BRANCH  18  20
ATOM     20  C   UNL     1       2.549   4.641  19.270  0.00  0.00    +0.000 A 
ATOM     21  C   UNL     1       1.674   3.745  18.641  0.00  0.00    +0.000 A 
ATOM     22  C   UNL     1       0.971   2.802  19.395  0.00  0.00    +0.000 A 
ATOM     23  C   UNL     1       1.144   2.738  20.776  0.00  0.00    +0.000 A 
ATOM     24  C   UNL     1       2.032   3.607  21.407  0.00  0.00    +0.000 A 
ATOM     25  C   UNL     1       2.737   4.553  20.657  0.00  0.00    +0.000 A 
ENDBRANCH  18  20
ENDBRANCH   3  18
TORSDOF 3
ENDMDL
MODEL 2
REMARK VINA RESULT:      -8.6      0.130      1.012
REMARK  Name = 
REMARK  4 active torsions:
REMARK  status: ('A' for Active; 'I' for Inactive)
REMARK    1  A    between atoms: C_1  and  C_2
REMARK    2  A    between atoms: C_2  and  C_3
REMARK    3  A    between atoms: C_5  and  C_6
REMARK    4  A    between atoms: C_6  and  C_8
REMARK                            x       y       z     vdW  Elec       q    Type
REMARK                         _______ _______ _______ _____ _____    ______ ____
ROOT
ATOM      1  C   UNL     1       6.907   6.138  17.293  0.00  0.00    +0.000 C 
ATOM      2  N   UNL     1       5.627   6.481  17.952  0.00  0.00    +0.000 NA
ATOM      3  C   UNL     1       4.588   5.412  17.799  0.00  0.00    +0.000 C 
ATOM      4  C   UNL     1       4.204   5.146  16.323  0.00  0.00    +0.000 C 
ATOM      5  C   UNL     1       5.437   5.013  15.505  0.00  0.00    +0.000 A 
ATOM      6  C   UNL     1       6.646   5.494  15.966  0.00  0.00    +0.000 A 
ATOM      7  N   UNL     1       7.584   5.258  14.996  0.00  0.00    +0.000 N 
ATOM      8  C   UNL     1       7.007   4.588  13.937  0.00  0.00    +0.000 A 
ATOM      9  C   UNL     1       7.580   4.114  12.751  0.00  0.00    +0.000 A 
ATOM     10  C   UNL     1       6.742   3.461  11.842  0.00  0.00    +0.000 A 
ATOM     11  C   UNL     1       5.385   3.292  12.107  0.00  0.00    +0.000 A 
ATOM     12  C   UNL     1       4.827   3.774  13.295  0.00  0.00    +0.000 A 
ATOM     13  C   UNL     1       5.650   4.430  14.231  0.00  0.00    +0.000 A 
ATOM     14  H   UNL     1       5.246   7.324  17.514  0.00  0.00    +0.000 HD
ATOM     15  H   UNL     1       8.562   5.509  15.049  0.00  0.00    +0.000 HD
ENDROOT
BRANCH   1  17
ATOM     16  C   UNL     1       7.824   5.708  19.642  0.00  0.00    +0.000 C 
ATOM     17  C   UNL     1       7.773   5.234  18.194  0.00  0.00    +0.000 C 
ENDBRANCH   1  17
BRANCH   3  18
ATOM     18  C   UNL     1       3.307   5.824  18.538  0.00  0.00    +0.000 C 
ATOM     19  O   UNL     1       2.833   6.958  18.460  0.00  0.00    +0.000 OA
BRANCH  18  20
ATOM     20  C   UNL     1       2.532   4.765  19.254  0.00  0.00    +0.000 A 
ATOM     21  C   UNL     1       2.571   4.617  20.647  0.00  0.00    +0.000 A 
ATOM     22  C   UNL     1       1.881   3.571  21.263  0.00  0.00    +0.000 A 
ATOM     23  C   UNL     1       1.140   2.673  20.497  0.00  0.00    +0.000 A 
ATOM     24  C   UNL     1       1.075   2.827  19.114  0.00  0.00    +0.000 A 
ATOM     25  C   UNL     1       1.764   3.873  18.493  0.00  0.00    +0.000 A 
ENDBRANCH  18  20
ENDBRANCH   3  18
TORSDOF 3
ENDMDL
MODEL 3
REMARK VINA RESULT:      -8.6      2.154      6.378
REMARK  Name = 
REMARK  4 active torsions:
REMARK  status: ('A' for Active; 'I' for Inactive)
REMARK    1  A    between atoms: C_1  and  C_2
REMARK    2  A    between atoms: C_2  and  C_3
REMARK    3  A    between atoms: C_5  and  C_6
REMARK    4  A    between atoms: C_6  and  C_8
REMARK                            x       y       z     vdW  Elec       q    Type
REMARK                         _______ _______ _______ _____ _____    ______ ____
ROOT
ATOM      1  C   UNL     1       7.070   5.754  17.250  0.00  0.00    +0.000 C 
ATOM      2  N   UNL     1       7.532   5.447  15.878  0.00  0.00    +0.000 NA
ATOM      3  C   UNL     1       6.404   5.194  14.926  0.00  0.00    +0.000 C 
ATOM      4  C   UNL     1       5.536   3.975  15.324  0.00  0.00    +0.000 C 
ATOM      5  C   UNL     1       5.197   4.057  16.768  0.00  0.00    +0.000 A 
ATOM      6  C   UNL     1       5.928   4.859  17.621  0.00  0.00    +0.000 A 
ATOM      7  N   UNL     1       5.409   4.710  18.879  0.00  0.00    +0.000 N 
ATOM      8  C   UNL     1       4.322   3.860  18.841  0.00  0.00    +0.000 A 
ATOM      9  C   UNL     1       3.466   3.446  19.869  0.00  0.00    +0.000 A 
ATOM     10  C   UNL     1       2.431   2.566  19.536  0.00  0.00    +0.000 A 
ATOM     11  C   UNL     1       2.262   2.116  18.229  0.00  0.00    +0.000 A 
ATOM     12  C   UNL     1       3.128   2.537  17.213  0.00  0.00    +0.000 A 
ATOM     13  C   UNL     1       4.174   3.428  17.521  0.00  0.00    +0.000 A 
ATOM     14  H   UNL     1       8.092   4.590  15.903  0.00  0.00    +0.000 HD
ATOM     15  H   UNL     1       5.746   5.169  19.714  0.00  0.00    +0.000 HD
ENDROOT
BRANCH   1  17
ATOM     16  C   UNL     1       7.882   8.147  17.649  0.00  0.00    +0.000 C 
ATOM     17  C   UNL     1       6.684   7.241  17.388  0.00  0.00    +0.000 C 
ENDBRANCH   1  17
BRANCH   3  18
ATOM     18  C   UNL     1       6.961   4.920  13.522  0.00  0.00    +0.000 C 
ATOM     19  O   UNL     1       8.003   5.433  13.110  0.00  0.00    +0.000 OA
BRANCH  18  20
ATOM     20  C   UNL     1       6.290   3.877  12.686  0.00  0.00    +0.000 A 
ATOM     21  C   UNL     1       6.980   2.775  12.165  0.00  0.00    +0.000 A 
ATOM     22  C   UNL     1       6.323   1.863  11.335  0.00  0.00    +0.000 A 
ATOM     23  C   UNL     1       4.975   2.037  11.030  0.00  0.00    +0.000 A 
ATOM     24  C   UNL     1       4.275   3.117  11.565  0.00  0.00    +0.000 A 
ATOM     25  C   UNL     1       4.927   4.032  12.395  0.00  0.00    +0.000 A 
ENDBRANCH  18  20
ENDBRANCH   3  18
TORSDOF 3
ENDMDL
MODEL 4
REMARK VINA RESULT:      -8.5      2.132      6.332
REMARK  Name = 
REMARK  4 active torsions:
REMARK  status: ('A' for Active; 'I' for Inactive)
REMARK    1  A    between atoms: C_1  and  C_2
REMARK    2  A    between atoms: C_2  and  C_3
REMARK    3  A    between atoms: C_5  and  C_6
REMARK    4  A    between atoms: C_6  and  C_8
REMARK                            x       y       z     vdW  Elec       q    Type
REMARK                         _______ _______ _______ _____ _____    ______ ____
ROOT
ATOM      1  C   UNL     1       7.481   4.800  17.589  0.00  0.00    +0.000 C 
ATOM      2  N   UNL     1       7.828   4.713  16.154  0.00  0.00    +0.000 NA
ATOM      3  C   UNL     1       6.681   5.054  15.254  0.00  0.00    +0.000 C 
ATOM      4  C   UNL     1       5.475   4.096  15.418  0.00  0.00    +0.000 C 
ATOM      5  C   UNL     1       5.174   3.921  16.863  0.00  0.00    +0.000 A 
ATOM      6  C   UNL     1       6.115   4.230  17.823  0.00  0.00    +0.000 A 
ATOM      7  N   UNL     1       5.571   3.942  19.047  0.00  0.00    +0.000 N 
ATOM      8  C   UNL     1       4.274   3.497  18.891  0.00  0.00    +0.000 A 
ATOM      9  C   UNL     1       3.328   3.123  19.853  0.00  0.00    +0.000 A 
ATOM     10  C   UNL     1       2.072   2.707  19.400  0.00  0.00    +0.000 A 
ATOM     11  C   UNL     1       1.776   2.664  18.039  0.00  0.00    +0.000 A 
ATOM     12  C   UNL     1       2.733   3.037  17.090  0.00  0.00    +0.000 A 
ATOM     13  C   UNL     1       4.004   3.467  17.521  0.00  0.00    +0.000 A 
ATOM     14  H   UNL     1       8.094   3.749  15.937  0.00  0.00    +0.000 HD
ATOM     15  H   UNL     1       6.031   4.059  19.939  0.00  0.00    +0.000 HD
ENDROOT
BRANCH   1  17
ATOM     16  C   UNL     1       6.523   7.170  17.487  0.00  0.00    +0.000 C 
ATOM     17  C   UNL     1       7.576   6.253  18.099  0.00  0.00    +0.000 C 
ENDBRANCH   1  17
BRANCH   3  18
ATOM     18  C   UNL     1       7.129   4.977  13.788  0.00  0.00    +0.000 C 
ATOM     19  O   UNL     1       8.130   5.561  13.369  0.00  0.00    +0.000 OA
BRANCH  18  20
ATOM     20  C   UNL     1       6.408   4.037  12.876  0.00  0.00    +0.000 A 
ATOM     21  C   UNL     1       5.025   4.109  12.666  0.00  0.00    +0.000 A 
ATOM     22  C   UNL     1       4.387   3.166  11.855  0.00  0.00    +0.000 A 
ATOM     23  C   UNL     1       5.125   2.156  11.241  0.00  0.00    +0.000 A 
ATOM     24  C   UNL     1       6.505   2.093  11.424  0.00  0.00    +0.000 A 
ATOM     25  C   UNL     1       7.147   3.033  12.235  0.00  0.00    +0.000 A 
ENDBRANCH  18  20
ENDBRANCH   3  18
TORSDOF 3
ENDMDL
MODEL 5
REMARK VINA RESULT:      -8.5      1.217      1.487
REMARK  Name = 
REMARK  4 active torsions:
REMARK  status: ('A' for Active; 'I' for Inactive)
REMARK    1  A    between atoms: C_1  and  C_2
REMARK    2  A    between atoms: C_2  and  C_3
REMARK    3  A    between atoms: C_5  and  C_6
REMARK    4  A    between atoms: C_6  and  C_8
REMARK                            x       y       z     vdW  Elec       q    Type
REMARK                         _______ _______ _______ _____ _____    ______ ____
ROOT
ATOM      1  C   UNL     1       5.876   5.869  17.479  0.00  0.00    +0.000 C 
ATOM      2  N   UNL     1       4.494   5.571  17.914  0.00  0.00    +0.000 NA
ATOM      3  C   UNL     1       4.025   4.216  17.480  0.00  0.00    +0.000 C 
ATOM      4  C   UNL     1       3.990   4.051  15.941  0.00  0.00    +0.000 C 
ATOM      5  C   UNL     1       5.265   4.546  15.359  0.00  0.00    +0.000 A 
ATOM      6  C   UNL     1       6.089   5.388  16.077  0.00  0.00    +0.000 A 
ATOM      7  N   UNL     1       7.162   5.696  15.283  0.00  0.00    +0.000 N 
ATOM      8  C   UNL     1       7.064   5.025  14.080  0.00  0.00    +0.000 A 
ATOM      9  C   UNL     1       7.938   5.006  12.986  0.00  0.00    +0.000 A 
ATOM     10  C   UNL     1       7.578   4.223  11.884  0.00  0.00    +0.000 A 
ATOM     11  C   UNL     1       6.393   3.492  11.876  0.00  0.00    +0.000 A 
ATOM     12  C   UNL     1       5.530   3.524  12.976  0.00  0.00    +0.000 A 
ATOM     13  C   UNL     1       5.871   4.299  14.102  0.00  0.00    +0.000 A 
ATOM     14  H   UNL     1       3.860   6.251  17.488  0.00  0.00    +0.000 HD
ATOM     15  H   UNL     1       7.929   6.301  15.538  0.00  0.00    +0.000 HD
ENDROOT
BRANCH   1  17
ATOM     16  C   UNL     1       7.915   6.274  18.970  0.00  0.00    +0.000 C 
ATOM     17  C   UNL     1       6.910   5.255  18.445  0.00  0.00    +0.000 C 
ENDBRANCH   1  17
BRANCH   3  18
ATOM     18  C   UNL     1       2.603   3.967  17.999  0.00  0.00    +0.000 C 
ATOM     19  O   UNL     1       1.608   4.057  17.277  0.00  0.00    +0.000 OA
BRANCH  18  20
ATOM     20  C   UNL     1       2.438   3.452  19.393  0.00  0.00    +0.000 A 
ATOM     21  C   UNL     1       3.477   2.818  20.087  0.00  0.00    +0.000 A 
ATOM     22  C   UNL     1       3.254   2.295  21.363  0.00  0.00    +0.000 A 
ATOM     23  C   UNL     1       1.999   2.412  21.959  0.00  0.00    +0.000 A 
ATOM     24  C   UNL     1       0.968   3.064  21.287  0.00  0.00    +0.000 A 
ATOM     25  C   UNL     1       1.186   3.588  20.009  0.00  0.00    +0.000 A 
ENDBRANCH  18  20
ENDBRANCH   3  18
TORSDOF 3
ENDMDL
MODEL 6
REMARK VINA RESULT:      -8.4      1.479      2.195
REMARK  Name = 
REMARK  4 active torsions:
REMARK  status: ('A' for Active; 'I' for Inactive)
REMARK    1  A    between atoms: C_1  and  C_2
REMARK    2  A    between atoms: C_2  and  C_3
REMARK    3  A    between atoms: C_5  and  C_6
REMARK    4  A    between atoms: C_6  and  C_8
REMARK                            x       y       z     vdW  Elec       q    Type
REMARK                         _______ _______ _______ _____ _____    ______ ____
ROOT
ATOM      1  C   UNL     1       6.652   5.927  17.510  0.00  0.00    +0.000 C 
ATOM      2  N   UNL     1       5.348   5.877  18.207  0.00  0.00    +0.000 NA
ATOM      3  C   UNL     1       4.595   4.610  17.944  0.00  0.00    +0.000 C 
ATOM      4  C   UNL     1       4.241   4.413  16.449  0.00  0.00    +0.000 C 
ATOM      5  C   UNL     1       5.445   4.670  15.617  0.00  0.00    +0.000 A 
ATOM      6  C   UNL     1       6.515   5.380  16.122  0.00  0.00    +0.000 A 
ATOM      7  N   UNL     1       7.453   5.482  15.129  0.00  0.00    +0.000 N 
ATOM      8  C   UNL     1       7.023   4.805  14.006  0.00  0.00    +0.000 A 
ATOM      9  C   UNL     1       7.658   4.610  12.773  0.00  0.00    +0.000 A 
ATOM     10  C   UNL     1       6.975   3.871  11.802  0.00  0.00    +0.000 A 
ATOM     11  C   UNL     1       5.708   3.350  12.053  0.00  0.00    +0.000 A 
ATOM     12  C   UNL     1       5.086   3.556  13.289  0.00  0.00    +0.000 A 
ATOM     13  C   UNL     1       5.755   4.292  14.287  0.00  0.00    +0.000 A 
ATOM     14  H   UNL     1       4.762   6.643  17.865  0.00  0.00    +0.000 HD
ATOM     15  H   UNL     1       8.342   5.956  15.205  0.00  0.00    +0.000 HD
ENDROOT
BRANCH   1  17
ATOM     16  C   UNL     1       7.891   5.678  19.735  0.00  0.00    +0.000 C 
ATOM     17  C   UNL     1       7.739   5.173  18.304  0.00  0.00    +0.000 C 
ENDBRANCH   1  17
BRANCH   3  18
ATOM     18  C   UNL     1       3.275   4.618  18.728  0.00  0.00    +0.000 C 
ATOM     19  O   UNL     1       2.781   3.595  19.206  0.00  0.00    +0.000 OA
BRANCH  18  20
ATOM     20  C   UNL     1       2.651   5.938  19.049  0.00  0.00    +0.000 A 
ATOM     21  C   UNL     1       2.591   6.986  18.121  0.00  0.00    +0.000 A 
ATOM     22  C   UNL     1       2.056   8.223  18.490  0.00  0.00    +0.000 A 
ATOM     23  C   UNL     1       1.568   8.419  19.780  0.00  0.00    +0.000 A 
ATOM     24  C   UNL     1       1.600   7.374  20.702  0.00  0.00    +0.000 A 
ATOM     25  C   UNL     1       2.135   6.135  20.338  0.00  0.00    +0.000 A 
ENDBRANCH  18  20
ENDBRANCH   3  18
TORSDOF 3
ENDMDL
MODEL 7
REMARK VINA RESULT:      -8.3      1.544      2.470
REMARK  Name = 
REMARK  4 active torsions:
REMARK  status: ('A' for Active; 'I' for Inactive)
REMARK    1  A    between atoms: C_1  and  C_2
REMARK    2  A    between atoms: C_2  and  C_3
REMARK    3  A    between atoms: C_5  and  C_6
REMARK    4  A    between atoms: C_6  and  C_8
REMARK                            x       y       z     vdW  Elec       q    Type
REMARK                         _______ _______ _______ _____ _____    ______ ____
ROOT
ATOM      1  C   UNL     1       6.707   6.046  17.434  0.00  0.00    +0.000 C 
ATOM      2  N   UNL     1       5.401   6.072  18.129  0.00  0.00    +0.000 NA
ATOM      3  C   UNL     1       4.597   4.828  17.908  0.00  0.00    +0.000 C 
ATOM      4  C   UNL     1       4.238   4.594  16.420  0.00  0.00    +0.000 C 
ATOM      5  C   UNL     1       5.452   4.774  15.582  0.00  0.00    +0.000 A 
ATOM      6  C   UNL     1       6.550   5.457  16.066  0.00  0.00    +0.000 A 
ATOM      7  N   UNL     1       7.492   5.487  15.072  0.00  0.00    +0.000 N 
ATOM      8  C   UNL     1       7.036   4.790  13.971  0.00  0.00    +0.000 A 
ATOM      9  C   UNL     1       7.664   4.528  12.748  0.00  0.00    +0.000 A 
ATOM     10  C   UNL     1       6.954   3.783  11.801  0.00  0.00    +0.000 A 
ATOM     11  C   UNL     1       5.667   3.322  12.066  0.00  0.00    +0.000 A 
ATOM     12  C   UNL     1       5.051   3.596  13.293  0.00  0.00    +0.000 A 
ATOM     13  C   UNL     1       5.748   4.338  14.266  0.00  0.00    +0.000 A 
ATOM     14  H   UNL     1       4.847   6.848  17.760  0.00  0.00    +0.000 HD
ATOM     15  H   UNL     1       8.399   5.927  15.134  0.00  0.00    +0.000 HD
ENDROOT
BRANCH   1  17
ATOM     16  C   UNL     1       7.840   5.739  19.707  0.00  0.00    +0.000 C 
ATOM     17  C   UNL     1       7.761   5.276  18.257  0.00  0.00    +0.000 C 
ENDBRANCH   1  17
BRANCH   3  18
ATOM     18  C   UNL     1       3.278   4.916  18.688  0.00  0.00    +0.000 C 
ATOM     19  O   UNL     1       2.747   3.932  19.205  0.00  0.00    +0.000 OA
BRANCH  18  20
ATOM     20  C   UNL     1       2.702   6.270  18.953  0.00  0.00    +0.000 A 
ATOM     21  C   UNL     1       2.240   6.655  20.218  0.00  0.00    +0.000 A 
ATOM     22  C   UNL     1       1.649   7.908  20.400  0.00  0.00    +0.000 A 
ATOM     23  C   UNL     1       1.526   8.787  19.326  0.00  0.00    +0.000 A 
ATOM     24  C   UNL     1       2.006   8.422  18.070  0.00  0.00    +0.000 A 
ATOM     25  C   UNL     1       2.597   7.170  17.883  0.00  0.00    +0.000 A 
ENDBRANCH  18  20
ENDBRANCH   3  18
TORSDOF 3
ENDMDL
MODEL 8
REMARK VINA RESULT:      -8.1      1.936      6.935
REMARK  Name = 
REMARK  4 active torsions:
REMARK  status: ('A' for Active; 'I' for Inactive)
REMARK    1  A    between atoms: C_1  and  C_2
REMARK    2  A    between atoms: C_2  and  C_3
REMARK    3  A    between atoms: C_5  and  C_6
REMARK    4  A    between atoms: C_6  and  C_8
REMARK                            x       y       z     vdW  Elec       q    Type
REMARK                         _______ _______ _______ _____ _____    ______ ____
ROOT
ATOM      1  C   UNL     1       4.464   7.019  18.029  0.00  0.00    +0.000 C 
ATOM      2  N   UNL     1       5.699   6.556  17.358  0.00  0.00    +0.000 NA
ATOM      3  C   UNL     1       5.519   5.253  16.641  0.00  0.00    +0.000 C 
ATOM      4  C   UNL     1       5.133   4.089  17.586  0.00  0.00    +0.000 C 
ATOM      5  C   UNL     1       4.034   4.523  18.486  0.00  0.00    +0.000 A 
ATOM      6  C   UNL     1       3.769   5.863  18.682  0.00  0.00    +0.000 A 
ATOM      7  N   UNL     1       2.733   5.957  19.574  0.00  0.00    +0.000 N 
ATOM      8  C   UNL     1       2.294   4.694  19.918  0.00  0.00    +0.000 A 
ATOM      9  C   UNL     1       1.248   4.304  20.761  0.00  0.00    +0.000 A 
ATOM     10  C   UNL     1       1.026   2.933  20.927  0.00  0.00    +0.000 A 
ATOM     11  C   UNL     1       1.821   1.992  20.277  0.00  0.00    +0.000 A 
ATOM     12  C   UNL     1       2.865   2.398  19.439  0.00  0.00    +0.000 A 
ATOM     13  C   UNL     1       3.105   3.773  19.250  0.00  0.00    +0.000 A 
ATOM     14  H   UNL     1       6.421   6.403  18.065  0.00  0.00    +0.000 HD
ATOM     15  H   UNL     1       2.326   6.816  19.915  0.00  0.00    +0.000 HD
ENDROOT
BRANCH   1  17
ATOM     16  C   UNL     1       2.474   8.599  17.734  0.00  0.00    +0.000 C 
ATOM     17  C   UNL     1       3.530   7.747  17.040  0.00  0.00    +0.000 C 
ENDBRANCH   1  17
BRANCH   3  18
ATOM     18  C   UNL     1       6.828   4.860  15.942  0.00  0.00    +0.000 C 
ATOM     19  O   UNL     1       7.866   4.626  16.563  0.00  0.00    +0.000 OA
BRANCH  18  20
ATOM     20  C   UNL     1       6.795   4.607  14.469  0.00  0.00    +0.000 A 
ATOM     21  C   UNL     1       5.921   3.681  13.885  0.00  0.00    +0.000 A 
ATOM     22  C   UNL     1       5.974   3.433  12.511  0.00  0.00    +0.000 A 
ATOM     23  C   UNL     1       6.889   4.114  11.711  0.00  0.00    +0.000 A 
ATOM     24  C   UNL     1       7.745   5.056  12.279  0.00  0.00    +0.000 A 
ATOM     25  C   UNL     1       7.695   5.307  13.653  0.00  0.00    +0.000 A 
ENDBRANCH  18  20
ENDBRANCH   3  18
TORSDOF 3
ENDMDL
MODEL 9
REMARK VINA RESULT:      -8.0      1.940      6.908
REMARK  Name = 
REMARK  4 active torsions:
REMARK  status: ('A' for Active; 'I' for Inactive)
REMARK    1  A    between atoms: C_1  and  C_2
REMARK    2  A    between atoms: C_2  and  C_3
REMARK    3  A    between atoms: C_5  and  C_6
REMARK    4  A    between atoms: C_6  and  C_8
REMARK                            x       y       z     vdW  Elec       q    Type
REMARK                         _______ _______ _______ _____ _____    ______ ____
ROOT
ATOM      1  C   UNL     1       4.447   6.969  18.034  0.00  0.00    +0.000 C 
ATOM      2  N   UNL     1       5.707   6.516  17.403  0.00  0.00    +0.000 NA
ATOM      3  C   UNL     1       5.544   5.253  16.616  0.00  0.00    +0.000 C 
ATOM      4  C   UNL     1       5.093   4.052  17.483  0.00  0.00    +0.000 C 
ATOM      5  C   UNL     1       3.956   4.462  18.347  0.00  0.00    +0.000 A 
ATOM      6  C   UNL     1       3.702   5.796  18.595  0.00  0.00    +0.000 A 
ATOM      7  N   UNL     1       2.624   5.865  19.437  0.00  0.00    +0.000 N 
ATOM      8  C   UNL     1       2.149   4.595  19.697  0.00  0.00    +0.000 A 
ATOM      9  C   UNL     1       1.055   4.184  20.467  0.00  0.00    +0.000 A 
ATOM     10  C   UNL     1       0.805   2.810  20.555  0.00  0.00    +0.000 A 
ATOM     11  C   UNL     1       1.617   1.887  19.901  0.00  0.00    +0.000 A 
ATOM     12  C   UNL     1       2.708   2.315  19.137  0.00  0.00    +0.000 A 
ATOM     13  C   UNL     1       2.978   3.693  19.027  0.00  0.00    +0.000 A 
ATOM     14  H   UNL     1       6.390   6.318  18.138  0.00  0.00    +0.000 HD
ATOM     15  H   UNL     1       2.213   6.714  19.799  0.00  0.00    +0.000 HD
ENDROOT
BRANCH   1  17
ATOM     16  C   UNL     1       2.490   8.586  17.716  0.00  0.00    +0.000 C 
ATOM     17  C   UNL     1       3.576   7.760  17.036  0.00  0.00    +0.000 C 
ENDBRANCH   1  17
BRANCH   3  18
ATOM     18  C   UNL     1       6.880   4.871  15.965  0.00  0.00    +0.000 C 
ATOM     19  O   UNL     1       7.899   4.653  16.623  0.00  0.00    +0.000 OA
BRANCH  18  20
ATOM     20  C   UNL     1       6.901   4.608  14.494  0.00  0.00    +0.000 A 
ATOM     21  C   UNL     1       7.733   5.315  13.616  0.00  0.00    +0.000 A 
ATOM     22  C   UNL     1       7.667   5.078  12.241  0.00  0.00    +0.000 A 
ATOM     23  C   UNL     1       6.783   4.128  11.734  0.00  0.00    +0.000 A 
ATOM     24  C   UNL     1       5.970   3.402  12.602  0.00  0.00    +0.000 A 
ATOM     25  C   UNL     1       6.031   3.636  13.979  0.00  0.00    +0.000 A 
ENDBRANCH  18  20
ENDBRANCH   3  18
TORSDOF 3
ENDMDL
