MODEL 1
REMARK VINA RESULT:      -6.6      0.000      0.000
REMARK  Name = 
REMARK  3 active torsions:
REMARK  status: ('A' for Active; 'I' for Inactive)
REMARK    1  A    between atoms: N_1  and  C_2
REMARK    2  A    between atoms: C_5  and  C_6
REMARK    3  A    between atoms: C_6  and  C_8
REMARK                            x       y       z     vdW  Elec       q    Type
REMARK                         _______ _______ _______ _____ _____    ______ ____
ROOT
ATOM      1  C   UNL     1       5.992   5.420  16.513  0.00  0.00    +0.000 A 
ATOM      2  C   UNL     1       5.527   4.126  16.267  0.00  0.00    +0.000 A 
ATOM      3  C   UNL     1       4.284   3.707  16.756  0.00  0.00    +0.000 A 
ATOM      4  C   UNL     1       3.466   4.598  17.460  0.00  0.00    +0.000 A 
ATOM      5  C   UNL     1       3.919   5.903  17.687  0.00  0.00    +0.000 A 
ATOM      6  C   UNL     1       5.158   6.316  17.185  0.00  0.00    +0.000 A 
ENDROOT
BRANCH   1   7
ATOM      7  N   UNL     1       7.164   5.877  15.904  0.00  0.00    +0.000 N 
ATOM      8  H   UNL     1       8.009   5.660  16.424  0.00  0.00    +0.000 HD
ATOM      9  H   UNL     1       7.131   6.852  15.621  0.00  0.00    +0.000 HD
ENDBRANCH   1   7
BRANCH   4  10
ATOM     10  C   UNL     1       2.145   4.117  17.967  0.00  0.00    +0.000 C 
ATOM     11  O   UNL     1       1.186   4.201  17.200  0.00  0.00    +0.000 OA
BRANCH  10  12
ATOM     12  C   UNL     1       2.053   3.579  19.320  0.00  0.00    +0.000 A 
ATOM     13  C   UNL     1       0.964   3.491  20.170  0.00  0.00    +0.000 A 
ATOM     14  C   UNL     1       1.307   2.948  21.443  0.00  0.00    +0.000 A 
ATOM     15  C   UNL     1       2.636   2.598  21.511  0.00  0.00    +0.000 A 
ATOM     16  S   UNL     1       3.458   2.913  20.046  0.00  0.00    +0.000 S 
ENDBRANCH  10  12
ENDBRANCH   4  10
TORSDOF 3
ENDMDL
MODEL 2
REMARK VINA RESULT:      -6.5      0.562      1.386
REMARK  Name = 
REMARK  3 active torsions:
REMARK  status: ('A' for Active; 'I' for Inactive)
REMARK    1  A    between atoms: N_1  and  C_2
REMARK    2  A    between atoms: C_5  and  C_6
REMARK    3  A    between atoms: C_6  and  C_8
REMARK                            x       y       z     vdW  Elec       q    Type
REMARK                         _______ _______ _______ _____ _____    ______ ____
ROOT
ATOM      1  C   UNL     1       6.193   5.908  16.655  0.00  0.00    +0.000 A 
ATOM      2  C   UNL     1       5.159   6.530  17.358  0.00  0.00    +0.000 A 
ATOM      3  C   UNL     1       3.994   5.828  17.687  0.00  0.00    +0.000 A 
ATOM      4  C   UNL     1       3.869   4.474  17.356  0.00  0.00    +0.000 A 
ATOM      5  C   UNL     1       4.914   3.842  16.673  0.00  0.00    +0.000 A 
ATOM      6  C   UNL     1       6.079   4.549  16.358  0.00  0.00    +0.000 A 
ENDROOT
BRANCH   1   7
ATOM      7  N   UNL     1       7.409   6.569  16.456  0.00  0.00    +0.000 N 
ATOM      8  H   UNL     1       8.213   6.069  16.821  0.00  0.00    +0.000 HD
ATOM      9  H   UNL     1       7.403   7.543  16.745  0.00  0.00    +0.000 HD
ENDBRANCH   1   7
BRANCH   4  10
ATOM     10  C   UNL     1       2.611   3.755  17.722  0.00  0.00    +0.000 C 
ATOM     11  O   UNL     1       1.848   3.459  16.802  0.00  0.00    +0.000 OA
BRANCH  10  12
ATOM     12  C   UNL     1       2.348   3.443  19.122  0.00  0.00    +0.000 A 
ATOM     13  C   UNL     1       1.208   3.647  19.880  0.00  0.00    +0.000 A 
ATOM     14  C   UNL     1       1.377   3.253  21.240  0.00  0.00    +0.000 A 
ATOM     15  C   UNL     1       2.625   2.720  21.468  0.00  0.00    +0.000 A 
ATOM     16  S   UNL     1       3.577   2.687  20.049  0.00  0.00    +0.000 S 
ENDBRANCH  10  12
ENDBRANCH   4  10
TORSDOF 3
ENDMDL
MODEL 3
REMARK VINA RESULT:      -6.4      0.818      1.541
REMARK  Name = 
REMARK  3 active torsions:
REMARK  status: ('A' for Active; 'I' for Inactive)
REMARK    1  A    between atoms: N_1  and  C_2
REMARK    2  A    between atoms: C_5  and  C_6
REMARK    3  A    between atoms: C_6  and  C_8
REMARK                            x       y       z     vdW  Elec       q    Type
REMARK                         _______ _______ _______ _____ _____    ______ ____
ROOT
ATOM      1  C   UNL     1       5.925   5.440  16.259  0.00  0.00    +0.000 A 
ATOM      2  C   UNL     1       5.087   6.368  16.881  0.00  0.00    +0.000 A 
ATOM      3  C   UNL     1       3.857   5.975  17.419  0.00  0.00    +0.000 A 
ATOM      4  C   UNL     1       3.469   4.631  17.383  0.00  0.00    +0.000 A 
ATOM      5  C   UNL     1       4.317   3.694  16.781  0.00  0.00    +0.000 A 
ATOM      6  C   UNL     1       5.549   4.095  16.255  0.00  0.00    +0.000 A 
ENDROOT
BRANCH   1   7
ATOM      7  N   UNL     1       7.210   5.809  15.852  0.00  0.00    +0.000 N 
ATOM      8  H   UNL     1       7.500   5.390  14.974  0.00  0.00    +0.000 HD
ATOM      9  H   UNL     1       7.918   5.707  16.574  0.00  0.00    +0.000 HD
ENDBRANCH   1   7
BRANCH   4  10
ATOM     10  C   UNL     1       2.147   4.246  17.966  0.00  0.00    +0.000 C 
ATOM     11  O   UNL     1       1.155   4.403  17.255  0.00  0.00    +0.000 OA
BRANCH  10  12
ATOM     12  C   UNL     1       2.094   3.713  19.322  0.00  0.00    +0.000 A 
ATOM     13  C   UNL     1       1.959   2.407  19.760  0.00  0.00    +0.000 A 
ATOM     14  C   UNL     1       1.890   2.310  21.181  0.00  0.00    +0.000 A 
ATOM     15  C   UNL     1       2.018   3.540  21.786  0.00  0.00    +0.000 A 
ATOM     16  S   UNL     1       2.231   4.796  20.646  0.00  0.00    +0.000 S 
ENDBRANCH  10  12
ENDBRANCH   4  10
TORSDOF 3
ENDMDL
MODEL 4
REMARK VINA RESULT:      -6.3      3.494      5.697
REMARK  Name = 
REMARK  3 active torsions:
REMARK  status: ('A' for Active; 'I' for Inactive)
REMARK    1  A    between atoms: N_1  and  C_2
REMARK    2  A    between atoms: C_5  and  C_6
REMARK    3  A    between atoms: C_6  and  C_8
REMARK                            x       y       z     vdW  Elec       q    Type
REMARK                         _______ _______ _______ _____ _____    ______ ____
ROOT
ATOM      1  C   UNL     1       1.920   3.440  20.511  0.00  0.00    +0.000 A 
ATOM      2  C   UNL     1       2.128   4.816  20.388  0.00  0.00    +0.000 A 
ATOM      3  C   UNL     1       3.336   5.316  19.890  0.00  0.00    +0.000 A 
ATOM      4  C   UNL     1       4.339   4.439  19.463  0.00  0.00    +0.000 A 
ATOM      5  C   UNL     1       4.125   3.059  19.562  0.00  0.00    +0.000 A 
ATOM      6  C   UNL     1       2.909   2.569  20.051  0.00  0.00    +0.000 A 
ENDROOT
BRANCH   1   7
ATOM      7  N   UNL     1       0.663   2.945  20.872  0.00  0.00    +0.000 N 
ATOM      8  H   UNL     1       0.526   2.866  21.875  0.00  0.00    +0.000 HD
ATOM      9  H   UNL     1       0.397   2.096  20.383  0.00  0.00    +0.000 HD
ENDBRANCH   1   7
BRANCH   4  10
ATOM     10  C   UNL     1       5.618   5.007  18.937  0.00  0.00    +0.000 C 
ATOM     11  O   UNL     1       6.460   5.351  19.767  0.00  0.00    +0.000 OA
BRANCH  10  12
ATOM     12  C   UNL     1       5.807   5.127  17.496  0.00  0.00    +0.000 A 
ATOM     13  C   UNL     1       4.961   5.639  16.527  0.00  0.00    +0.000 A 
ATOM     14  C   UNL     1       5.500   5.519  15.212  0.00  0.00    +0.000 A 
ATOM     15  C   UNL     1       6.757   4.959  15.221  0.00  0.00    +0.000 A 
ATOM     16  S   UNL     1       7.284   4.593  16.805  0.00  0.00    +0.000 S 
ENDBRANCH  10  12
ENDBRANCH   4  10
TORSDOF 3
ENDMDL
MODEL 5
REMARK VINA RESULT:      -6.3      3.045      5.455
REMARK  Name = 
REMARK  3 active torsions:
REMARK  status: ('A' for Active; 'I' for Inactive)
REMARK    1  A    between atoms: N_1  and  C_2
REMARK    2  A    between atoms: C_5  and  C_6
REMARK    3  A    between atoms: C_6  and  C_8
REMARK                            x       y       z     vdW  Elec       q    Type
REMARK                         _______ _______ _______ _____ _____    ______ ____
ROOT
ATOM      1  C   UNL     1       1.468   3.783  19.966  0.00  0.00    +0.000 A 
ATOM      2  C   UNL     1       2.240   4.798  20.536  0.00  0.00    +0.000 A 
ATOM      3  C   UNL     1       3.052   5.614  19.741  0.00  0.00    +0.000 A 
ATOM      4  C   UNL     1       3.064   5.454  18.350  0.00  0.00    +0.000 A 
ATOM      5  C   UNL     1       2.274   4.454  17.773  0.00  0.00    +0.000 A 
ATOM      6  C   UNL     1       1.458   3.650  18.576  0.00  0.00    +0.000 A 
ENDROOT
BRANCH   1   7
ATOM      7  N   UNL     1       0.554   3.068  20.745  0.00  0.00    +0.000 N 
ATOM      8  H   UNL     1       0.797   3.029  21.730  0.00  0.00    +0.000 HD
ATOM      9  H   UNL     1       0.321   2.152  20.373  0.00  0.00    +0.000 HD
ENDBRANCH   1   7
BRANCH   4  10
ATOM     10  C   UNL     1       3.944   6.343  17.531  0.00  0.00    +0.000 C 
ATOM     11  O   UNL     1       3.680   7.545  17.531  0.00  0.00    +0.000 OA
BRANCH  10  12
ATOM     12  C   UNL     1       5.051   5.759  16.783  0.00  0.00    +0.000 A 
ATOM     13  C   UNL     1       5.349   5.830  15.433  0.00  0.00    +0.000 A 
ATOM     14  C   UNL     1       6.500   5.064  15.085  0.00  0.00    +0.000 A 
ATOM     15  C   UNL     1       7.071   4.467  16.186  0.00  0.00    +0.000 A 
ATOM     16  S   UNL     1       6.229   4.839  17.626  0.00  0.00    +0.000 S 
ENDBRANCH  10  12
ENDBRANCH   4  10
TORSDOF 3
ENDMDL
MODEL 6
REMARK VINA RESULT:      -6.3      1.968      2.134
REMARK  Name = 
REMARK  3 active torsions:
REMARK  status: ('A' for Active; 'I' for Inactive)
REMARK    1  A    between atoms: N_1  and  C_2
REMARK    2  A    between atoms: C_5  and  C_6
REMARK    3  A    between atoms: C_6  and  C_8
REMARK                            x       y       z     vdW  Elec       q    Type
REMARK                         _______ _______ _______ _____ _____    ______ ____
ROOT
ATOM      1  C   UNL     1       6.351   6.097  16.960  0.00  0.00    +0.000 A 
ATOM      2  C   UNL     1       6.293   5.399  18.169  0.00  0.00    +0.000 A 
ATOM      3  C   UNL     1       5.129   5.406  18.944  0.00  0.00    +0.000 A 
ATOM      4  C   UNL     1       3.985   6.075  18.493  0.00  0.00    +0.000 A 
ATOM      5  C   UNL     1       4.032   6.755  17.271  0.00  0.00    +0.000 A 
ATOM      6  C   UNL     1       5.198   6.734  16.498  0.00  0.00    +0.000 A 
ENDROOT
BRANCH   1   7
ATOM      7  N   UNL     1       7.464   5.970  16.124  0.00  0.00    +0.000 N 
ATOM      8  H   UNL     1       7.260   6.129  15.142  0.00  0.00    +0.000 HD
ATOM      9  H   UNL     1       7.996   5.117  16.269  0.00  0.00    +0.000 HD
ENDBRANCH   1   7
BRANCH   4  10
ATOM     10  C   UNL     1       2.759   6.062  19.348  0.00  0.00    +0.000 C 
ATOM     11  O   UNL     1       2.418   7.131  19.855  0.00  0.00    +0.000 OA
BRANCH  10  12
ATOM     12  C   UNL     1       2.035   4.811  19.538  0.00  0.00    +0.000 A 
ATOM     13  C   UNL     1       1.580   4.214  20.702  0.00  0.00    +0.000 A 
ATOM     14  C   UNL     1       0.963   2.951  20.464  0.00  0.00    +0.000 A 
ATOM     15  C   UNL     1       0.926   2.642  19.123  0.00  0.00    +0.000 A 
ATOM     16  S   UNL     1       1.620   3.873  18.162  0.00  0.00    +0.000 S 
ENDBRANCH  10  12
ENDBRANCH   4  10
TORSDOF 3
ENDMDL
MODEL 7
REMARK VINA RESULT:      -6.3      1.068      1.197
REMARK  Name = 
REMARK  3 active torsions:
REMARK  status: ('A' for Active; 'I' for Inactive)
REMARK    1  A    between atoms: N_1  and  C_2
REMARK    2  A    between atoms: C_5  and  C_6
REMARK    3  A    between atoms: C_6  and  C_8
REMARK                            x       y       z     vdW  Elec       q    Type
REMARK                         _______ _______ _______ _____ _____    ______ ____
ROOT
ATOM      1  C   UNL     1       6.370   6.068  16.922  0.00  0.00    +0.000 A 
ATOM      2  C   UNL     1       6.358   4.673  16.992  0.00  0.00    +0.000 A 
ATOM      3  C   UNL     1       5.178   3.980  17.284  0.00  0.00    +0.000 A 
ATOM      4  C   UNL     1       3.977   4.678  17.464  0.00  0.00    +0.000 A 
ATOM      5  C   UNL     1       3.981   6.074  17.371  0.00  0.00    +0.000 A 
ATOM      6  C   UNL     1       5.164   6.757  17.068  0.00  0.00    +0.000 A 
ENDROOT
BRANCH   1   7
ATOM      7  N   UNL     1       7.515   6.743  16.491  0.00  0.00    +0.000 N 
ATOM      8  H   UNL     1       7.590   6.822  15.481  0.00  0.00    +0.000 HD
ATOM      9  H   UNL     1       8.377   6.408  16.911  0.00  0.00    +0.000 HD
ENDBRANCH   1   7
BRANCH   4  10
ATOM     10  C   UNL     1       2.735   3.907  17.775  0.00  0.00    +0.000 C 
ATOM     11  O   UNL     1       2.099   3.461  16.820  0.00  0.00    +0.000 OA
BRANCH  10  12
ATOM     12  C   UNL     1       2.341   3.720  19.167  0.00  0.00    +0.000 A 
ATOM     13  C   UNL     1       2.714   4.423  20.299  0.00  0.00    +0.000 A 
ATOM     14  C   UNL     1       2.147   3.882  21.491  0.00  0.00    +0.000 A 
ATOM     15  C   UNL     1       1.325   2.811  21.227  0.00  0.00    +0.000 A 
ATOM     16  S   UNL     1       1.231   2.470  19.555  0.00  0.00    +0.000 S 
ENDBRANCH  10  12
ENDBRANCH   4  10
TORSDOF 3
ENDMDL
MODEL 8
REMARK VINA RESULT:      -6.2      3.239      5.367
REMARK  Name = 
REMARK  3 active torsions:
REMARK  status: ('A' for Active; 'I' for Inactive)
REMARK    1  A    between atoms: N_1  and  C_2
REMARK    2  A    between atoms: C_5  and  C_6
REMARK    3  A    between atoms: C_6  and  C_8
REMARK                            x       y       z     vdW  Elec       q    Type
REMARK                         _______ _______ _______ _____ _____    ______ ____
ROOT
ATOM      1  C   UNL     1       1.256   3.890  19.816  0.00  0.00    +0.000 A 
ATOM      2  C   UNL     1       1.439   3.689  18.446  0.00  0.00    +0.000 A 
ATOM      3  C   UNL     1       2.352   4.466  17.724  0.00  0.00    +0.000 A 
ATOM      4  C   UNL     1       3.132   5.427  18.378  0.00  0.00    +0.000 A 
ATOM      5  C   UNL     1       2.968   5.614  19.755  0.00  0.00    +0.000 A 
ATOM      6  C   UNL     1       2.060   4.825  20.470  0.00  0.00    +0.000 A 
ENDROOT
BRANCH   1   7
ATOM      7  N   UNL     1       0.451   3.019  20.556  0.00  0.00    +0.000 N 
ATOM      8  H   UNL     1       0.624   2.037  20.365  0.00  0.00    +0.000 HD
ATOM      9  H   UNL     1      -0.539   3.244  20.526  0.00  0.00    +0.000 HD
ENDBRANCH   1   7
BRANCH   4  10
ATOM     10  C   UNL     1       4.098   6.239  17.576  0.00  0.00    +0.000 C 
ATOM     11  O   UNL     1       3.808   7.419  17.381  0.00  0.00    +0.000 OA
BRANCH  10  12
ATOM     12  C   UNL     1       5.313   5.611  17.073  0.00  0.00    +0.000 A 
ATOM     13  C   UNL     1       6.376   5.050  17.762  0.00  0.00    +0.000 A 
ATOM     14  C   UNL     1       7.408   4.589  16.893  0.00  0.00    +0.000 A 
ATOM     15  C   UNL     1       7.085   4.773  15.568  0.00  0.00    +0.000 A 
ATOM     16  S   UNL     1       5.543   5.484  15.378  0.00  0.00    +0.000 S 
ENDBRANCH  10  12
ENDBRANCH   4  10
TORSDOF 3
ENDMDL
MODEL 9
REMARK VINA RESULT:      -6.2      1.780      2.123
REMARK  Name = 
REMARK  3 active torsions:
REMARK  status: ('A' for Active; 'I' for Inactive)
REMARK    1  A    between atoms: N_1  and  C_2
REMARK    2  A    between atoms: C_5  and  C_6
REMARK    3  A    between atoms: C_6  and  C_8
REMARK                            x       y       z     vdW  Elec       q    Type
REMARK                         _______ _______ _______ _____ _____    ______ ____
ROOT
ATOM      1  C   UNL     1       6.299   5.693  16.588  0.00  0.00    +0.000 A 
ATOM      2  C   UNL     1       5.262   6.587  16.314  0.00  0.00    +0.000 A 
ATOM      3  C   UNL     1       4.160   6.691  17.170  0.00  0.00    +0.000 A 
ATOM      4  C   UNL     1       4.105   5.930  18.343  0.00  0.00    +0.000 A 
ATOM      5  C   UNL     1       5.154   5.050  18.633  0.00  0.00    +0.000 A 
ATOM      6  C   UNL     1       6.256   4.961  17.776  0.00  0.00    +0.000 A 
ENDROOT
BRANCH   1   7
ATOM      7  N   UNL     1       7.460   5.697  15.809  0.00  0.00    +0.000 N 
ATOM      8  H   UNL     1       7.291   5.859  14.821  0.00  0.00    +0.000 HD
ATOM      9  H   UNL     1       8.066   4.897  15.965  0.00  0.00    +0.000 HD
ENDBRANCH   1   7
BRANCH   4  10
ATOM     10  C   UNL     1       2.913   6.065  19.235  0.00  0.00    +0.000 C 
ATOM     11  O   UNL     1       2.521   7.207  19.475  0.00  0.00    +0.000 OA
BRANCH  10  12
ATOM     12  C   UNL     1       2.280   4.864  19.768  0.00  0.00    +0.000 A 
ATOM     13  C   UNL     1       2.140   4.440  21.078  0.00  0.00    +0.000 A 
ATOM     14  C   UNL     1       1.504   3.167  21.175  0.00  0.00    +0.000 A 
ATOM     15  C   UNL     1       1.140   2.679  19.941  0.00  0.00    +0.000 A 
ATOM     16  S   UNL     1       1.554   3.755  18.679  0.00  0.00    +0.000 S 
ENDBRANCH  10  12
ENDBRANCH   4  10
TORSDOF 3
ENDMDL
