MODEL 1
REMARK VINA RESULT:      -8.5      0.000      0.000
REMARK  Name = 
REMARK  8 active torsions:
REMARK  status: ('A' for Active; 'I' for Inactive)
REMARK    1  A    between atoms: C_2  and  C_3
REMARK    2  A    between atoms: C_3  and  C_4
REMARK    3  A    between atoms: N_9  and  C_10
REMARK    4  A    between atoms: C_13  and  N_14
REMARK    5  A    between atoms: C_22  and  C_23
REMARK    6  A    between atoms: N_25  and  C_26
REMARK    7  A    between atoms: C_26  and  C_27
REMARK    8  A    between atoms: C_27  and  O_28
REMARK                            x       y       z     vdW  Elec       q    Type
REMARK                         _______ _______ _______ _____ _____    ______ ____
ROOT
ATOM      1  N   UNL     1       1.348   9.220  19.787  0.00  0.00    +0.000 N 
ATOM      2  C   UNL     1       1.817   7.949  20.002  0.00  0.00    +0.000 C 
ATOM      3  O   UNL     1       1.388   7.233  20.910  0.00  0.00    +0.000 OA
ATOM      4  N   UNL     1       2.763   7.394  19.176  0.00  0.00    +0.000 N 
ATOM      5  C   UNL     1       3.054   6.009  19.469  0.00  0.00    +0.000 C 
ATOM      6  C   UNL     1       3.679   5.509  18.227  0.00  0.00    +0.000 A 
ATOM      7  C   UNL     1       3.695   4.206  17.785  0.00  0.00    +0.000 A 
ATOM      8  C   UNL     1       4.420   3.932  16.641  0.00  0.00    +0.000 A 
ATOM      9  C   UNL     1       5.208   4.927  16.019  0.00  0.00    +0.000 A 
ATOM     10  C   UNL     1       5.091   6.278  16.435  0.00  0.00    +0.000 A 
ATOM     11  C   UNL     1       4.218   6.566  17.491  0.00  0.00    +0.000 A 
ATOM     12  C   UNL     1       3.505   7.840  17.960  0.00  0.00    +0.000 C 
ATOM     13  H   UNL     1       1.335   9.567  18.832  0.00  0.00    +0.000 HD
ENDROOT
BRANCH   1  17
ATOM     14  C   UNL     1      -1.369  11.155  22.544  0.00  0.00    +0.000 A 
ATOM     15  C   UNL     1      -1.378  11.456  21.190  0.00  0.00    +0.000 A 
ATOM     16  C   UNL     1      -0.538  10.784  20.284  0.00  0.00    +0.000 A 
ATOM     17  C   UNL     1       0.384   9.810  20.694  0.00  0.00    +0.000 A 
ATOM     18  C   UNL     1       0.346   9.447  22.042  0.00  0.00    +0.000 A 
ATOM     19  C   UNL     1      -0.519  10.110  22.951  0.00  0.00    +0.000 A 
BRANCH  14  22
ATOM     20  O   UNL     1      -4.127  12.238  22.301  0.00  0.00    +0.000 OA
ATOM     21  C   UNL     1      -3.441  12.379  23.304  0.00  0.00    +0.000 C 
ATOM     22  N   UNL     1      -2.161  11.848  23.509  0.00  0.00    +0.000 N 
ATOM     23  H   UNL     1      -1.756  11.978  24.430  0.00  0.00    +0.000 HD
BRANCH  21  24
ATOM     24  C   UNL     1      -3.959  13.178  24.504  0.00  0.00    +0.000 C 
BRANCH  24  25
ATOM     25  C   UNL     1      -3.629  14.682  24.458  0.00  0.00    +0.000 C 
ATOM     26  C   UNL     1      -2.664  15.103  25.571  0.00  0.00    +0.000 C 
ATOM     27  C   UNL     1      -2.147  16.471  25.137  0.00  0.00    +0.000 C 
ATOM     28  C   UNL     1      -2.236  16.485  23.614  0.00  0.00    +0.000 C 
ATOM     29  C   UNL     1      -2.874  15.154  23.209  0.00  0.00    +0.000 C 
ENDBRANCH  24  25
ENDBRANCH  21  24
ENDBRANCH  14  22
ENDBRANCH   1  17
BRANCH   9  30
ATOM     30  C   UNL     1       6.066   4.407  14.907  0.00  0.00    +0.000 C 
ATOM     31  O   UNL     1       7.285   4.572  14.957  0.00  0.00    +0.000 OA
ATOM     32  N   UNL     1       5.475   3.819  13.807  0.00  0.00    +0.000 N 
ATOM     33  H   UNL     1       4.469   3.820  13.706  0.00  0.00    +0.000 HD
BRANCH  32  34
ATOM     34  C   UNL     1       6.302   3.529  12.631  0.00  0.00    +0.000 C 
BRANCH  34  35
ATOM     35  C   UNL     1       5.624   2.553  11.667  0.00  0.00    +0.000 C 
BRANCH  35  36
ATOM     36  O   UNL     1       4.308   3.011  11.360  0.00  0.00    +0.000 OA
ATOM     37  H   UNL     1       4.167   2.780  10.425  0.00  0.00    +0.000 HD
ENDBRANCH  35  36
ENDBRANCH  34  35
ENDBRANCH  32  34
ENDBRANCH   9  30
TORSDOF 8
ENDMDL
MODEL 2
REMARK VINA RESULT:      -8.4      1.746      2.239
REMARK  Name = 
REMARK  8 active torsions:
REMARK  status: ('A' for Active; 'I' for Inactive)
REMARK    1  A    between atoms: C_2  and  C_3
REMARK    2  A    between atoms: C_3  and  C_4
REMARK    3  A    between atoms: N_9  and  C_10
REMARK    4  A    between atoms: C_13  and  N_14
REMARK    5  A    between atoms: C_22  and  C_23
REMARK    6  A    between atoms: N_25  and  C_26
REMARK    7  A    between atoms: C_26  and  C_27
REMARK    8  A    between atoms: C_27  and  O_28
REMARK                            x       y       z     vdW  Elec       q    Type
REMARK                         _______ _______ _______ _____ _____    ______ ____
ROOT
ATOM      1  N   UNL     1       0.722  10.495  19.096  0.00  0.00    +0.000 N 
ATOM      2  C   UNL     1       1.055   9.268  19.612  0.00  0.00    +0.000 C 
ATOM      3  O   UNL     1       0.474   8.783  20.585  0.00  0.00    +0.000 OA
ATOM      4  N   UNL     1       2.029   8.496  19.029  0.00  0.00    +0.000 N 
ATOM      5  C   UNL     1       2.167   7.184  19.621  0.00  0.00    +0.000 C 
ATOM      6  C   UNL     1       2.871   6.401  18.586  0.00  0.00    +0.000 A 
ATOM      7  C   UNL     1       2.820   5.037  18.415  0.00  0.00    +0.000 A 
ATOM      8  C   UNL     1       3.632   4.488  17.441  0.00  0.00    +0.000 A 
ATOM      9  C   UNL     1       4.562   5.280  16.732  0.00  0.00    +0.000 A 
ATOM     10  C   UNL     1       4.521   6.693  16.856  0.00  0.00    +0.000 A 
ATOM     11  C   UNL     1       3.573   7.247  17.724  0.00  0.00    +0.000 A 
ATOM     12  C   UNL     1       2.928   8.633  17.845  0.00  0.00    +0.000 C 
ATOM     13  H   UNL     1       0.837  10.638  18.096  0.00  0.00    +0.000 HD
ENDROOT
BRANCH   1  17
ATOM     14  C   UNL     1      -2.337  12.758  21.157  0.00  0.00    +0.000 A 
ATOM     15  C   UNL     1      -1.063  12.615  21.688  0.00  0.00    +0.000 A 
ATOM     16  C   UNL     1      -0.051  11.932  20.991  0.00  0.00    +0.000 A 
ATOM     17  C   UNL     1      -0.275  11.319  19.749  0.00  0.00    +0.000 A 
ATOM     18  C   UNL     1      -1.530  11.524  19.173  0.00  0.00    +0.000 A 
ATOM     19  C   UNL     1      -2.544  12.233  19.868  0.00  0.00    +0.000 A 
BRANCH  14  22
ATOM     20  O   UNL     1      -3.646  12.001  23.717  0.00  0.00    +0.000 OA
ATOM     21  C   UNL     1      -4.015  12.945  23.033  0.00  0.00    +0.000 C 
ATOM     22  N   UNL     1      -3.411  13.393  21.851  0.00  0.00    +0.000 N 
ATOM     23  H   UNL     1      -3.781  14.246  21.445  0.00  0.00    +0.000 HD
BRANCH  21  24
ATOM     24  C   UNL     1      -5.227  13.786  23.444  0.00  0.00    +0.000 C 
BRANCH  24  25
ATOM     25  C   UNL     1      -4.939  15.294  23.578  0.00  0.00    +0.000 C 
ATOM     26  C   UNL     1      -6.167  16.085  24.042  0.00  0.00    +0.000 C 
ATOM     27  C   UNL     1      -5.610  17.429  24.500  0.00  0.00    +0.000 C 
ATOM     28  C   UNL     1      -4.173  17.157  24.937  0.00  0.00    +0.000 C 
ATOM     29  C   UNL     1      -3.911  15.676  24.650  0.00  0.00    +0.000 C 
ENDBRANCH  24  25
ENDBRANCH  21  24
ENDBRANCH  14  22
ENDBRANCH   1  17
BRANCH   9  30
ATOM     30  C   UNL     1       5.482   4.489  15.854  0.00  0.00    +0.000 C 
ATOM     31  O   UNL     1       6.468   3.943  16.348  0.00  0.00    +0.000 OA
ATOM     32  N   UNL     1       5.255   4.445  14.494  0.00  0.00    +0.000 N 
ATOM     33  H   UNL     1       4.532   5.015  14.077  0.00  0.00    +0.000 HD
BRANCH  32  34
ATOM     34  C   UNL     1       6.285   3.868  13.623  0.00  0.00    +0.000 C 
BRANCH  34  35
ATOM     35  C   UNL     1       7.225   4.929  13.047  0.00  0.00    +0.000 C 
BRANCH  35  36
ATOM     36  O   UNL     1       7.953   5.555  14.103  0.00  0.00    +0.000 OA
ATOM     37  H   UNL     1       7.405   5.437  14.899  0.00  0.00    +0.000 HD
ENDBRANCH  35  36
ENDBRANCH  34  35
ENDBRANCH  32  34
ENDBRANCH   9  30
TORSDOF 8
ENDMDL
MODEL 3
REMARK VINA RESULT:      -8.3      2.354      3.266
REMARK  Name = 
REMARK  8 active torsions:
REMARK  status: ('A' for Active; 'I' for Inactive)
REMARK    1  A    between atoms: C_2  and  C_3
REMARK    2  A    between atoms: C_3  and  C_4
REMARK    3  A    between atoms: N_9  and  C_10
REMARK    4  A    between atoms: C_13  and  N_14
REMARK    5  A    between atoms: C_22  and  C_23
REMARK    6  A    between atoms: N_25  and  C_26
REMARK    7  A    between atoms: C_26  and  C_27
REMARK    8  A    between atoms: C_27  and  O_28
REMARK                            x       y       z     vdW  Elec       q    Type
REMARK                         _______ _______ _______ _____ _____    ______ ____
ROOT
ATOM      1  N   UNL     1      -0.615  11.073  19.062  0.00  0.00    +0.000 N 
ATOM      2  C   UNL     1      -0.005  10.121  19.838  0.00  0.00    +0.000 C 
ATOM      3  O   UNL     1      -0.377   9.869  20.986  0.00  0.00    +0.000 OA
ATOM      4  N   UNL     1       1.031   9.365  19.347  0.00  0.00    +0.000 N 
ATOM      5  C   UNL     1       1.476   8.327  20.251  0.00  0.00    +0.000 C 
ATOM      6  C   UNL     1       2.202   7.385  19.375  0.00  0.00    +0.000 A 
ATOM      7  C   UNL     1       2.391   6.041  19.599  0.00  0.00    +0.000 A 
ATOM      8  C   UNL     1       3.185   5.353  18.701  0.00  0.00    +0.000 A 
ATOM      9  C   UNL     1       3.869   6.027  17.664  0.00  0.00    +0.000 A 
ATOM     10  C   UNL     1       3.576   7.389  17.398  0.00  0.00    +0.000 A 
ATOM     11  C   UNL     1       2.636   8.029  18.215  0.00  0.00    +0.000 A 
ATOM     12  C   UNL     1       1.758   9.275  18.047  0.00  0.00    +0.000 C 
ATOM     13  H   UNL     1      -0.635  10.926  18.056  0.00  0.00    +0.000 HD
ENDROOT
BRANCH   1  17
ATOM     14  C   UNL     1      -3.828  13.354  20.852  0.00  0.00    +0.000 A 
ATOM     15  C   UNL     1      -2.516  13.492  21.283  0.00  0.00    +0.000 A 
ATOM     16  C   UNL     1      -1.463  12.797  20.662  0.00  0.00    +0.000 A 
ATOM     17  C   UNL     1      -1.676  11.896  19.608  0.00  0.00    +0.000 A 
ATOM     18  C   UNL     1      -2.980  11.809  19.117  0.00  0.00    +0.000 A 
ATOM     19  C   UNL     1      -4.039  12.529  19.731  0.00  0.00    +0.000 A 
BRANCH  14  22
ATOM     20  O   UNL     1      -5.359  12.534  23.265  0.00  0.00    +0.000 OA
ATOM     21  C   UNL     1      -5.644  13.517  22.596  0.00  0.00    +0.000 C 
ATOM     22  N   UNL     1      -4.935  13.993  21.486  0.00  0.00    +0.000 N 
ATOM     23  H   UNL     1      -5.247  14.874  21.090  0.00  0.00    +0.000 HD
BRANCH  21  24
ATOM     24  C   UNL     1      -6.861  14.379  22.947  0.00  0.00    +0.000 C 
BRANCH  24  25
ATOM     25  C   UNL     1      -6.546  15.584  23.855  0.00  0.00    +0.000 C 
ATOM     26  C   UNL     1      -5.056  15.684  24.197  0.00  0.00    +0.000 C 
ATOM     27  C   UNL     1      -4.878  17.102  24.730  0.00  0.00    +0.000 C 
ATOM     28  C   UNL     1      -5.975  17.935  24.073  0.00  0.00    +0.000 C 
ATOM     29  C   UNL     1      -6.808  16.962  23.235  0.00  0.00    +0.000 C 
ENDBRANCH  24  25
ENDBRANCH  21  24
ENDBRANCH  14  22
ENDBRANCH   1  17
BRANCH   9  30
ATOM     30  C   UNL     1       4.825   5.156  16.907  0.00  0.00    +0.000 C 
ATOM     31  O   UNL     1       4.593   3.952  16.806  0.00  0.00    +0.000 OA
ATOM     32  N   UNL     1       5.986   5.701  16.398  0.00  0.00    +0.000 N 
ATOM     33  H   UNL     1       6.239   6.656  16.612  0.00  0.00    +0.000 HD
BRANCH  32  34
ATOM     34  C   UNL     1       7.015   4.801  15.868  0.00  0.00    +0.000 C 
BRANCH  34  35
ATOM     35  C   UNL     1       7.009   4.743  14.339  0.00  0.00    +0.000 C 
BRANCH  35  36
ATOM     36  O   UNL     1       8.020   5.604  13.818  0.00  0.00    +0.000 OA
ATOM     37  H   UNL     1       7.903   6.450  14.284  0.00  0.00    +0.000 HD
ENDBRANCH  35  36
ENDBRANCH  34  35
ENDBRANCH  32  34
ENDBRANCH   9  30
TORSDOF 8
ENDMDL
MODEL 4
REMARK VINA RESULT:      -8.3      1.873      2.331
REMARK  Name = 
REMARK  8 active torsions:
REMARK  status: ('A' for Active; 'I' for Inactive)
REMARK    1  A    between atoms: C_2  and  C_3
REMARK    2  A    between atoms: C_3  and  C_4
REMARK    3  A    between atoms: N_9  and  C_10
REMARK    4  A    between atoms: C_13  and  N_14
REMARK    5  A    between atoms: C_22  and  C_23
REMARK    6  A    between atoms: N_25  and  C_26
REMARK    7  A    between atoms: C_26  and  C_27
REMARK    8  A    between atoms: C_27  and  O_28
REMARK                            x       y       z     vdW  Elec       q    Type
REMARK                         _______ _______ _______ _____ _____    ______ ____
ROOT
ATOM      1  N   UNL     1       0.386  10.409  18.899  0.00  0.00    +0.000 N 
ATOM      2  C   UNL     1       0.851   9.272  19.511  0.00  0.00    +0.000 C 
ATOM      3  O   UNL     1       0.348   8.827  20.545  0.00  0.00    +0.000 OA
ATOM      4  N   UNL     1       1.881   8.546  18.966  0.00  0.00    +0.000 N 
ATOM      5  C   UNL     1       2.163   7.314  19.669  0.00  0.00    +0.000 C 
ATOM      6  C   UNL     1       2.912   6.509  18.683  0.00  0.00    +0.000 A 
ATOM      7  C   UNL     1       2.990   5.136  18.638  0.00  0.00    +0.000 A 
ATOM      8  C   UNL     1       3.825   4.578  17.689  0.00  0.00    +0.000 A 
ATOM      9  C   UNL     1       4.654   5.386  16.878  0.00  0.00    +0.000 A 
ATOM     10  C   UNL     1       4.478   6.794  16.876  0.00  0.00    +0.000 A 
ATOM     11  C   UNL     1       3.503   7.333  17.724  0.00  0.00    +0.000 A 
ATOM     12  C   UNL     1       2.729   8.657  17.743  0.00  0.00    +0.000 C 
ATOM     13  H   UNL     1       0.459  10.468  17.887  0.00  0.00    +0.000 HD
ENDROOT
BRANCH   1  17
ATOM     14  C   UNL     1      -2.698  12.933  20.586  0.00  0.00    +0.000 A 
ATOM     15  C   UNL     1      -2.945  12.132  19.480  0.00  0.00    +0.000 A 
ATOM     16  C   UNL     1      -1.962  11.265  18.969  0.00  0.00    +0.000 A 
ATOM     17  C   UNL     1      -0.670  11.191  19.510  0.00  0.00    +0.000 A 
ATOM     18  C   UNL     1      -0.437  11.936  20.668  0.00  0.00    +0.000 A 
ATOM     19  C   UNL     1      -1.438  12.793  21.197  0.00  0.00    +0.000 A 
BRANCH  14  22
ATOM     20  O   UNL     1      -4.895  12.511  22.544  0.00  0.00    +0.000 OA
ATOM     21  C   UNL     1      -4.691  13.583  21.990  0.00  0.00    +0.000 C 
ATOM     22  N   UNL     1      -3.644  13.868  21.106  0.00  0.00    +0.000 N 
ATOM     23  H   UNL     1      -3.556  14.831  20.798  0.00  0.00    +0.000 HD
BRANCH  21  24
ATOM     24  C   UNL     1      -5.604  14.786  22.248  0.00  0.00    +0.000 C 
BRANCH  24  25
ATOM     25  C   UNL     1      -4.957  15.907  23.085  0.00  0.00    +0.000 C 
ATOM     26  C   UNL     1      -5.979  16.656  23.947  0.00  0.00    +0.000 C 
ATOM     27  C   UNL     1      -5.138  17.414  24.969  0.00  0.00    +0.000 C 
ATOM     28  C   UNL     1      -3.853  16.606  25.133  0.00  0.00    +0.000 C 
ATOM     29  C   UNL     1      -3.950  15.442  24.143  0.00  0.00    +0.000 C 
ENDBRANCH  24  25
ENDBRANCH  21  24
ENDBRANCH  14  22
ENDBRANCH   1  17
BRANCH   9  30
ATOM     30  C   UNL     1       5.623   4.608  16.043  0.00  0.00    +0.000 C 
ATOM     31  O   UNL     1       6.689   4.241  16.537  0.00  0.00    +0.000 OA
ATOM     32  N   UNL     1       5.343   4.377  14.712  0.00  0.00    +0.000 N 
ATOM     33  H   UNL     1       4.538   4.806  14.276  0.00  0.00    +0.000 HD
BRANCH  32  34
ATOM     34  C   UNL     1       6.395   3.823  13.854  0.00  0.00    +0.000 C 
BRANCH  34  35
ATOM     35  C   UNL     1       7.215   4.912  13.157  0.00  0.00    +0.000 C 
BRANCH  35  36
ATOM     36  O   UNL     1       8.039   5.581  14.111  0.00  0.00    +0.000 OA
ATOM     37  H   UNL     1       8.143   6.487  13.771  0.00  0.00    +0.000 HD
ENDBRANCH  35  36
ENDBRANCH  34  35
ENDBRANCH  32  34
ENDBRANCH   9  30
TORSDOF 8
ENDMDL
MODEL 5
REMARK VINA RESULT:      -8.3      1.625     13.276
REMARK  Name = 
REMARK  8 active torsions:
REMARK  status: ('A' for Active; 'I' for Inactive)
REMARK    1  A    between atoms: C_2  and  C_3
REMARK    2  A    between atoms: C_3  and  C_4
REMARK    3  A    between atoms: N_9  and  C_10
REMARK    4  A    between atoms: C_13  and  N_14
REMARK    5  A    between atoms: C_22  and  C_23
REMARK    6  A    between atoms: N_25  and  C_26
REMARK    7  A    between atoms: C_26  and  C_27
REMARK    8  A    between atoms: C_27  and  O_28
REMARK                            x       y       z     vdW  Elec       q    Type
REMARK                         _______ _______ _______ _____ _____    ______ ____
ROOT
ATOM      1  N   UNL     1       2.209   7.115  19.981  0.00  0.00    +0.000 N 
ATOM      2  C   UNL     1       1.885   8.390  19.593  0.00  0.00    +0.000 C 
ATOM      3  O   UNL     1       2.178   8.836  18.481  0.00  0.00    +0.000 OA
ATOM      4  N   UNL     1       1.167   9.220  20.418  0.00  0.00    +0.000 N 
ATOM      5  C   UNL     1       0.804  10.480  19.808  0.00  0.00    +0.000 C 
ATOM      6  C   UNL     1      -0.314  10.967  20.641  0.00  0.00    +0.000 A 
ATOM      7  C   UNL     1      -1.317  11.821  20.246  0.00  0.00    +0.000 A 
ATOM      8  C   UNL     1      -2.219  12.232  21.209  0.00  0.00    +0.000 A 
ATOM      9  C   UNL     1      -2.047  11.882  22.568  0.00  0.00    +0.000 A 
ATOM     10  C   UNL     1      -1.067  10.922  22.928  0.00  0.00    +0.000 A 
ATOM     11  C   UNL     1      -0.270  10.385  21.909  0.00  0.00    +0.000 A 
ATOM     12  C   UNL     1       0.563   9.104  21.779  0.00  0.00    +0.000 C 
ATOM     13  H   UNL     1       1.581   6.638  20.622  0.00  0.00    +0.000 HD
ENDROOT
BRANCH   1  17
ATOM     14  C   UNL     1       4.595   4.760  17.244  0.00  0.00    +0.000 A 
ATOM     15  C   UNL     1       5.185   5.549  18.221  0.00  0.00    +0.000 A 
ATOM     16  C   UNL     1       4.410   6.267  19.150  0.00  0.00    +0.000 A 
ATOM     17  C   UNL     1       3.007   6.267  19.119  0.00  0.00    +0.000 A 
ATOM     18  C   UNL     1       2.406   5.415  18.189  0.00  0.00    +0.000 A 
ATOM     19  C   UNL     1       3.190   4.674  17.267  0.00  0.00    +0.000 A 
BRANCH  14  22
ATOM     20  O   UNL     1       6.085   5.821  14.900  0.00  0.00    +0.000 OA
ATOM     21  C   UNL     1       5.972   4.626  15.133  0.00  0.00    +0.000 C 
ATOM     22  N   UNL     1       5.337   4.059  16.246  0.00  0.00    +0.000 N 
ATOM     23  H   UNL     1       5.405   3.052  16.345  0.00  0.00    +0.000 HD
BRANCH  21  24
ATOM     24  C   UNL     1       6.570   3.581  14.186  0.00  0.00    +0.000 C 
BRANCH  24  25
ATOM     25  C   UNL     1       5.980   3.601  12.763  0.00  0.00    +0.000 C 
ATOM     26  C   UNL     1       6.212   2.283  12.016  0.00  0.00    +0.000 C 
ATOM     27  C   UNL     1       5.245   2.332  10.838  0.00  0.00    +0.000 C 
ATOM     28  C   UNL     1       4.089   3.224  11.285  0.00  0.00    +0.000 C 
ATOM     29  C   UNL     1       4.455   3.730  12.683  0.00  0.00    +0.000 C 
ENDBRANCH  24  25
ENDBRANCH  21  24
ENDBRANCH  14  22
ENDBRANCH   1  17
BRANCH   9  30
ATOM     30  C   UNL     1      -3.007  12.565  23.492  0.00  0.00    +0.000 C 
ATOM     31  O   UNL     1      -3.789  11.887  24.158  0.00  0.00    +0.000 OA
ATOM     32  N   UNL     1      -3.055  13.943  23.529  0.00  0.00    +0.000 N 
ATOM     33  H   UNL     1      -2.514  14.491  22.874  0.00  0.00    +0.000 HD
BRANCH  32  34
ATOM     34  C   UNL     1      -4.149  14.594  24.256  0.00  0.00    +0.000 C 
BRANCH  34  35
ATOM     35  C   UNL     1      -3.677  15.807  25.060  0.00  0.00    +0.000 C 
BRANCH  35  36
ATOM     36  O   UNL     1      -4.269  16.995  24.534  0.00  0.00    +0.000 OA
ATOM     37  H   UNL     1      -3.535  17.627  24.437  0.00  0.00    +0.000 HD
ENDBRANCH  35  36
ENDBRANCH  34  35
ENDBRANCH  32  34
ENDBRANCH   9  30
TORSDOF 8
ENDMDL
MODEL 6
REMARK VINA RESULT:      -8.2      1.211      1.422
REMARK  Name = 
REMARK  8 active torsions:
REMARK  status: ('A' for Active; 'I' for Inactive)
REMARK    1  A    between atoms: C_2  and  C_3
REMARK    2  A    between atoms: C_3  and  C_4
REMARK    3  A    between atoms: N_9  and  C_10
REMARK    4  A    between atoms: C_13  and  N_14
REMARK    5  A    between atoms: C_22  and  C_23
REMARK    6  A    between atoms: N_25  and  C_26
REMARK    7  A    between atoms: C_26  and  C_27
REMARK    8  A    between atoms: C_27  and  O_28
REMARK                            x       y       z     vdW  Elec       q    Type
REMARK                         _______ _______ _______ _____ _____    ______ ____
ROOT
ATOM      1  N   UNL     1       0.986  10.137  19.152  0.00  0.00    +0.000 N 
ATOM      2  C   UNL     1       1.341   8.883  19.582  0.00  0.00    +0.000 C 
ATOM      3  O   UNL     1       0.785   8.331  20.534  0.00  0.00    +0.000 OA
ATOM      4  N   UNL     1       2.312   8.162  18.933  0.00  0.00    +0.000 N 
ATOM      5  C   UNL     1       2.476   6.817  19.438  0.00  0.00    +0.000 C 
ATOM      6  C   UNL     1       3.168   6.109  18.342  0.00  0.00    +0.000 A 
ATOM      7  C   UNL     1       3.128   4.758  18.086  0.00  0.00    +0.000 A 
ATOM      8  C   UNL     1       3.926   4.281  17.064  0.00  0.00    +0.000 A 
ATOM      9  C   UNL     1       4.834   5.128  16.389  0.00  0.00    +0.000 A 
ATOM     10  C   UNL     1       4.780   6.529  16.604  0.00  0.00    +0.000 A 
ATOM     11  C   UNL     1       3.843   7.016  17.523  0.00  0.00    +0.000 A 
ATOM     12  C   UNL     1       3.186   8.384  17.743  0.00  0.00    +0.000 C 
ATOM     13  H   UNL     1       1.079  10.344  18.161  0.00  0.00    +0.000 HD
ENDROOT
BRANCH   1  17
ATOM     14  C   UNL     1      -1.907  12.630  21.187  0.00  0.00    +0.000 A 
ATOM     15  C   UNL     1      -2.230  11.956  20.018  0.00  0.00    +0.000 A 
ATOM     16  C   UNL     1      -1.310  11.097  19.389  0.00  0.00    +0.000 A 
ATOM     17  C   UNL     1      -0.008  10.906  19.874  0.00  0.00    +0.000 A 
ATOM     18  C   UNL     1       0.299  11.519  21.090  0.00  0.00    +0.000 A 
ATOM     19  C   UNL     1      -0.638  12.368  21.736  0.00  0.00    +0.000 A 
BRANCH  14  22
ATOM     20  O   UNL     1      -3.945  12.150  23.298  0.00  0.00    +0.000 OA
ATOM     21  C   UNL     1      -3.763  13.244  22.783  0.00  0.00    +0.000 C 
ATOM     22  N   UNL     1      -2.785  13.554  21.830  0.00  0.00    +0.000 N 
ATOM     23  H   UNL     1      -2.702  14.530  21.564  0.00  0.00    +0.000 HD
BRANCH  21  24
ATOM     24  C   UNL     1      -4.623  14.449  23.175  0.00  0.00    +0.000 C 
BRANCH  24  25
ATOM     25  C   UNL     1      -3.825  15.652  23.715  0.00  0.00    +0.000 C 
ATOM     26  C   UNL     1      -4.727  16.707  24.365  0.00  0.00    +0.000 C 
ATOM     27  C   UNL     1      -3.775  17.582  25.174  0.00  0.00    +0.000 C 
ATOM     28  C   UNL     1      -2.592  16.687  25.534  0.00  0.00    +0.000 C 
ATOM     29  C   UNL     1      -2.853  15.338  24.859  0.00  0.00    +0.000 C 
ENDBRANCH  24  25
ENDBRANCH  21  24
ENDBRANCH  14  22
ENDBRANCH   1  17
BRANCH   9  30
ATOM     30  C   UNL     1       5.745   4.405  15.445  0.00  0.00    +0.000 C 
ATOM     31  O   UNL     1       6.851   4.034  15.838  0.00  0.00    +0.000 OA
ATOM     32  N   UNL     1       5.365   4.230  14.131  0.00  0.00    +0.000 N 
ATOM     33  H   UNL     1       4.522   4.665  13.780  0.00  0.00    +0.000 HD
BRANCH  32  34
ATOM     34  C   UNL     1       6.354   3.734  13.169  0.00  0.00    +0.000 C 
BRANCH  34  35
ATOM     35  C   UNL     1       5.712   2.945  12.025  0.00  0.00    +0.000 C 
BRANCH  35  36
ATOM     36  O   UNL     1       4.413   3.467  11.747  0.00  0.00    +0.000 OA
ATOM     37  H   UNL     1       3.790   2.799  12.082  0.00  0.00    +0.000 HD
ENDBRANCH  35  36
ENDBRANCH  34  35
ENDBRANCH  32  34
ENDBRANCH   9  30
TORSDOF 8
ENDMDL
MODEL 7
REMARK VINA RESULT:      -8.2      1.820      2.415
REMARK  Name = 
REMARK  8 active torsions:
REMARK  status: ('A' for Active; 'I' for Inactive)
REMARK    1  A    between atoms: C_2  and  C_3
REMARK    2  A    between atoms: C_3  and  C_4
REMARK    3  A    between atoms: N_9  and  C_10
REMARK    4  A    between atoms: C_13  and  N_14
REMARK    5  A    between atoms: C_22  and  C_23
REMARK    6  A    between atoms: N_25  and  C_26
REMARK    7  A    between atoms: C_26  and  C_27
REMARK    8  A    between atoms: C_27  and  O_28
REMARK                            x       y       z     vdW  Elec       q    Type
REMARK                         _______ _______ _______ _____ _____    ______ ____
ROOT
ATOM      1  N   UNL     1       0.923  10.051  19.105  0.00  0.00    +0.000 N 
ATOM      2  C   UNL     1       1.344   8.818  19.534  0.00  0.00    +0.000 C 
ATOM      3  O   UNL     1       0.831   8.245  20.498  0.00  0.00    +0.000 OA
ATOM      4  N   UNL     1       2.337   8.140  18.872  0.00  0.00    +0.000 N 
ATOM      5  C   UNL     1       2.573   6.807  19.380  0.00  0.00    +0.000 C 
ATOM      6  C   UNL     1       3.279   6.127  18.274  0.00  0.00    +0.000 A 
ATOM      7  C   UNL     1       3.298   4.775  18.025  0.00  0.00    +0.000 A 
ATOM      8  C   UNL     1       4.100   4.331  16.991  0.00  0.00    +0.000 A 
ATOM      9  C   UNL     1       4.956   5.216  16.297  0.00  0.00    +0.000 A 
ATOM     10  C   UNL     1       4.839   6.614  16.507  0.00  0.00    +0.000 A 
ATOM     11  C   UNL     1       3.896   7.061  17.440  0.00  0.00    +0.000 A 
ATOM     12  C   UNL     1       3.179   8.398  17.666  0.00  0.00    +0.000 C 
ATOM     13  H   UNL     1       0.990  10.258  18.112  0.00  0.00    +0.000 HD
ENDROOT
BRANCH   1  17
ATOM     14  C   UNL     1      -2.026  12.422  21.207  0.00  0.00    +0.000 A 
ATOM     15  C   UNL     1      -2.294  11.874  19.960  0.00  0.00    +0.000 A 
ATOM     16  C   UNL     1      -1.360  11.053  19.304  0.00  0.00    +0.000 A 
ATOM     17  C   UNL     1      -0.093  10.776  19.841  0.00  0.00    +0.000 A 
ATOM     18  C   UNL     1       0.155  11.259  21.128  0.00  0.00    +0.000 A 
ATOM     19  C   UNL     1      -0.799  12.069  21.799  0.00  0.00    +0.000 A 
BRANCH  14  22
ATOM     20  O   UNL     1      -3.639  11.963  23.662  0.00  0.00    +0.000 OA
ATOM     21  C   UNL     1      -3.691  12.999  23.013  0.00  0.00    +0.000 C 
ATOM     22  N   UNL     1      -2.919  13.305  21.885  0.00  0.00    +0.000 N 
ATOM     23  H   UNL     1      -3.013  14.243  21.510  0.00  0.00    +0.000 HD
BRANCH  21  24
ATOM     24  C   UNL     1      -4.643  14.130  23.415  0.00  0.00    +0.000 C 
BRANCH  24  25
ATOM     25  C   UNL     1      -6.026  14.067  22.738  0.00  0.00    +0.000 C 
ATOM     26  C   UNL     1      -6.142  15.036  21.557  0.00  0.00    +0.000 C 
ATOM     27  C   UNL     1      -7.370  14.560  20.788  0.00  0.00    +0.000 C 
ATOM     28  C   UNL     1      -7.490  13.066  21.078  0.00  0.00    +0.000 C 
ATOM     29  C   UNL     1      -6.373  12.732  22.070  0.00  0.00    +0.000 C 
ENDBRANCH  24  25
ENDBRANCH  21  24
ENDBRANCH  14  22
ENDBRANCH   1  17
BRANCH   9  30
ATOM     30  C   UNL     1       5.884   4.532  15.341  0.00  0.00    +0.000 C 
ATOM     31  O   UNL     1       7.067   4.388  15.646  0.00  0.00    +0.000 OA
ATOM     32  N   UNL     1       5.419   4.141  14.102  0.00  0.00    +0.000 N 
ATOM     33  H   UNL     1       4.487   4.394  13.802  0.00  0.00    +0.000 HD
BRANCH  32  34
ATOM     34  C   UNL     1       6.384   3.690  13.095  0.00  0.00    +0.000 C 
BRANCH  34  35
ATOM     35  C   UNL     1       5.720   2.919  11.952  0.00  0.00    +0.000 C 
BRANCH  35  36
ATOM     36  O   UNL     1       4.398   3.415  11.739  0.00  0.00    +0.000 OA
ATOM     37  H   UNL     1       3.992   2.801  11.103  0.00  0.00    +0.000 HD
ENDBRANCH  35  36
ENDBRANCH  34  35
ENDBRANCH  32  34
ENDBRANCH   9  30
TORSDOF 8
ENDMDL
MODEL 8
REMARK VINA RESULT:      -8.1      2.130     13.158
REMARK  Name = 
REMARK  8 active torsions:
REMARK  status: ('A' for Active; 'I' for Inactive)
REMARK    1  A    between atoms: C_2  and  C_3
REMARK    2  A    between atoms: C_3  and  C_4
REMARK    3  A    between atoms: N_9  and  C_10
REMARK    4  A    between atoms: C_13  and  N_14
REMARK    5  A    between atoms: C_22  and  C_23
REMARK    6  A    between atoms: N_25  and  C_26
REMARK    7  A    between atoms: C_26  and  C_27
REMARK    8  A    between atoms: C_27  and  O_28
REMARK                            x       y       z     vdW  Elec       q    Type
REMARK                         _______ _______ _______ _____ _____    ______ ____
ROOT
ATOM      1  N   UNL     1       2.100   7.735  19.385  0.00  0.00    +0.000 N 
ATOM      2  C   UNL     1       1.581   8.861  18.797  0.00  0.00    +0.000 C 
ATOM      3  O   UNL     1       1.732   9.107  17.598  0.00  0.00    +0.000 OA
ATOM      4  N   UNL     1       0.821   9.749  19.517  0.00  0.00    +0.000 N 
ATOM      5  C   UNL     1       0.252  10.811  18.718  0.00  0.00    +0.000 C 
ATOM      6  C   UNL     1      -0.859  11.321  19.549  0.00  0.00    +0.000 A 
ATOM      7  C   UNL     1      -1.992  11.957  19.099  0.00  0.00    +0.000 A 
ATOM      8  C   UNL     1      -2.868  12.443  20.050  0.00  0.00    +0.000 A 
ATOM      9  C   UNL     1      -2.554  12.393  21.427  0.00  0.00    +0.000 A 
ATOM     10  C   UNL     1      -1.431  11.644  21.865  0.00  0.00    +0.000 A 
ATOM     11  C   UNL     1      -0.646  11.012  20.894  0.00  0.00    +0.000 A 
ATOM     12  C   UNL     1       0.339   9.837  20.927  0.00  0.00    +0.000 C 
ATOM     13  H   UNL     1       1.588   7.325  20.162  0.00  0.00    +0.000 HD
ENDROOT
BRANCH   1  17
ATOM     14  C   UNL     1       4.516   5.131  16.913  0.00  0.00    +0.000 A 
ATOM     15  C   UNL     1       5.000   6.350  17.366  0.00  0.00    +0.000 A 
ATOM     16  C   UNL     1       4.239   7.169  18.220  0.00  0.00    +0.000 A 
ATOM     17  C   UNL     1       2.939   6.830  18.625  0.00  0.00    +0.000 A 
ATOM     18  C   UNL     1       2.475   5.572  18.236  0.00  0.00    +0.000 A 
ATOM     19  C   UNL     1       3.254   4.736  17.394  0.00  0.00    +0.000 A 
BRANCH  14  22
ATOM     20  O   UNL     1       6.250   5.877  14.615  0.00  0.00    +0.000 OA
ATOM     21  C   UNL     1       5.986   4.718  14.904  0.00  0.00    +0.000 C 
ATOM     22  N   UNL     1       5.228   4.293  16.002  0.00  0.00    +0.000 N 
ATOM     23  H   UNL     1       5.173   3.292  16.158  0.00  0.00    +0.000 HD
BRANCH  21  24
ATOM     24  C   UNL     1       6.512   3.558  14.052  0.00  0.00    +0.000 C 
BRANCH  24  25
ATOM     25  C   UNL     1       5.949   3.515  12.619  0.00  0.00    +0.000 C 
ATOM     26  C   UNL     1       6.128   2.141  11.963  0.00  0.00    +0.000 C 
ATOM     27  C   UNL     1       5.184   2.161  10.765  0.00  0.00    +0.000 C 
ATOM     28  C   UNL     1       4.067   3.135  11.130  0.00  0.00    +0.000 C 
ATOM     29  C   UNL     1       4.433   3.712  12.500  0.00  0.00    +0.000 C 
ENDBRANCH  24  25
ENDBRANCH  21  24
ENDBRANCH  14  22
ENDBRANCH   1  17
BRANCH   9  30
ATOM     30  C   UNL     1      -3.527  13.130  22.295  0.00  0.00    +0.000 C 
ATOM     31  O   UNL     1      -3.122  14.037  23.021  0.00  0.00    +0.000 OA
ATOM     32  N   UNL     1      -4.849  12.734  22.324  0.00  0.00    +0.000 N 
ATOM     33  H   UNL     1      -5.143  11.898  21.838  0.00  0.00    +0.000 HD
BRANCH  32  34
ATOM     34  C   UNL     1      -5.735  13.305  23.343  0.00  0.00    +0.000 C 
BRANCH  34  35
ATOM     35  C   UNL     1      -6.102  12.295  24.432  0.00  0.00    +0.000 C 
BRANCH  35  36
ATOM     36  O   UNL     1      -7.221  11.516  24.011  0.00  0.00    +0.000 OA
ATOM     37  H   UNL     1      -7.886  12.160  23.712  0.00  0.00    +0.000 HD
ENDBRANCH  35  36
ENDBRANCH  34  35
ENDBRANCH  32  34
ENDBRANCH   9  30
TORSDOF 8
ENDMDL
MODEL 9
REMARK VINA RESULT:      -8.1      1.454      1.860
REMARK  Name = 
REMARK  8 active torsions:
REMARK  status: ('A' for Active; 'I' for Inactive)
REMARK    1  A    between atoms: C_2  and  C_3
REMARK    2  A    between atoms: C_3  and  C_4
REMARK    3  A    between atoms: N_9  and  C_10
REMARK    4  A    between atoms: C_13  and  N_14
REMARK    5  A    between atoms: C_22  and  C_23
REMARK    6  A    between atoms: N_25  and  C_26
REMARK    7  A    between atoms: C_26  and  C_27
REMARK    8  A    between atoms: C_27  and  O_28
REMARK                            x       y       z     vdW  Elec       q    Type
REMARK                         _______ _______ _______ _____ _____    ______ ____
ROOT
ATOM      1  N   UNL     1       0.829  10.511  18.839  0.00  0.00    +0.000 N 
ATOM      2  C   UNL     1       1.156   9.285  19.361  0.00  0.00    +0.000 C 
ATOM      3  O   UNL     1       0.556   8.798  20.322  0.00  0.00    +0.000 OA
ATOM      4  N   UNL     1       2.146   8.518  18.800  0.00  0.00    +0.000 N 
ATOM      5  C   UNL     1       2.277   7.207  19.395  0.00  0.00    +0.000 C 
ATOM      6  C   UNL     1       3.008   6.427  18.375  0.00  0.00    +0.000 A 
ATOM      7  C   UNL     1       2.966   5.063  18.204  0.00  0.00    +0.000 A 
ATOM      8  C   UNL     1       3.802   4.517  17.248  0.00  0.00    +0.000 A 
ATOM      9  C   UNL     1       4.744   5.314  16.559  0.00  0.00    +0.000 A 
ATOM     10  C   UNL     1       4.694   6.726  16.683  0.00  0.00    +0.000 A 
ATOM     11  C   UNL     1       3.724   7.276  17.529  0.00  0.00    +0.000 A 
ATOM     12  C   UNL     1       3.071   8.660  17.636  0.00  0.00    +0.000 C 
ATOM     13  H   UNL     1       0.966  10.655  17.841  0.00  0.00    +0.000 HD
ENDROOT
BRANCH   1  17
ATOM     14  C   UNL     1      -2.263  12.768  20.856  0.00  0.00    +0.000 A 
ATOM     15  C   UNL     1      -0.955  12.759  21.320  0.00  0.00    +0.000 A 
ATOM     16  C   UNL     1       0.063  12.076  20.631  0.00  0.00    +0.000 A 
ATOM     17  C   UNL     1      -0.186  11.331  19.469  0.00  0.00    +0.000 A 
ATOM     18  C   UNL     1      -1.481  11.398  18.953  0.00  0.00    +0.000 A 
ATOM     19  C   UNL     1      -2.503  12.107  19.637  0.00  0.00    +0.000 A 
BRANCH  14  22
ATOM     20  O   UNL     1      -3.568  12.007  23.417  0.00  0.00    +0.000 OA
ATOM     21  C   UNL     1      -3.941  12.949  22.733  0.00  0.00    +0.000 C 
ATOM     22  N   UNL     1      -3.339  13.399  21.550  0.00  0.00    +0.000 N 
ATOM     23  H   UNL     1      -3.713  14.250  21.144  0.00  0.00    +0.000 HD
BRANCH  21  24
ATOM     24  C   UNL     1      -5.156  13.786  23.144  0.00  0.00    +0.000 C 
BRANCH  24  25
ATOM     25  C   UNL     1      -4.863  14.845  24.225  0.00  0.00    +0.000 C 
ATOM     26  C   UNL     1      -3.431  15.383  24.142  0.00  0.00    +0.000 C 
ATOM     27  C   UNL     1      -3.450  16.658  24.979  0.00  0.00    +0.000 C 
ATOM     28  C   UNL     1      -4.886  17.171  24.923  0.00  0.00    +0.000 C 
ATOM     29  C   UNL     1      -5.679  16.138  24.119  0.00  0.00    +0.000 C 
ENDBRANCH  24  25
ENDBRANCH  21  24
ENDBRANCH  14  22
ENDBRANCH   1  17
BRANCH   9  30
ATOM     30  C   UNL     1       5.687   4.527  15.702  0.00  0.00    +0.000 C 
ATOM     31  O   UNL     1       6.722   4.080  16.195  0.00  0.00    +0.000 OA
ATOM     32  N   UNL     1       5.421   4.378  14.356  0.00  0.00    +0.000 N 
ATOM     33  H   UNL     1       4.647   4.870  13.930  0.00  0.00    +0.000 HD
BRANCH  32  34
ATOM     34  C   UNL     1       6.458   3.812  13.489  0.00  0.00    +0.000 C 
BRANCH  34  35
ATOM     35  C   UNL     1       5.884   3.215  12.202  0.00  0.00    +0.000 C 
BRANCH  35  36
ATOM     36  O   UNL     1       4.502   3.552  12.089  0.00  0.00    +0.000 OA
ATOM     37  H   UNL     1       4.484   4.508  11.906  0.00  0.00    +0.000 HD
ENDBRANCH  35  36
ENDBRANCH  34  35
ENDBRANCH  32  34
ENDBRANCH   9  30
TORSDOF 8
ENDMDL
