MODEL 1
REMARK VINA RESULT:      -6.7      0.000      0.000
REMARK  Name = 
REMARK  7 active torsions:
REMARK  status: ('A' for Active; 'I' for Inactive)
REMARK    1  A    between atoms: C_1  and  N_2
REMARK    2  A    between atoms: N_5  and  C_6
REMARK    3  A    between atoms: N_9  and  C_10
REMARK    4  A    between atoms: C_22  and  C_23
REMARK    5  A    between atoms: C_23  and  C_24
REMARK    6  A    between atoms: C_24  and  C_25
REMARK    7  A    between atoms: C_25  and  O_26
REMARK                            x       y       z     vdW  Elec       q    Type
REMARK                         _______ _______ _______ _____ _____    ______ ____
ROOT
ATOM      1  C   UNL     1       2.369   7.412  19.448  0.00  0.00    +0.000 C 
ATOM      2  C   UNL     1       1.746   7.572  18.045  0.00  0.00    +0.000 C 
ATOM      3  C   UNL     1       1.561   9.047  17.637  0.00  0.00    +0.000 C 
ATOM      4  N   UNL     1       0.943   9.875  18.683  0.00  0.00    +0.000 N 
ATOM      5  C   UNL     1       1.526   9.723  20.034  0.00  0.00    +0.000 C 
ATOM      6  C   UNL     1       1.605   8.252  20.524  0.00  0.00    +0.000 C 
ENDROOT
BRANCH   4   7
ATOM      7  C   UNL     1      -0.302  10.514  18.504  0.00  0.00    +0.000 A 
ATOM      8  C   UNL     1      -1.254   9.950  17.643  0.00  0.00    +0.000 A 
ATOM      9  C   UNL     1      -2.578  10.347  17.709  0.00  0.00    +0.000 A 
ATOM     10  N   UNL     1      -3.032  11.297  18.550  0.00  0.00    +0.000 NA
ATOM     11  C   UNL     1      -2.139  11.919  19.317  0.00  0.00    +0.000 A 
ATOM     12  C   UNL     1      -2.626  12.897  20.180  0.00  0.00    +0.000 A 
ATOM     13  C   UNL     1      -1.792  13.623  21.026  0.00  0.00    +0.000 A 
ATOM     14  C   UNL     1      -0.427  13.395  20.982  0.00  0.00    +0.000 A 
ATOM     15 CL   UNL     1       0.627  14.274  22.016  0.00  0.00    +0.000 Cl
ATOM     16  C   UNL     1       0.087  12.423  20.121  0.00  0.00    +0.000 A 
ATOM     17  C   UNL     1      -0.748  11.618  19.313  0.00  0.00    +0.000 A 
ENDBRANCH   4   7
BRANCH   1  22
ATOM     18  C   UNL     1       3.609   1.841  18.798  0.00  0.00    +0.000 C 
ATOM     19  N   UNL     1       3.313   3.266  18.847  0.00  0.00    +0.000 NA
ATOM     20  C   UNL     1       4.402   4.059  19.438  0.00  0.00    +0.000 C 
ATOM     21  C   UNL     1       4.113   5.585  19.314  0.00  0.00    +0.000 C 
ATOM     22  N   UNL     1       2.789   6.020  19.781  0.00  0.00    +0.000 NA
ATOM     23  C   UNL     1       1.715   5.031  19.540  0.00  0.00    +0.000 C 
ATOM     24  C   UNL     1       2.100   3.537  19.630  0.00  0.00    +0.000 C 
ENDBRANCH   1  22
BRANCH   6  25
ATOM     25  C   UNL     1       0.242   7.742  21.114  0.00  0.00    +0.000 C 
BRANCH  25  26
ATOM     26  C   UNL     1      -0.549   8.804  21.861  0.00  0.00    +0.000 C 
BRANCH  26  27
ATOM     27  C   UNL     1      -0.084   9.365  23.190  0.00  0.00    +0.000 C 
BRANCH  27  28
ATOM     28  O   UNL     1      -0.256  10.759  23.257  0.00  0.00    +0.000 OA
ATOM     29  H   UNL     1      -1.008  10.925  23.850  0.00  0.00    +0.000 HD
ENDBRANCH  27  28
ENDBRANCH  26  27
ENDBRANCH  25  26
ENDBRANCH   6  25
TORSDOF 6
ENDMDL
MODEL 2
REMARK VINA RESULT:      -6.4      1.108      1.188
REMARK  Name = 
REMARK  7 active torsions:
REMARK  status: ('A' for Active; 'I' for Inactive)
REMARK    1  A    between atoms: C_1  and  N_2
REMARK    2  A    between atoms: N_5  and  C_6
REMARK    3  A    between atoms: N_9  and  C_10
REMARK    4  A    between atoms: C_22  and  C_23
REMARK    5  A    between atoms: C_23  and  C_24
REMARK    6  A    between atoms: C_24  and  C_25
REMARK    7  A    between atoms: C_25  and  O_26
REMARK                            x       y       z     vdW  Elec       q    Type
REMARK                         _______ _______ _______ _____ _____    ______ ____
ROOT
ATOM      1  C   UNL     1       2.468   7.170  19.460  0.00  0.00    +0.000 C 
ATOM      2  C   UNL     1       1.978   7.509  18.037  0.00  0.00    +0.000 C 
ATOM      3  C   UNL     1       2.012   9.021  17.737  0.00  0.00    +0.000 C 
ATOM      4  N   UNL     1       1.426   9.847  18.803  0.00  0.00    +0.000 N 
ATOM      5  C   UNL     1       1.882   9.524  20.172  0.00  0.00    +0.000 C 
ATOM      6  C   UNL     1       1.737   8.025  20.548  0.00  0.00    +0.000 C 
ENDROOT
BRANCH   4   7
ATOM      7  C   UNL     1       0.289  10.654  18.594  0.00  0.00    +0.000 A 
ATOM      8  C   UNL     1      -0.942  10.056  18.290  0.00  0.00    +0.000 A 
ATOM      9  C   UNL     1      -2.119  10.772  18.421  0.00  0.00    +0.000 A 
ATOM     10  N   UNL     1      -2.169  12.064  18.801  0.00  0.00    +0.000 NA
ATOM     11  C   UNL     1      -1.012  12.690  19.007  0.00  0.00    +0.000 A 
ATOM     12  C   UNL     1      -1.084  14.025  19.399  0.00  0.00    +0.000 A 
ATOM     13  C   UNL     1       0.054  14.791  19.637  0.00  0.00    +0.000 A 
ATOM     14  C   UNL     1       1.301  14.220  19.441  0.00  0.00    +0.000 A 
ATOM     15 CL   UNL     1       2.724  15.140  19.729  0.00  0.00    +0.000 Cl
ATOM     16  C   UNL     1       1.399  12.885  19.042  0.00  0.00    +0.000 A 
ATOM     17  C   UNL     1       0.259  12.067  18.873  0.00  0.00    +0.000 A 
ENDBRANCH   4   7
BRANCH   1  22
ATOM     18  C   UNL     1       3.444   1.602  18.438  0.00  0.00    +0.000 C 
ATOM     19  N   UNL     1       3.247   3.037  18.594  0.00  0.00    +0.000 NA
ATOM     20  C   UNL     1       4.188   3.647  19.546  0.00  0.00    +0.000 C 
ATOM     21  C   UNL     1       4.051   5.198  19.551  0.00  0.00    +0.000 C 
ATOM     22  N   UNL     1       2.683   5.715  19.708  0.00  0.00    +0.000 NA
ATOM     23  C   UNL     1       1.649   4.872  19.068  0.00  0.00    +0.000 C 
ATOM     24  C   UNL     1       1.889   3.346  19.061  0.00  0.00    +0.000 C 
ENDBRANCH   1  22
BRANCH   6  25
ATOM     25  C   UNL     1       0.281   7.658  21.004  0.00  0.00    +0.000 C 
BRANCH  25  26
ATOM     26  C   UNL     1      -0.461   8.793  21.693  0.00  0.00    +0.000 C 
BRANCH  26  27
ATOM     27  C   UNL     1      -0.106   9.249  23.095  0.00  0.00    +0.000 C 
BRANCH  27  28
ATOM     28  O   UNL     1      -0.179  10.648  23.221  0.00  0.00    +0.000 OA
ATOM     29  H   UNL     1       0.225  11.026  22.423  0.00  0.00    +0.000 HD
ENDBRANCH  27  28
ENDBRANCH  26  27
ENDBRANCH  25  26
ENDBRANCH   6  25
TORSDOF 6
ENDMDL
MODEL 3
REMARK VINA RESULT:      -6.4      3.326      8.030
REMARK  Name = 
REMARK  7 active torsions:
REMARK  status: ('A' for Active; 'I' for Inactive)
REMARK    1  A    between atoms: C_1  and  N_2
REMARK    2  A    between atoms: N_5  and  C_6
REMARK    3  A    between atoms: N_9  and  C_10
REMARK    4  A    between atoms: C_22  and  C_23
REMARK    5  A    between atoms: C_23  and  C_24
REMARK    6  A    between atoms: C_24  and  C_25
REMARK    7  A    between atoms: C_25  and  O_26
REMARK                            x       y       z     vdW  Elec       q    Type
REMARK                         _______ _______ _______ _____ _____    ______ ____
ROOT
ATOM      1  C   UNL     1       0.929  12.533  18.783  0.00  0.00    +0.000 C 
ATOM      2  C   UNL     1       2.284  11.879  18.440  0.00  0.00    +0.000 C 
ATOM      3  C   UNL     1       2.136  10.434  17.924  0.00  0.00    +0.000 C 
ATOM      4  N   UNL     1       1.243   9.603  18.746  0.00  0.00    +0.000 N 
ATOM      5  C   UNL     1      -0.055  10.224  19.088  0.00  0.00    +0.000 C 
ATOM      6  C   UNL     1       0.069  11.631  19.730  0.00  0.00    +0.000 C 
ENDROOT
BRANCH   4   7
ATOM      7  C   UNL     1       1.693   8.453  19.427  0.00  0.00    +0.000 A 
ATOM      8  C   UNL     1       1.136   8.119  20.669  0.00  0.00    +0.000 A 
ATOM      9  C   UNL     1       1.297   6.847  21.188  0.00  0.00    +0.000 A 
ATOM     10  N   UNL     1       2.007   5.876  20.580  0.00  0.00    +0.000 NA
ATOM     11  C   UNL     1       2.628   6.187  19.444  0.00  0.00    +0.000 A 
ATOM     12  C   UNL     1       3.357   5.172  18.830  0.00  0.00    +0.000 A 
ATOM     13  C   UNL     1       4.056   5.373  17.643  0.00  0.00    +0.000 A 
ATOM     14  C   UNL     1       4.061   6.635  17.072  0.00  0.00    +0.000 A 
ATOM     15 CL   UNL     1       4.914   6.914  15.606  0.00  0.00    +0.000 Cl
ATOM     16  C   UNL     1       3.343   7.672  17.672  0.00  0.00    +0.000 A 
ATOM     17  C   UNL     1       2.561   7.470  18.832  0.00  0.00    +0.000 A 
ENDBRANCH   4   7
BRANCH   1  22
ATOM     18  C   UNL     1       1.125  18.195  17.828  0.00  0.00    +0.000 C 
ATOM     19  N   UNL     1       1.025  16.748  17.965  0.00  0.00    +0.000 NA
ATOM     20  C   UNL     1      -0.051  16.329  18.876  0.00  0.00    +0.000 C 
ATOM     21  C   UNL     1      -0.229  14.782  18.858  0.00  0.00    +0.000 C 
ATOM     22  N   UNL     1       1.001  13.999  19.049  0.00  0.00    +0.000 NA
ATOM     23  C   UNL     1       2.205  14.623  18.457  0.00  0.00    +0.000 C 
ATOM     24  C   UNL     1       2.276  16.167  18.470  0.00  0.00    +0.000 C 
ENDBRANCH   1  22
BRANCH   6  25
ATOM     25  C   UNL     1       0.383  11.565  21.267  0.00  0.00    +0.000 C 
BRANCH  25  26
ATOM     26  C   UNL     1      -0.843  11.357  22.144  0.00  0.00    +0.000 C 
BRANCH  26  27
ATOM     27  C   UNL     1      -0.931  10.221  23.143  0.00  0.00    +0.000 C 
BRANCH  27  28
ATOM     28  O   UNL     1       0.339   9.844  23.617  0.00  0.00    +0.000 OA
ATOM     29  H   UNL     1       0.389  10.121  24.547  0.00  0.00    +0.000 HD
ENDBRANCH  27  28
ENDBRANCH  26  27
ENDBRANCH  25  26
ENDBRANCH   6  25
TORSDOF 6
ENDMDL
MODEL 4
REMARK VINA RESULT:      -6.2      4.569      6.650
REMARK  Name = 
REMARK  7 active torsions:
REMARK  status: ('A' for Active; 'I' for Inactive)
REMARK    1  A    between atoms: C_1  and  N_2
REMARK    2  A    between atoms: N_5  and  C_6
REMARK    3  A    between atoms: N_9  and  C_10
REMARK    4  A    between atoms: C_22  and  C_23
REMARK    5  A    between atoms: C_23  and  C_24
REMARK    6  A    between atoms: C_24  and  C_25
REMARK    7  A    between atoms: C_25  and  O_26
REMARK                            x       y       z     vdW  Elec       q    Type
REMARK                         _______ _______ _______ _____ _____    ______ ____
ROOT
ATOM      1  C   UNL     1       0.114  13.423  20.955  0.00  0.00    +0.000 C 
ATOM      2  C   UNL     1      -0.883  14.199  20.069  0.00  0.00    +0.000 C 
ATOM      3  C   UNL     1      -2.228  14.465  20.774  0.00  0.00    +0.000 C 
ATOM      4  N   UNL     1      -2.790  13.280  21.439  0.00  0.00    +0.000 N 
ATOM      5  C   UNL     1      -1.839  12.523  22.283  0.00  0.00    +0.000 C 
ATOM      6  C   UNL     1      -0.526  12.128  21.557  0.00  0.00    +0.000 C 
ENDROOT
BRANCH   4   7
ATOM      7  C   UNL     1      -4.025  12.714  21.061  0.00  0.00    +0.000 A 
ATOM      8  C   UNL     1      -5.133  12.834  21.912  0.00  0.00    +0.000 A 
ATOM      9  C   UNL     1      -6.410  12.604  21.432  0.00  0.00    +0.000 A 
ATOM     10  N   UNL     1      -6.677  12.226  20.166  0.00  0.00    +0.000 NA
ATOM     11  C   UNL     1      -5.641  12.013  19.357  0.00  0.00    +0.000 A 
ATOM     12  C   UNL     1      -5.936  11.623  18.052  0.00  0.00    +0.000 A 
ATOM     13  C   UNL     1      -4.942  11.363  17.113  0.00  0.00    +0.000 A 
ATOM     14  C   UNL     1      -3.614  11.455  17.496  0.00  0.00    +0.000 A 
ATOM     15 CL   UNL     1      -2.365  11.141  16.359  0.00  0.00    +0.000 Cl
ATOM     16  C   UNL     1      -3.293  11.838  18.801  0.00  0.00    +0.000 A 
ATOM     17  C   UNL     1      -4.285  12.186  19.747  0.00  0.00    +0.000 A 
ENDBRANCH   4   7
BRANCH   1  22
ATOM     18  C   UNL     1       4.838  14.858  18.017  0.00  0.00    +0.000 C 
ATOM     19  N   UNL     1       3.609  14.607  18.759  0.00  0.00    +0.000 NA
ATOM     20  C   UNL     1       3.838  14.387  20.195  0.00  0.00    +0.000 C 
ATOM     21  C   UNL     1       2.489  14.294  20.968  0.00  0.00    +0.000 C 
ATOM     22  N   UNL     1       1.501  13.358  20.410  0.00  0.00    +0.000 NA
ATOM     23  C   UNL     1       1.527  13.272  18.934  0.00  0.00    +0.000 C 
ATOM     24  C   UNL     1       2.900  13.428  18.243  0.00  0.00    +0.000 C 
ENDBRANCH   1  22
BRANCH   6  25
ATOM     25  C   UNL     1      -0.690  10.838  20.678  0.00  0.00    +0.000 C 
BRANCH  25  26
ATOM     26  C   UNL     1      -0.262   9.554  21.372  0.00  0.00    +0.000 C 
BRANCH  26  27
ATOM     27  C   UNL     1       0.602   9.565  22.617  0.00  0.00    +0.000 C 
BRANCH  27  28
ATOM     28  O   UNL     1      -0.172   9.491  23.789  0.00  0.00    +0.000 OA
ATOM     29  H   UNL     1       0.045  10.274  24.323  0.00  0.00    +0.000 HD
ENDBRANCH  27  28
ENDBRANCH  26  27
ENDBRANCH  25  26
ENDBRANCH   6  25
TORSDOF 6
ENDMDL
MODEL 5
REMARK VINA RESULT:      -6.2      3.122      7.924
REMARK  Name = 
REMARK  7 active torsions:
REMARK  status: ('A' for Active; 'I' for Inactive)
REMARK    1  A    between atoms: C_1  and  N_2
REMARK    2  A    between atoms: N_5  and  C_6
REMARK    3  A    between atoms: N_9  and  C_10
REMARK    4  A    between atoms: C_22  and  C_23
REMARK    5  A    between atoms: C_23  and  C_24
REMARK    6  A    between atoms: C_24  and  C_25
REMARK    7  A    between atoms: C_25  and  O_26
REMARK                            x       y       z     vdW  Elec       q    Type
REMARK                         _______ _______ _______ _____ _____    ______ ____
ROOT
ATOM      1  C   UNL     1       0.946  12.568  18.582  0.00  0.00    +0.000 C 
ATOM      2  C   UNL     1       2.300  11.883  18.298  0.00  0.00    +0.000 C 
ATOM      3  C   UNL     1       2.145  10.418  17.845  0.00  0.00    +0.000 C 
ATOM      4  N   UNL     1       1.224   9.635  18.684  0.00  0.00    +0.000 N 
ATOM      5  C   UNL     1      -0.073  10.287  18.970  0.00  0.00    +0.000 C 
ATOM      6  C   UNL     1       0.057  11.720  19.551  0.00  0.00    +0.000 C 
ENDROOT
BRANCH   4   7
ATOM      7  C   UNL     1       1.646   8.513  19.425  0.00  0.00    +0.000 A 
ATOM      8  C   UNL     1       1.056   8.239  20.667  0.00  0.00    +0.000 A 
ATOM      9  C   UNL     1       1.191   6.990  21.246  0.00  0.00    +0.000 A 
ATOM     10  N   UNL     1       1.904   5.986  20.697  0.00  0.00    +0.000 NA
ATOM     11  C   UNL     1       2.555   6.240  19.564  0.00  0.00    +0.000 A 
ATOM     12  C   UNL     1       3.287   5.192  19.013  0.00  0.00    +0.000 A 
ATOM     13  C   UNL     1       4.016   5.333  17.836  0.00  0.00    +0.000 A 
ATOM     14  C   UNL     1       4.049   6.569  17.210  0.00  0.00    +0.000 A 
ATOM     15 CL   UNL     1       4.938   6.774  15.754  0.00  0.00    +0.000 Cl
ATOM     16  C   UNL     1       3.328   7.638  17.747  0.00  0.00    +0.000 A 
ATOM     17  C   UNL     1       2.516   7.495  18.896  0.00  0.00    +0.000 A 
ENDBRANCH   4   7
BRANCH   1  22
ATOM     18  C   UNL     1       0.479  17.715  21.091  0.00  0.00    +0.000 C 
ATOM     19  N   UNL     1       0.596  16.362  20.562  0.00  0.00    +0.000 NA
ATOM     20  C   UNL     1       1.953  16.042  20.096  0.00  0.00    +0.000 C 
ATOM     21  C   UNL     1       2.069  14.540  19.700  0.00  0.00    +0.000 C 
ATOM     22  N   UNL     1       1.032  14.043  18.784  0.00  0.00    +0.000 NA
ATOM     23  C   UNL     1      -0.294  14.665  18.989  0.00  0.00    +0.000 C 
ATOM     24  C   UNL     1      -0.318  16.145  19.432  0.00  0.00    +0.000 C 
ENDBRANCH   1  22
BRANCH   6  25
ATOM     25  C   UNL     1       0.337  11.720  21.096  0.00  0.00    +0.000 C 
BRANCH  25  26
ATOM     26  C   UNL     1      -0.917  11.752  21.956  0.00  0.00    +0.000 C 
BRANCH  26  27
ATOM     27  C   UNL     1      -1.143  10.762  23.081  0.00  0.00    +0.000 C 
BRANCH  27  28
ATOM     28  O   UNL     1       0.058  10.154  23.490  0.00  0.00    +0.000 OA
ATOM     29  H   UNL     1      -0.145   9.223  23.679  0.00  0.00    +0.000 HD
ENDBRANCH  27  28
ENDBRANCH  26  27
ENDBRANCH  25  26
ENDBRANCH   6  25
TORSDOF 6
ENDMDL
MODEL 6
REMARK VINA RESULT:      -6.1      1.863      2.221
REMARK  Name = 
REMARK  7 active torsions:
REMARK  status: ('A' for Active; 'I' for Inactive)
REMARK    1  A    between atoms: C_1  and  N_2
REMARK    2  A    between atoms: N_5  and  C_6
REMARK    3  A    between atoms: N_9  and  C_10
REMARK    4  A    between atoms: C_22  and  C_23
REMARK    5  A    between atoms: C_23  and  C_24
REMARK    6  A    between atoms: C_24  and  C_25
REMARK    7  A    between atoms: C_25  and  O_26
REMARK                            x       y       z     vdW  Elec       q    Type
REMARK                         _______ _______ _______ _____ _____    ______ ____
ROOT
ATOM      1  C   UNL     1       2.093   7.792  19.288  0.00  0.00    +0.000 C 
ATOM      2  C   UNL     1       1.740   8.457  17.941  0.00  0.00    +0.000 C 
ATOM      3  C   UNL     1       1.950   9.984  17.955  0.00  0.00    +0.000 C 
ATOM      4  N   UNL     1       1.378  10.647  19.137  0.00  0.00    +0.000 N 
ATOM      5  C   UNL     1       1.703  10.012  20.434  0.00  0.00    +0.000 C 
ATOM      6  C   UNL     1       1.379   8.495  20.490  0.00  0.00    +0.000 C 
ENDROOT
BRANCH   4   7
ATOM      7  C   UNL     1       0.348  11.605  19.043  0.00  0.00    +0.000 A 
ATOM      8  C   UNL     1      -0.977  11.228  19.305  0.00  0.00    +0.000 A 
ATOM      9  C   UNL     1      -1.940  12.188  19.557  0.00  0.00    +0.000 A 
ATOM     10  N   UNL     1      -1.698  13.514  19.535  0.00  0.00    +0.000 NA
ATOM     11  C   UNL     1      -0.472  13.910  19.197  0.00  0.00    +0.000 A 
ATOM     12  C   UNL     1      -0.240  15.283  19.180  0.00  0.00    +0.000 A 
ATOM     13  C   UNL     1       0.996  15.822  18.836  0.00  0.00    +0.000 A 
ATOM     14  C   UNL     1       2.021  14.969  18.460  0.00  0.00    +0.000 A 
ATOM     15 CL   UNL     1       3.559  15.606  18.033  0.00  0.00    +0.000 Cl
ATOM     16  C   UNL     1       1.811  13.588  18.464  0.00  0.00    +0.000 A 
ATOM     17  C   UNL     1       0.590  13.016  18.887  0.00  0.00    +0.000 A 
ENDBRANCH   4   7
BRANCH   1  22
ATOM     18  C   UNL     1       4.135   2.437  19.684  0.00  0.00    +0.000 C 
ATOM     19  N   UNL     1       3.702   3.828  19.657  0.00  0.00    +0.000 NA
ATOM     20  C   UNL     1       2.490   4.069  20.454  0.00  0.00    +0.000 C 
ATOM     21  C   UNL     1       2.167   5.590  20.533  0.00  0.00    +0.000 C 
ATOM     22  N   UNL     1       2.139   6.302  19.246  0.00  0.00    +0.000 NA
ATOM     23  C   UNL     1       3.119   5.793  18.262  0.00  0.00    +0.000 C 
ATOM     24  C   UNL     1       3.421   4.278  18.287  0.00  0.00    +0.000 C 
ENDBRANCH   1  22
BRANCH   6  25
ATOM     25  C   UNL     1      -0.135   8.215  20.793  0.00  0.00    +0.000 C 
BRANCH  25  26
ATOM     26  C   UNL     1      -0.513   8.354  22.259  0.00  0.00    +0.000 C 
BRANCH  26  27
ATOM     27  C   UNL     1      -0.558   9.702  22.952  0.00  0.00    +0.000 C 
BRANCH  27  28
ATOM     28  O   UNL     1       0.410   9.799  23.967  0.00  0.00    +0.000 OA
ATOM     29  H   UNL     1       0.077  10.440  24.617  0.00  0.00    +0.000 HD
ENDBRANCH  27  28
ENDBRANCH  26  27
ENDBRANCH  25  26
ENDBRANCH   6  25
TORSDOF 6
ENDMDL
MODEL 7
REMARK VINA RESULT:      -6.1      3.391      8.176
REMARK  Name = 
REMARK  7 active torsions:
REMARK  status: ('A' for Active; 'I' for Inactive)
REMARK    1  A    between atoms: C_1  and  N_2
REMARK    2  A    between atoms: N_5  and  C_6
REMARK    3  A    between atoms: N_9  and  C_10
REMARK    4  A    between atoms: C_22  and  C_23
REMARK    5  A    between atoms: C_23  and  C_24
REMARK    6  A    between atoms: C_24  and  C_25
REMARK    7  A    between atoms: C_25  and  O_26
REMARK                            x       y       z     vdW  Elec       q    Type
REMARK                         _______ _______ _______ _____ _____    ______ ____
ROOT
ATOM      1  C   UNL     1       0.855  12.784  18.794  0.00  0.00    +0.000 C 
ATOM      2  C   UNL     1       2.258  12.164  18.622  0.00  0.00    +0.000 C 
ATOM      3  C   UNL     1       2.213  10.727  18.065  0.00  0.00    +0.000 C 
ATOM      4  N   UNL     1       1.236   9.862  18.743  0.00  0.00    +0.000 N 
ATOM      5  C   UNL     1      -0.109  10.450  18.921  0.00  0.00    +0.000 C 
ATOM      6  C   UNL     1      -0.102  11.845  19.601  0.00  0.00    +0.000 C 
ENDROOT
BRANCH   4   7
ATOM      7  C   UNL     1       1.618   8.706  19.457  0.00  0.00    +0.000 A 
ATOM      8  C   UNL     1       1.023   8.427  20.695  0.00  0.00    +0.000 A 
ATOM      9  C   UNL     1       1.112   7.160  21.243  0.00  0.00    +0.000 A 
ATOM     10  N   UNL     1       1.784   6.143  20.669  0.00  0.00    +0.000 NA
ATOM     11  C   UNL     1       2.439   6.398  19.538  0.00  0.00    +0.000 A 
ATOM     12  C   UNL     1       3.129   5.336  18.959  0.00  0.00    +0.000 A 
ATOM     13  C   UNL     1       3.858   5.477  17.782  0.00  0.00    +0.000 A 
ATOM     14  C   UNL     1       3.935   6.725  17.185  0.00  0.00    +0.000 A 
ATOM     15 CL   UNL     1       4.826   6.930  15.730  0.00  0.00    +0.000 Cl
ATOM     16  C   UNL     1       3.258   7.808  17.750  0.00  0.00    +0.000 A 
ATOM     17  C   UNL     1       2.446   7.669  18.899  0.00  0.00    +0.000 A 
ENDBRANCH   4   7
BRANCH   1  22
ATOM     18  C   UNL     1       0.888  18.469  17.973  0.00  0.00    +0.000 C 
ATOM     19  N   UNL     1       0.835  17.017  18.073  0.00  0.00    +0.000 NA
ATOM     20  C   UNL     1      -0.270  16.538  18.917  0.00  0.00    +0.000 C 
ATOM     21  C   UNL     1      -0.388  14.986  18.857  0.00  0.00    +0.000 C 
ATOM     22  N   UNL     1       0.859  14.244  19.095  0.00  0.00    +0.000 NA
ATOM     23  C   UNL     1       2.067  14.925  18.581  0.00  0.00    +0.000 C 
ATOM     24  C   UNL     1       2.080  16.470  18.630  0.00  0.00    +0.000 C 
ENDBRANCH   1  22
BRANCH   6  25
ATOM     25  C   UNL     1       0.005  11.751  21.164  0.00  0.00    +0.000 C 
BRANCH  25  26
ATOM     26  C   UNL     1      -0.890  12.730  21.909  0.00  0.00    +0.000 C 
BRANCH  26  27
ATOM     27  C   UNL     1      -0.353  14.024  22.491  0.00  0.00    +0.000 C 
BRANCH  27  28
ATOM     28  O   UNL     1       1.006  14.210  22.180  0.00  0.00    +0.000 OA
ATOM     29  H   UNL     1       1.176  15.166  22.213  0.00  0.00    +0.000 HD
ENDBRANCH  27  28
ENDBRANCH  26  27
ENDBRANCH  25  26
ENDBRANCH   6  25
TORSDOF 6
ENDMDL
MODEL 8
REMARK VINA RESULT:      -6.1      3.134      5.096
REMARK  Name = 
REMARK  7 active torsions:
REMARK  status: ('A' for Active; 'I' for Inactive)
REMARK    1  A    between atoms: C_1  and  N_2
REMARK    2  A    between atoms: N_5  and  C_6
REMARK    3  A    between atoms: N_9  and  C_10
REMARK    4  A    between atoms: C_22  and  C_23
REMARK    5  A    between atoms: C_23  and  C_24
REMARK    6  A    between atoms: C_24  and  C_25
REMARK    7  A    between atoms: C_25  and  O_26
REMARK                            x       y       z     vdW  Elec       q    Type
REMARK                         _______ _______ _______ _____ _____    ______ ____
ROOT
ATOM      1  C   UNL     1       0.274   9.860  20.608  0.00  0.00    +0.000 C 
ATOM      2  C   UNL     1       0.353  10.022  22.141  0.00  0.00    +0.000 C 
ATOM      3  C   UNL     1      -0.936  10.611  22.747  0.00  0.00    +0.000 C 
ATOM      4  N   UNL     1      -1.440  11.791  22.028  0.00  0.00    +0.000 N 
ATOM      5  C   UNL     1      -1.511  11.649  20.557  0.00  0.00    +0.000 C 
ATOM      6  C   UNL     1      -0.184  11.180  19.904  0.00  0.00    +0.000 C 
ENDROOT
BRANCH   4   7
ATOM      7  C   UNL     1      -1.541  13.060  22.635  0.00  0.00    +0.000 A 
ATOM      8  C   UNL     1      -0.443  13.932  22.606  0.00  0.00    +0.000 A 
ATOM      9  C   UNL     1      -0.613  15.279  22.875  0.00  0.00    +0.000 A 
ATOM     10  N   UNL     1      -1.797  15.830  23.209  0.00  0.00    +0.000 NA
ATOM     11  C   UNL     1      -2.842  15.015  23.336  0.00  0.00    +0.000 A 
ATOM     12  C   UNL     1      -4.056  15.603  23.682  0.00  0.00    +0.000 A 
ATOM     13  C   UNL     1      -5.220  14.858  23.853  0.00  0.00    +0.000 A 
ATOM     14  C   UNL     1      -5.163  13.481  23.714  0.00  0.00    +0.000 A 
ATOM     15 CL   UNL     1      -6.582  12.535  23.917  0.00  0.00    +0.000 Cl
ATOM     16  C   UNL     1      -3.955  12.867  23.374  0.00  0.00    +0.000 A 
ATOM     17  C   UNL     1      -2.781  13.611  23.116  0.00  0.00    +0.000 A 
ENDBRANCH   4   7
BRANCH   1  22
ATOM     18  C   UNL     1       3.054   5.671  17.828  0.00  0.00    +0.000 C 
ATOM     19  N   UNL     1       2.252   6.702  18.474  0.00  0.00    +0.000 NA
ATOM     20  C   UNL     1       2.520   8.051  17.952  0.00  0.00    +0.000 C 
ATOM     21  C   UNL     1       1.525   9.089  18.548  0.00  0.00    +0.000 C 
ATOM     22  N   UNL     1       1.393   9.073  20.013  0.00  0.00    +0.000 NA
ATOM     23  C   UNL     1       1.518   7.725  20.610  0.00  0.00    +0.000 C 
ATOM     24  C   UNL     1       2.489   6.739  19.923  0.00  0.00    +0.000 C 
ENDBRANCH   1  22
BRANCH   6  25
ATOM     25  C   UNL     1       0.829  12.360  19.688  0.00  0.00    +0.000 C 
BRANCH  25  26
ATOM     26  C   UNL     1       0.406  13.355  18.618  0.00  0.00    +0.000 C 
BRANCH  26  27
ATOM     27  C   UNL     1       0.081  14.798  18.949  0.00  0.00    +0.000 C 
BRANCH  27  28
ATOM     28  O   UNL     1      -1.258  14.952  19.352  0.00  0.00    +0.000 OA
ATOM     29  H   UNL     1      -1.283  14.813  20.313  0.00  0.00    +0.000 HD
ENDBRANCH  27  28
ENDBRANCH  26  27
ENDBRANCH  25  26
ENDBRANCH   6  25
TORSDOF 6
ENDMDL
MODEL 9
REMARK VINA RESULT:      -6.1      3.028      4.595
REMARK  Name = 
REMARK  7 active torsions:
REMARK  status: ('A' for Active; 'I' for Inactive)
REMARK    1  A    between atoms: C_1  and  N_2
REMARK    2  A    between atoms: N_5  and  C_6
REMARK    3  A    between atoms: N_9  and  C_10
REMARK    4  A    between atoms: C_22  and  C_23
REMARK    5  A    between atoms: C_23  and  C_24
REMARK    6  A    between atoms: C_24  and  C_25
REMARK    7  A    between atoms: C_25  and  O_26
REMARK                            x       y       z     vdW  Elec       q    Type
REMARK                         _______ _______ _______ _____ _____    ______ ____
ROOT
ATOM      1  C   UNL     1       0.817   9.192  20.425  0.00  0.00    +0.000 C 
ATOM      2  C   UNL     1       0.933   9.456  21.941  0.00  0.00    +0.000 C 
ATOM      3  C   UNL     1      -0.298  10.184  22.517  0.00  0.00    +0.000 C 
ATOM      4  N   UNL     1      -0.720  11.347  21.722  0.00  0.00    +0.000 N 
ATOM      5  C   UNL     1      -0.825  11.108  20.265  0.00  0.00    +0.000 C 
ATOM      6  C   UNL     1       0.451  10.492  19.634  0.00  0.00    +0.000 C 
ENDROOT
BRANCH   4   7
ATOM      7  C   UNL     1      -0.712  12.659  22.238  0.00  0.00    +0.000 A 
ATOM      8  C   UNL     1       0.317  13.541  21.878  0.00  0.00    +0.000 A 
ATOM      9  C   UNL     1       0.173  14.902  22.078  0.00  0.00    +0.000 A 
ATOM     10  N   UNL     1      -0.913  15.463  22.648  0.00  0.00    +0.000 NA
ATOM     11  C   UNL     1      -1.869  14.647  23.086  0.00  0.00    +0.000 A 
ATOM     12  C   UNL     1      -2.982  15.244  23.672  0.00  0.00    +0.000 A 
ATOM     13  C   UNL     1      -4.045  14.500  24.176  0.00  0.00    +0.000 A 
ATOM     14  C   UNL     1      -3.978  13.117  24.131  0.00  0.00    +0.000 A 
ATOM     15 CL   UNL     1      -5.275  12.171  24.744  0.00  0.00    +0.000 Cl
ATOM     16  C   UNL     1      -2.869  12.494  23.555  0.00  0.00    +0.000 A 
ATOM     17  C   UNL     1      -1.816  13.231  22.964  0.00  0.00    +0.000 A 
ENDBRANCH   4   7
BRANCH   1  22
ATOM     18  C   UNL     1       3.211   4.739  17.697  0.00  0.00    +0.000 C 
ATOM     19  N   UNL     1       2.508   5.851  18.323  0.00  0.00    +0.000 NA
ATOM     20  C   UNL     1       2.978   7.165  17.857  0.00  0.00    +0.000 C 
ATOM     21  C   UNL     1       2.087   8.310  18.423  0.00  0.00    +0.000 C 
ATOM     22  N   UNL     1       1.862   8.281  19.876  0.00  0.00    +0.000 NA
ATOM     23  C   UNL     1       1.777   6.916  20.440  0.00  0.00    +0.000 C 
ATOM     24  C   UNL     1       2.656   5.827  19.785  0.00  0.00    +0.000 C 
ENDBRANCH   1  22
BRANCH   6  25
ATOM     25  C   UNL     1       1.549  11.571  19.324  0.00  0.00    +0.000 C 
BRANCH  25  26
ATOM     26  C   UNL     1       1.033  12.782  18.561  0.00  0.00    +0.000 C 
BRANCH  26  27
ATOM     27  C   UNL     1       1.899  14.001  18.312  0.00  0.00    +0.000 C 
BRANCH  27  28
ATOM     28  O   UNL     1       3.163  13.648  17.806  0.00  0.00    +0.000 OA
ATOM     29  H   UNL     1       3.825  14.009  18.419  0.00  0.00    +0.000 HD
ENDBRANCH  27  28
ENDBRANCH  26  27
ENDBRANCH  25  26
ENDBRANCH   6  25
TORSDOF 6
ENDMDL
