MODEL 1
REMARK VINA RESULT:      -8.5      0.000      0.000
REMARK  Name = 
REMARK  2 active torsions:
REMARK  status: ('A' for Active; 'I' for Inactive)
REMARK    1  A    between atoms: C_4  and  C_5
REMARK    2  A    between atoms: C_15  and  C_16
REMARK                            x       y       z     vdW  Elec       q    Type
REMARK                         _______ _______ _______ _____ _____    ______ ____
ROOT
ATOM      1  O   UNL     1       0.758   3.131  20.600  0.00  0.00    +0.000 OA
ATOM      2  C   UNL     1       1.459   4.115  20.403  0.00  0.00    +0.000 A 
ATOM      3  C   UNL     1       0.989   5.505  20.633  0.00  0.00    +0.000 A 
ATOM      4  C   UNL     1       1.798   6.552  20.367  0.00  0.00    +0.000 A 
ATOM      5  N   UNL     1       3.083   6.352  19.886  0.00  0.00    +0.000 N 
ATOM      6  C   UNL     1       3.594   5.109  19.689  0.00  0.00    +0.000 A 
ATOM      7  C   UNL     1       4.810   4.612  19.265  0.00  0.00    +0.000 A 
ATOM      8  C   UNL     1       4.618   3.207  19.297  0.00  0.00    +0.000 A 
ATOM      9  N   UNL     1       3.400   2.839  19.700  0.00  0.00    +0.000 NA
ATOM     10  N   UNL     1       2.779   4.023  19.942  0.00  0.00    +0.000 N 
ATOM     11  H   UNL     1       3.695   7.167  19.779  0.00  0.00    +0.000 HD
ENDROOT
BRANCH   4  12
ATOM     12  C   UNL     1       1.319   7.936  20.624  0.00  0.00    +0.000 A 
ATOM     13  C   UNL     1       0.947   8.345  21.920  0.00  0.00    +0.000 A 
ATOM     14  C   UNL     1       0.575   9.668  22.184  0.00  0.00    +0.000 A 
ATOM     15  C   UNL     1       0.539  10.597  21.148  0.00  0.00    +0.000 A 
ATOM     16 CL   UNL     1       0.100  12.225  21.480  0.00  0.00    +0.000 Cl
ATOM     17  C   UNL     1       0.856  10.212  19.853  0.00  0.00    +0.000 A 
ATOM     18  C   UNL     1       1.240   8.895  19.601  0.00  0.00    +0.000 A 
ATOM     19  F   UNL     1       1.550   8.566  18.337  0.00  0.00    +0.000 F 
ENDBRANCH   4  12
BRANCH   7  20
ATOM     20  C   UNL     1       5.963   5.396  18.853  0.00  0.00    +0.000 A 
ATOM     21  C   UNL     1       5.923   6.172  17.695  0.00  0.00    +0.000 A 
ATOM     22  C   UNL     1       7.022   6.967  17.375  0.00  0.00    +0.000 A 
ATOM     23  C   UNL     1       8.134   6.955  18.205  0.00  0.00    +0.000 A 
ATOM     24  C   UNL     1       8.105   6.137  19.322  0.00  0.00    +0.000 A 
ATOM     25  N   UNL     1       7.049   5.364  19.667  0.00  0.00    +0.000 NA
ENDBRANCH   7  20
TORSDOF 2
ENDMDL
MODEL 2
REMARK VINA RESULT:      -8.5      1.847      2.311
REMARK  Name = 
REMARK  2 active torsions:
REMARK  status: ('A' for Active; 'I' for Inactive)
REMARK    1  A    between atoms: C_4  and  C_5
REMARK    2  A    between atoms: C_15  and  C_16
REMARK                            x       y       z     vdW  Elec       q    Type
REMARK                         _______ _______ _______ _____ _____    ______ ____
ROOT
ATOM      1  O   UNL     1       1.687   3.563  21.852  0.00  0.00    +0.000 OA
ATOM      2  C   UNL     1       2.166   4.255  20.963  0.00  0.00    +0.000 A 
ATOM      3  C   UNL     1       1.761   5.664  20.727  0.00  0.00    +0.000 A 
ATOM      4  C   UNL     1       2.302   6.368  19.710  0.00  0.00    +0.000 A 
ATOM      5  N   UNL     1       3.252   5.796  18.876  0.00  0.00    +0.000 N 
ATOM      6  C   UNL     1       3.699   4.526  19.057  0.00  0.00    +0.000 A 
ATOM      7  C   UNL     1       4.629   3.724  18.430  0.00  0.00    +0.000 A 
ATOM      8  C   UNL     1       4.560   2.509  19.160  0.00  0.00    +0.000 A 
ATOM      9  N   UNL     1       3.671   2.531  20.156  0.00  0.00    +0.000 NA
ATOM     10  N   UNL     1       3.149   3.783  20.083  0.00  0.00    +0.000 N 
ATOM     11  H   UNL     1       3.701   6.389  18.172  0.00  0.00    +0.000 HD
ENDROOT
BRANCH   4  12
ATOM     12  C   UNL     1       1.902   7.784  19.500  0.00  0.00    +0.000 A 
ATOM     13  C   UNL     1       2.057   8.402  18.242  0.00  0.00    +0.000 A 
ATOM     14  C   UNL     1       1.606   9.708  18.015  0.00  0.00    +0.000 A 
ATOM     15  C   UNL     1       1.021  10.429  19.052  0.00  0.00    +0.000 A 
ATOM     16 CL   UNL     1       0.452  12.024  18.764  0.00  0.00    +0.000 Cl
ATOM     17  C   UNL     1       0.897   9.862  20.314  0.00  0.00    +0.000 A 
ATOM     18  C   UNL     1       1.335   8.556  20.527  0.00  0.00    +0.000 A 
ATOM     19  F   UNL     1       1.187   8.042  21.759  0.00  0.00    +0.000 F 
ENDBRANCH   4  12
BRANCH   7  20
ATOM     20  C   UNL     1       5.430   4.080  17.269  0.00  0.00    +0.000 A 
ATOM     21  C   UNL     1       4.882   4.055  15.987  0.00  0.00    +0.000 A 
ATOM     22  C   UNL     1       5.660   4.475  14.911  0.00  0.00    +0.000 A 
ATOM     23  C   UNL     1       6.964   4.892  15.137  0.00  0.00    +0.000 A 
ATOM     24  C   UNL     1       7.442   4.862  16.436  0.00  0.00    +0.000 A 
ATOM     25  N   UNL     1       6.708   4.473  17.504  0.00  0.00    +0.000 NA
ENDBRANCH   7  20
TORSDOF 2
ENDMDL
MODEL 3
REMARK VINA RESULT:      -8.4      3.682      6.729
REMARK  Name = 
REMARK  2 active torsions:
REMARK  status: ('A' for Active; 'I' for Inactive)
REMARK    1  A    between atoms: C_4  and  C_5
REMARK    2  A    between atoms: C_15  and  C_16
REMARK                            x       y       z     vdW  Elec       q    Type
REMARK                         _______ _______ _______ _____ _____    ______ ____
ROOT
ATOM      1  O   UNL     1       3.961   2.199  20.485  0.00  0.00    +0.000 OA
ATOM      2  C   UNL     1       3.944   3.195  19.774  0.00  0.00    +0.000 A 
ATOM      3  C   UNL     1       4.761   3.325  18.540  0.00  0.00    +0.000 A 
ATOM      4  C   UNL     1       4.724   4.462  17.813  0.00  0.00    +0.000 A 
ATOM      5  N   UNL     1       3.917   5.523  18.196  0.00  0.00    +0.000 N 
ATOM      6  C   UNL     1       3.113   5.461  19.290  0.00  0.00    +0.000 A 
ATOM      7  C   UNL     1       2.206   6.316  19.881  0.00  0.00    +0.000 A 
ATOM      8  C   UNL     1       1.748   5.581  21.005  0.00  0.00    +0.000 A 
ATOM      9  N   UNL     1       2.307   4.374  21.123  0.00  0.00    +0.000 NA
ATOM     10  N   UNL     1       3.145   4.312  20.056  0.00  0.00    +0.000 N 
ATOM     11  H   UNL     1       3.851   6.334  17.573  0.00  0.00    +0.000 HD
ENDROOT
BRANCH   4  12
ATOM     12  C   UNL     1       5.531   4.567  16.570  0.00  0.00    +0.000 A 
ATOM     13  C   UNL     1       4.989   4.201  15.321  0.00  0.00    +0.000 A 
ATOM     14  C   UNL     1       5.714   4.375  14.137  0.00  0.00    +0.000 A 
ATOM     15  C   UNL     1       7.006   4.890  14.185  0.00  0.00    +0.000 A 
ATOM     16 CL   UNL     1       7.885   5.121  12.727  0.00  0.00    +0.000 Cl
ATOM     17  C   UNL     1       7.583   5.218  15.405  0.00  0.00    +0.000 A 
ATOM     18  C   UNL     1       6.848   5.054  16.579  0.00  0.00    +0.000 A 
ATOM     19  F   UNL     1       7.438   5.393  17.737  0.00  0.00    +0.000 F 
ENDBRANCH   4  12
BRANCH   7  20
ATOM     20  C   UNL     1       1.875   7.660  19.436  0.00  0.00    +0.000 A 
ATOM     21  C   UNL     1       1.225   8.555  20.286  0.00  0.00    +0.000 A 
ATOM     22  C   UNL     1       0.992   9.857  19.848  0.00  0.00    +0.000 A 
ATOM     23  C   UNL     1       1.396  10.226  18.573  0.00  0.00    +0.000 A 
ATOM     24  C   UNL     1       2.011   9.271  17.781  0.00  0.00    +0.000 A 
ATOM     25  N   UNL     1       2.263   8.004  18.182  0.00  0.00    +0.000 NA
ENDBRANCH   7  20
TORSDOF 2
ENDMDL
MODEL 4
REMARK VINA RESULT:      -8.3      1.605      1.874
REMARK  Name = 
REMARK  2 active torsions:
REMARK  status: ('A' for Active; 'I' for Inactive)
REMARK    1  A    between atoms: C_4  and  C_5
REMARK    2  A    between atoms: C_15  and  C_16
REMARK                            x       y       z     vdW  Elec       q    Type
REMARK                         _______ _______ _______ _____ _____    ______ ____
ROOT
ATOM      1  O   UNL     1       1.636   3.430  21.810  0.00  0.00    +0.000 OA
ATOM      2  C   UNL     1       2.116   4.178  20.968  0.00  0.00    +0.000 A 
ATOM      3  C   UNL     1       1.682   5.587  20.793  0.00  0.00    +0.000 A 
ATOM      4  C   UNL     1       2.226   6.354  19.826  0.00  0.00    +0.000 A 
ATOM      5  N   UNL     1       3.208   5.848  18.986  0.00  0.00    +0.000 N 
ATOM      6  C   UNL     1       3.683   4.581  19.113  0.00  0.00    +0.000 A 
ATOM      7  C   UNL     1       4.646   3.834  18.468  0.00  0.00    +0.000 A 
ATOM      8  C   UNL     1       4.592   2.583  19.135  0.00  0.00    +0.000 A 
ATOM      9  N   UNL     1       3.682   2.533  20.110  0.00  0.00    +0.000 NA
ATOM     10  N   UNL     1       3.130   3.774  20.089  0.00  0.00    +0.000 N 
ATOM     11  H   UNL     1       3.656   6.486  18.322  0.00  0.00    +0.000 HD
ENDROOT
BRANCH   4  12
ATOM     12  C   UNL     1       1.795   7.769  19.677  0.00  0.00    +0.000 A 
ATOM     13  C   UNL     1       1.219   8.467  20.758  0.00  0.00    +0.000 A 
ATOM     14  C   UNL     1       0.887   9.823  20.651  0.00  0.00    +0.000 A 
ATOM     15  C   UNL     1       1.096  10.494  19.449  0.00  0.00    +0.000 A 
ATOM     16 CL   UNL     1       0.705  12.163  19.327  0.00  0.00    +0.000 Cl
ATOM     17  C   UNL     1       1.620   9.820  18.354  0.00  0.00    +0.000 A 
ATOM     18  C   UNL     1       1.961   8.473  18.474  0.00  0.00    +0.000 A 
ATOM     19  F   UNL     1       2.474   7.861  17.395  0.00  0.00    +0.000 F 
ENDBRANCH   4  12
BRANCH   7  20
ATOM     20  C   UNL     1       5.462   4.268  17.345  0.00  0.00    +0.000 A 
ATOM     21  C   UNL     1       5.422   3.589  16.127  0.00  0.00    +0.000 A 
ATOM     22  C   UNL     1       6.161   4.081  15.054  0.00  0.00    +0.000 A 
ATOM     23  C   UNL     1       6.933   5.221  15.226  0.00  0.00    +0.000 A 
ATOM     24  C   UNL     1       6.940   5.821  16.474  0.00  0.00    +0.000 A 
ATOM     25  N   UNL     1       6.223   5.377  17.532  0.00  0.00    +0.000 NA
ENDBRANCH   7  20
TORSDOF 2
ENDMDL
MODEL 5
REMARK VINA RESULT:      -8.2      0.690      1.027
REMARK  Name = 
REMARK  2 active torsions:
REMARK  status: ('A' for Active; 'I' for Inactive)
REMARK    1  A    between atoms: C_4  and  C_5
REMARK    2  A    between atoms: C_15  and  C_16
REMARK                            x       y       z     vdW  Elec       q    Type
REMARK                         _______ _______ _______ _____ _____    ______ ____
ROOT
ATOM      1  O   UNL     1       0.840   3.296  20.774  0.00  0.00    +0.000 OA
ATOM      2  C   UNL     1       1.491   4.302  20.523  0.00  0.00    +0.000 A 
ATOM      3  C   UNL     1       0.984   5.676  20.766  0.00  0.00    +0.000 A 
ATOM      4  C   UNL     1       1.736   6.749  20.439  0.00  0.00    +0.000 A 
ATOM      5  N   UNL     1       2.996   6.589  19.882  0.00  0.00    +0.000 N 
ATOM      6  C   UNL     1       3.540   5.363  19.667  0.00  0.00    +0.000 A 
ATOM      7  C   UNL     1       4.745   4.905  19.175  0.00  0.00    +0.000 A 
ATOM      8  C   UNL     1       4.609   3.495  19.234  0.00  0.00    +0.000 A 
ATOM      9  N   UNL     1       3.432   3.088  19.716  0.00  0.00    +0.000 NA
ATOM     10  N   UNL     1       2.783   4.251  19.983  0.00  0.00    +0.000 N 
ATOM     11  H   UNL     1       3.569   7.424  19.728  0.00  0.00    +0.000 HD
ENDROOT
BRANCH   4  12
ATOM     12  C   UNL     1       1.223   8.117  20.709  0.00  0.00    +0.000 A 
ATOM     13  C   UNL     1       0.842   8.504  22.010  0.00  0.00    +0.000 A 
ATOM     14  C   UNL     1       0.436   9.815  22.287  0.00  0.00    +0.000 A 
ATOM     15  C   UNL     1       0.376  10.753  21.260  0.00  0.00    +0.000 A 
ATOM     16 CL   UNL     1      -0.103  12.366  21.608  0.00  0.00    +0.000 Cl
ATOM     17  C   UNL     1       0.703  10.389  19.961  0.00  0.00    +0.000 A 
ATOM     18  C   UNL     1       1.120   9.084  19.696  0.00  0.00    +0.000 A 
ATOM     19  F   UNL     1       1.437   8.775  18.429  0.00  0.00    +0.000 F 
ENDBRANCH   4  12
BRANCH   7  20
ATOM     20  C   UNL     1       5.841   5.725  18.684  0.00  0.00    +0.000 A 
ATOM     21  C   UNL     1       7.104   5.657  19.272  0.00  0.00    +0.000 A 
ATOM     22  C   UNL     1       8.146   6.403  18.724  0.00  0.00    +0.000 A 
ATOM     23  C   UNL     1       7.899   7.207  17.620  0.00  0.00    +0.000 A 
ATOM     24  C   UNL     1       6.611   7.239  17.112  0.00  0.00    +0.000 A 
ATOM     25  N   UNL     1       5.582   6.517  17.612  0.00  0.00    +0.000 NA
ENDBRANCH   7  20
TORSDOF 2
ENDMDL
MODEL 6
REMARK VINA RESULT:      -7.6      5.321      7.192
REMARK  Name = 
REMARK  2 active torsions:
REMARK  status: ('A' for Active; 'I' for Inactive)
REMARK    1  A    between atoms: C_4  and  C_5
REMARK    2  A    between atoms: C_15  and  C_16
REMARK                            x       y       z     vdW  Elec       q    Type
REMARK                         _______ _______ _______ _____ _____    ______ ____
ROOT
ATOM      1  O   UNL     1       7.834   6.701  16.950  0.00  0.00    +0.000 OA
ATOM      2  C   UNL     1       7.011   5.924  16.483  0.00  0.00    +0.000 A 
ATOM      3  C   UNL     1       5.837   5.433  17.247  0.00  0.00    +0.000 A 
ATOM      4  C   UNL     1       4.980   4.551  16.690  0.00  0.00    +0.000 A 
ATOM      5  N   UNL     1       5.172   4.097  15.393  0.00  0.00    +0.000 N 
ATOM      6  C   UNL     1       6.202   4.534  14.621  0.00  0.00    +0.000 A 
ATOM      7  C   UNL     1       6.617   4.295  13.327  0.00  0.00    +0.000 A 
ATOM      8  C   UNL     1       7.781   5.097  13.204  0.00  0.00    +0.000 A 
ATOM      9  N   UNL     1       8.083   5.780  14.310  0.00  0.00    +0.000 NA
ATOM     10  N   UNL     1       7.098   5.427  15.176  0.00  0.00    +0.000 N 
ATOM     11  H   UNL     1       4.454   3.497  14.976  0.00  0.00    +0.000 HD
ENDROOT
BRANCH   4  12
ATOM     12  C   UNL     1       3.798   4.084  17.460  0.00  0.00    +0.000 A 
ATOM     13  C   UNL     1       3.648   2.726  17.804  0.00  0.00    +0.000 A 
ATOM     14  C   UNL     1       2.580   2.293  18.600  0.00  0.00    +0.000 A 
ATOM     15  C   UNL     1       1.628   3.208  19.039  0.00  0.00    +0.000 A 
ATOM     16 CL   UNL     1       0.330   2.677  20.032  0.00  0.00    +0.000 Cl
ATOM     17  C   UNL     1       1.725   4.545  18.678  0.00  0.00    +0.000 A 
ATOM     18  C   UNL     1       2.800   4.970  17.897  0.00  0.00    +0.000 A 
ATOM     19  F   UNL     1       2.863   6.273  17.578  0.00  0.00    +0.000 F 
ENDBRANCH   4  12
BRANCH   7  20
ATOM     20  C   UNL     1       5.992   3.390  12.376  0.00  0.00    +0.000 A 
ATOM     21  C   UNL     1       6.690   2.294  11.868  0.00  0.00    +0.000 A 
ATOM     22  C   UNL     1       6.031   1.409  11.017  0.00  0.00    +0.000 A 
ATOM     23  C   UNL     1       4.706   1.646  10.683  0.00  0.00    +0.000 A 
ATOM     24  C   UNL     1       4.092   2.771  11.209  0.00  0.00    +0.000 A 
ATOM     25  N   UNL     1       4.700   3.642  12.047  0.00  0.00    +0.000 NA
ENDBRANCH   7  20
TORSDOF 2
ENDMDL
MODEL 7
REMARK VINA RESULT:      -7.5      0.997      1.400
REMARK  Name = 
REMARK  2 active torsions:
REMARK  status: ('A' for Active; 'I' for Inactive)
REMARK    1  A    between atoms: C_4  and  C_5
REMARK    2  A    between atoms: C_15  and  C_16
REMARK                            x       y       z     vdW  Elec       q    Type
REMARK                         _______ _______ _______ _____ _____    ______ ____
ROOT
ATOM      1  O   UNL     1       0.663   3.575  20.667  0.00  0.00    +0.000 OA
ATOM      2  C   UNL     1       1.400   4.514  20.396  0.00  0.00    +0.000 A 
ATOM      3  C   UNL     1       0.966   5.932  20.470  0.00  0.00    +0.000 A 
ATOM      4  C   UNL     1       1.815   6.924  20.128  0.00  0.00    +0.000 A 
ATOM      5  N   UNL     1       3.108   6.641  19.714  0.00  0.00    +0.000 N 
ATOM      6  C   UNL     1       3.586   5.370  19.659  0.00  0.00    +0.000 A 
ATOM      7  C   UNL     1       4.798   4.800  19.330  0.00  0.00    +0.000 A 
ATOM      8  C   UNL     1       4.563   3.411  19.496  0.00  0.00    +0.000 A 
ATOM      9  N   UNL     1       3.322   3.120  19.892  0.00  0.00    +0.000 NA
ATOM     10  N   UNL     1       2.730   4.338  19.992  0.00  0.00    +0.000 N 
ATOM     11  H   UNL     1       3.748   7.424  19.546  0.00  0.00    +0.000 HD
ENDROOT
BRANCH   4  12
ATOM     12  C   UNL     1       1.372   8.339  20.228  0.00  0.00    +0.000 A 
ATOM     13  C   UNL     1       1.167   9.117  19.071  0.00  0.00    +0.000 A 
ATOM     14  C   UNL     1       0.671  10.424  19.154  0.00  0.00    +0.000 A 
ATOM     15  C   UNL     1       0.401  10.984  20.399  0.00  0.00    +0.000 A 
ATOM     16 CL   UNL     1      -0.226  12.581  20.496  0.00  0.00    +0.000 Cl
ATOM     17  C   UNL     1       0.636  10.258  21.558  0.00  0.00    +0.000 A 
ATOM     18  C   UNL     1       1.117   8.952  21.466  0.00  0.00    +0.000 A 
ATOM     19  F   UNL     1       1.321   8.279  22.610  0.00  0.00    +0.000 F 
ENDBRANCH   4  12
BRANCH   7  20
ATOM     20  C   UNL     1       5.988   5.506  18.881  0.00  0.00    +0.000 A 
ATOM     21  C   UNL     1       5.982   6.231  17.689  0.00  0.00    +0.000 A 
ATOM     22  C   UNL     1       7.118   6.954  17.332  0.00  0.00    +0.000 A 
ATOM     23  C   UNL     1       8.231   6.924  18.160  0.00  0.00    +0.000 A 
ATOM     24  C   UNL     1       8.165   6.160  19.313  0.00  0.00    +0.000 A 
ATOM     25  N   UNL     1       7.074   5.457  19.694  0.00  0.00    +0.000 NA
ENDBRANCH   7  20
TORSDOF 2
ENDMDL
MODEL 8
REMARK VINA RESULT:      -7.3      3.624      6.697
REMARK  Name = 
REMARK  2 active torsions:
REMARK  status: ('A' for Active; 'I' for Inactive)
REMARK    1  A    between atoms: C_4  and  C_5
REMARK    2  A    between atoms: C_15  and  C_16
REMARK                            x       y       z     vdW  Elec       q    Type
REMARK                         _______ _______ _______ _____ _____    ______ ____
ROOT
ATOM      1  O   UNL     1       4.057   2.325  20.423  0.00  0.00    +0.000 OA
ATOM      2  C   UNL     1       4.006   3.340  19.740  0.00  0.00    +0.000 A 
ATOM      3  C   UNL     1       4.808   3.525  18.504  0.00  0.00    +0.000 A 
ATOM      4  C   UNL     1       4.734   4.680  17.809  0.00  0.00    +0.000 A 
ATOM      5  N   UNL     1       3.901   5.708  18.227  0.00  0.00    +0.000 N 
ATOM      6  C   UNL     1       3.110   5.594  19.325  0.00  0.00    +0.000 A 
ATOM      7  C   UNL     1       2.185   6.407  19.947  0.00  0.00    +0.000 A 
ATOM      8  C   UNL     1       1.756   5.630  21.053  0.00  0.00    +0.000 A 
ATOM      9  N   UNL     1       2.349   4.436  21.134  0.00  0.00    +0.000 NA
ATOM     10  N   UNL     1       3.179   4.426  20.059  0.00  0.00    +0.000 N 
ATOM     11  H   UNL     1       3.808   6.533  17.627  0.00  0.00    +0.000 HD
ENDROOT
BRANCH   4  12
ATOM     12  C   UNL     1       5.527   4.841  16.562  0.00  0.00    +0.000 A 
ATOM     13  C   UNL     1       6.751   5.540  16.569  0.00  0.00    +0.000 A 
ATOM     14  C   UNL     1       7.543   5.625  15.418  0.00  0.00    +0.000 A 
ATOM     15  C   UNL     1       7.108   5.039  14.233  0.00  0.00    +0.000 A 
ATOM     16 CL   UNL     1       8.092   5.129  12.827  0.00  0.00    +0.000 Cl
ATOM     17  C   UNL     1       5.885   4.383  14.185  0.00  0.00    +0.000 A 
ATOM     18  C   UNL     1       5.109   4.291  15.340  0.00  0.00    +0.000 A 
ATOM     19  F   UNL     1       3.938   3.639  15.255  0.00  0.00    +0.000 F 
ENDBRANCH   4  12
BRANCH   7  20
ATOM     20  C   UNL     1       1.813   7.753  19.541  0.00  0.00    +0.000 A 
ATOM     21  C   UNL     1       1.182   8.620  20.433  0.00  0.00    +0.000 A 
ATOM     22  C   UNL     1       0.910   9.926  20.030  0.00  0.00    +0.000 A 
ATOM     23  C   UNL     1       1.256  10.326  18.747  0.00  0.00    +0.000 A 
ATOM     24  C   UNL     1       1.856   9.398  17.913  0.00  0.00    +0.000 A 
ATOM     25  N   UNL     1       2.145   8.128  18.279  0.00  0.00    +0.000 NA
ENDBRANCH   7  20
TORSDOF 2
ENDMDL
MODEL 9
REMARK VINA RESULT:      -7.3      4.924      8.352
REMARK  Name = 
REMARK  2 active torsions:
REMARK  status: ('A' for Active; 'I' for Inactive)
REMARK    1  A    between atoms: C_4  and  C_5
REMARK    2  A    between atoms: C_15  and  C_16
REMARK                            x       y       z     vdW  Elec       q    Type
REMARK                         _______ _______ _______ _____ _____    ______ ____
ROOT
ATOM      1  O   UNL     1       0.174  11.953  22.530  0.00  0.00    +0.000 OA
ATOM      2  C   UNL     1       0.025  11.330  21.487  0.00  0.00    +0.000 A 
ATOM      3  C   UNL     1       0.924  10.225  21.068  0.00  0.00    +0.000 A 
ATOM      4  C   UNL     1       0.728   9.595  19.891  0.00  0.00    +0.000 A 
ATOM      5  N   UNL     1      -0.320   9.957  19.057  0.00  0.00    +0.000 N 
ATOM      6  C   UNL     1      -1.206  10.932  19.393  0.00  0.00    +0.000 A 
ATOM      7  C   UNL     1      -2.330  11.470  18.803  0.00  0.00    +0.000 A 
ATOM      8  C   UNL     1      -2.742  12.463  19.729  0.00  0.00    +0.000 A 
ATOM      9  N   UNL     1      -1.959  12.552  20.807  0.00  0.00    +0.000 NA
ATOM     10  N   UNL     1      -1.016  11.599  20.588  0.00  0.00    +0.000 N 
ATOM     11  H   UNL     1      -0.487   9.399  18.215  0.00  0.00    +0.000 HD
ENDROOT
BRANCH   4  12
ATOM     12  C   UNL     1       1.624   8.477  19.496  0.00  0.00    +0.000 A 
ATOM     13  C   UNL     1       1.808   7.363  20.340  0.00  0.00    +0.000 A 
ATOM     14  C   UNL     1       2.585   6.270  19.940  0.00  0.00    +0.000 A 
ATOM     15  C   UNL     1       3.215   6.286  18.699  0.00  0.00    +0.000 A 
ATOM     16 CL   UNL     1       4.152   4.933  18.202  0.00  0.00    +0.000 Cl
ATOM     17  C   UNL     1       3.089   7.389  17.865  0.00  0.00    +0.000 A 
ATOM     18  C   UNL     1       2.302   8.468  18.266  0.00  0.00    +0.000 A 
ATOM     19  F   UNL     1       2.197   9.510  17.426  0.00  0.00    +0.000 F 
ENDBRANCH   4  12
BRANCH   7  20
ATOM     20  C   UNL     1      -2.886  11.098  17.512  0.00  0.00    +0.000 A 
ATOM     21  C   UNL     1      -4.149  11.544  17.123  0.00  0.00    +0.000 A 
ATOM     22  C   UNL     1      -4.615  11.227  15.848  0.00  0.00    +0.000 A 
ATOM     23  C   UNL     1      -3.820  10.464  15.005  0.00  0.00    +0.000 A 
ATOM     24  C   UNL     1      -2.590  10.038  15.476  0.00  0.00    +0.000 A 
ATOM     25  N   UNL     1      -2.104  10.340  16.703  0.00  0.00    +0.000 NA
ENDBRANCH   7  20
TORSDOF 2
ENDMDL
