MODEL 1
REMARK VINA RESULT:      -7.1      0.000      0.000
REMARK  Name = 
REMARK  3 active torsions:
REMARK  status: ('A' for Active; 'I' for Inactive)
REMARK    1  A    between atoms: C_1  and  C_2
REMARK    2  A    between atoms: C_10  and  C_11
REMARK    3  A    between atoms: C_16  and  C_17
REMARK                            x       y       z     vdW  Elec       q    Type
REMARK                         _______ _______ _______ _____ _____    ______ ____
ROOT
ATOM      1  C   UNL     1      -1.412  11.163  23.500  0.00  0.00    +0.000 C 
ATOM      2  C   UNL     1      -0.679  11.283  22.224  0.00  0.00    +0.000 C 
ATOM      3  N   UNL     1      -0.374  12.311  21.531  0.00  0.00    +0.000 NA
ATOM      4  C   UNL     1       0.692  11.882  20.423  0.00  0.00    +0.000 C 
ATOM      5  N   UNL     1       1.104  10.666  21.202  0.00  0.00    +0.000 NA
ATOM      6  C   UNL     1       0.005  10.157  21.637  0.00  0.00    +0.000 C 
ATOM      7  N   UNL     1      -0.563   8.916  21.512  0.00  0.00    +0.000 N 
ATOM      8  C   UNL     1       0.569  11.081  19.073  0.00  0.00    +0.000 A 
ATOM      9  C   UNL     1       1.633  10.167  18.803  0.00  0.00    +0.000 A 
ATOM     10  C   UNL     1       1.405   8.970  18.124  0.00  0.00    +0.000 A 
ATOM     11  C   UNL     1       0.212   8.900  17.396  0.00  0.00    +0.000 A 
ATOM     12  C   UNL     1      -0.706   9.967  17.390  0.00  0.00    +0.000 A 
ATOM     13  C   UNL     1      -0.545  11.061  18.246  0.00  0.00    +0.000 A 
ATOM     14  C   UNL     1      -1.452  12.250  18.169  0.00  0.00    +0.000 C 
ATOM     15  C   UNL     1      -1.300  13.186  19.362  0.00  0.00    +0.000 C 
ATOM     16  C   UNL     1       0.181  13.239  19.878  0.00  0.00    +0.000 C 
ATOM     17  C   UNL     1       0.699  14.579  20.387  0.00  0.00    +0.000 C 
ATOM     18  C   UNL     1       1.101  14.111  19.026  0.00  0.00    +0.000 C 
ATOM     19  H   UNL     1      -0.345   8.514  20.600  0.00  0.00    +0.000 HD
ATOM     20  H   UNL     1      -1.578   8.914  21.620  0.00  0.00    +0.000 HD
ENDROOT
BRANCH  10  21
ATOM     21  C   UNL     1       2.306   7.809  18.328  0.00  0.00    +0.000 A 
ATOM     22  C   UNL     1       2.098   6.864  19.341  0.00  0.00    +0.000 A 
ATOM     23  C   UNL     1       2.997   5.813  19.559  0.00  0.00    +0.000 A 
ATOM     24 CL   UNL     1       2.711   4.705  20.837  0.00  0.00    +0.000 Cl
ATOM     25  C   UNL     1       4.131   5.665  18.760  0.00  0.00    +0.000 A 
ATOM     26  C   UNL     1       4.387   6.579  17.742  0.00  0.00    +0.000 A 
ATOM     27  C   UNL     1       3.482   7.646  17.543  0.00  0.00    +0.000 A 
BRANCH  26  28
ATOM     28  C   UNL     1       5.546   6.450  16.921  0.00  0.00    +0.000 C 
ATOM     29  N   UNL     1       6.509   6.365  16.257  0.00  0.00    +0.000 NA
ENDBRANCH  26  28
ENDBRANCH  10  21
TORSDOF 2
ENDMDL
MODEL 2
REMARK VINA RESULT:      -7.1      4.193      6.799
REMARK  Name = 
REMARK  3 active torsions:
REMARK  status: ('A' for Active; 'I' for Inactive)
REMARK    1  A    between atoms: C_1  and  C_2
REMARK    2  A    between atoms: C_10  and  C_11
REMARK    3  A    between atoms: C_16  and  C_17
REMARK                            x       y       z     vdW  Elec       q    Type
REMARK                         _______ _______ _______ _____ _____    ______ ____
ROOT
ATOM      1  C   UNL     1      -2.431   9.945  17.739  0.00  0.00    +0.000 C 
ATOM      2  C   UNL     1      -1.363  10.384  18.660  0.00  0.00    +0.000 C 
ATOM      3  N   UNL     1      -0.814   9.785  19.645  0.00  0.00    +0.000 NA
ATOM      4  C   UNL     1       0.492  10.598  20.073  0.00  0.00    +0.000 C 
ATOM      5  N   UNL     1       0.594  11.261  18.729  0.00  0.00    +0.000 NA
ATOM      6  C   UNL     1      -0.612  11.592  18.425  0.00  0.00    +0.000 C 
ATOM      7  N   UNL     1      -1.197  12.787  18.093  0.00  0.00    +0.000 N 
ATOM      8  C   UNL     1       0.704  11.951  20.851  0.00  0.00    +0.000 A 
ATOM      9  C   UNL     1       1.743  12.792  20.348  0.00  0.00    +0.000 A 
ATOM     10  C   UNL     1       1.643  14.182  20.407  0.00  0.00    +0.000 A 
ATOM     11  C   UNL     1       0.700  14.686  21.309  0.00  0.00    +0.000 A 
ATOM     12  C   UNL     1      -0.113  13.830  22.075  0.00  0.00    +0.000 A 
ATOM     13  C   UNL     1      -0.132  12.452  21.838  0.00  0.00    +0.000 A 
ATOM     14  C   UNL     1      -0.907  11.521  22.719  0.00  0.00    +0.000 C 
ATOM     15  C   UNL     1      -1.039  10.123  22.128  0.00  0.00    +0.000 C 
ATOM     16  C   UNL     1       0.238   9.709  21.315  0.00  0.00    +0.000 C 
ATOM     17  C   UNL     1       0.674   8.250  21.388  0.00  0.00    +0.000 C 
ATOM     18  C   UNL     1       1.412   9.272  22.190  0.00  0.00    +0.000 C 
ATOM     19  H   UNL     1      -0.756  13.553  18.603  0.00  0.00    +0.000 HD
ATOM     20  H   UNL     1      -2.200  12.821  18.282  0.00  0.00    +0.000 HD
ENDROOT
BRANCH  10  21
ATOM     21  C   UNL     1       2.377  15.028  19.434  0.00  0.00    +0.000 A 
ATOM     22  C   UNL     1       1.763  16.071  18.730  0.00  0.00    +0.000 A 
ATOM     23  C   UNL     1       2.457  16.815  17.768  0.00  0.00    +0.000 A 
ATOM     24 CL   UNL     1       1.646  18.059  16.910  0.00  0.00    +0.000 Cl
ATOM     25  C   UNL     1       3.798  16.546  17.487  0.00  0.00    +0.000 A 
ATOM     26  C   UNL     1       4.455  15.517  18.157  0.00  0.00    +0.000 A 
ATOM     27  C   UNL     1       3.738  14.762  19.113  0.00  0.00    +0.000 A 
BRANCH  26  28
ATOM     28  C   UNL     1       5.821  15.221  17.876  0.00  0.00    +0.000 C 
ATOM     29  N   UNL     1       6.939  14.953  17.645  0.00  0.00    +0.000 NA
ENDBRANCH  26  28
ENDBRANCH  10  21
TORSDOF 2
ENDMDL
MODEL 3
REMARK VINA RESULT:      -7.1      1.738      2.184
REMARK  Name = 
REMARK  3 active torsions:
REMARK  status: ('A' for Active; 'I' for Inactive)
REMARK    1  A    between atoms: C_1  and  C_2
REMARK    2  A    between atoms: C_10  and  C_11
REMARK    3  A    between atoms: C_16  and  C_17
REMARK                            x       y       z     vdW  Elec       q    Type
REMARK                         _______ _______ _______ _____ _____    ______ ____
ROOT
ATOM      1  C   UNL     1      -1.499  11.172  23.487  0.00  0.00    +0.000 C 
ATOM      2  C   UNL     1      -0.727  11.279  22.232  0.00  0.00    +0.000 C 
ATOM      3  N   UNL     1      -0.393  12.301  21.544  0.00  0.00    +0.000 NA
ATOM      4  C   UNL     1       0.701  11.857  20.470  0.00  0.00    +0.000 C 
ATOM      5  N   UNL     1       1.080  10.641  21.267  0.00  0.00    +0.000 NA
ATOM      6  C   UNL     1      -0.036  10.144  21.672  0.00  0.00    +0.000 C 
ATOM      7  N   UNL     1      -0.610   8.907  21.536  0.00  0.00    +0.000 N 
ATOM      8  C   UNL     1       0.612  11.049  19.121  0.00  0.00    +0.000 A 
ATOM      9  C   UNL     1       1.675  10.125  18.887  0.00  0.00    +0.000 A 
ATOM     10  C   UNL     1       1.458   8.926  18.208  0.00  0.00    +0.000 A 
ATOM     11  C   UNL     1       0.287   8.863  17.445  0.00  0.00    +0.000 A 
ATOM     12  C   UNL     1      -0.622   9.937  17.407  0.00  0.00    +0.000 A 
ATOM     13  C   UNL     1      -0.477  11.034  18.261  0.00  0.00    +0.000 A 
ATOM     14  C   UNL     1      -1.372  12.230  18.152  0.00  0.00    +0.000 C 
ATOM     15  C   UNL     1      -1.248  13.171  19.343  0.00  0.00    +0.000 C 
ATOM     16  C   UNL     1       0.218  13.215  19.903  0.00  0.00    +0.000 C 
ATOM     17  C   UNL     1       0.732  14.554  20.420  0.00  0.00    +0.000 C 
ATOM     18  C   UNL     1       1.170  14.075  19.074  0.00  0.00    +0.000 C 
ATOM     19  H   UNL     1      -0.368   8.499  20.633  0.00  0.00    +0.000 HD
ATOM     20  H   UNL     1      -1.628   8.914  21.614  0.00  0.00    +0.000 HD
ENDROOT
BRANCH  10  21
ATOM     21  C   UNL     1       2.343   7.759  18.445  0.00  0.00    +0.000 A 
ATOM     22  C   UNL     1       3.462   7.489  17.648  0.00  0.00    +0.000 A 
ATOM     23  C   UNL     1       4.246   6.346  17.847  0.00  0.00    +0.000 A 
ATOM     24 CL   UNL     1       5.585   6.046  16.818  0.00  0.00    +0.000 Cl
ATOM     25  C   UNL     1       3.942   5.439  18.864  0.00  0.00    +0.000 A 
ATOM     26  C   UNL     1       2.837   5.659  19.683  0.00  0.00    +0.000 A 
ATOM     27  C   UNL     1       2.044   6.807  19.460  0.00  0.00    +0.000 A 
BRANCH  26  28
ATOM     28  C   UNL     1       2.505   4.739  20.720  0.00  0.00    +0.000 C 
ATOM     29  N   UNL     1       2.208   3.993  21.575  0.00  0.00    +0.000 NA
ENDBRANCH  26  28
ENDBRANCH  10  21
TORSDOF 2
ENDMDL
MODEL 4
REMARK VINA RESULT:      -7.0      1.838      2.794
REMARK  Name = 
REMARK  3 active torsions:
REMARK  status: ('A' for Active; 'I' for Inactive)
REMARK    1  A    between atoms: C_1  and  C_2
REMARK    2  A    between atoms: C_10  and  C_11
REMARK    3  A    between atoms: C_16  and  C_17
REMARK                            x       y       z     vdW  Elec       q    Type
REMARK                         _______ _______ _______ _____ _____    ______ ____
ROOT
ATOM      1  C   UNL     1      -4.232  11.229  17.382  0.00  0.00    +0.000 C 
ATOM      2  C   UNL     1      -3.003  11.298  18.198  0.00  0.00    +0.000 C 
ATOM      3  N   UNL     1      -2.724  12.001  19.226  0.00  0.00    +0.000 NA
ATOM      4  C   UNL     1      -1.382  11.436  19.882  0.00  0.00    +0.000 C 
ATOM      5  N   UNL     1      -1.554  10.095  19.226  0.00  0.00    +0.000 NA
ATOM      6  C   UNL     1      -1.926  10.356  18.022  0.00  0.00    +0.000 C 
ATOM      7  N   UNL     1      -1.422  10.012  16.794  0.00  0.00    +0.000 N 
ATOM      8  C   UNL     1       0.135  11.538  19.471  0.00  0.00    +0.000 A 
ATOM      9  C   UNL     1       0.902  10.348  19.660  0.00  0.00    +0.000 A 
ATOM     10  C   UNL     1       1.946  10.015  18.797  0.00  0.00    +0.000 A 
ATOM     11  C   UNL     1       2.446  11.061  18.013  0.00  0.00    +0.000 A 
ATOM     12  C   UNL     1       1.893  12.354  18.078  0.00  0.00    +0.000 A 
ATOM     13  C   UNL     1       0.717  12.599  18.794  0.00  0.00    +0.000 A 
ATOM     14  C   UNL     1       0.183  13.988  18.961  0.00  0.00    +0.000 C 
ATOM     15  C   UNL     1      -1.239  14.012  19.509  0.00  0.00    +0.000 C 
ATOM     16  C   UNL     1      -1.494  12.841  20.523  0.00  0.00    +0.000 C 
ATOM     17  C   UNL     1      -2.392  13.133  21.720  0.00  0.00    +0.000 C 
ATOM     18  C   UNL     1      -0.912  13.091  21.913  0.00  0.00    +0.000 C 
ATOM     19  H   UNL     1      -0.403   9.964  16.828  0.00  0.00    +0.000 HD
ATOM     20  H   UNL     1      -1.680  10.659  16.047  0.00  0.00    +0.000 HD
ENDROOT
BRANCH  10  21
ATOM     21  C   UNL     1       2.353   8.598  18.624  0.00  0.00    +0.000 A 
ATOM     22  C   UNL     1       1.896   7.576  19.465  0.00  0.00    +0.000 A 
ATOM     23  C   UNL     1       2.343   6.257  19.326  0.00  0.00    +0.000 A 
ATOM     24 CL   UNL     1       1.777   5.051  20.407  0.00  0.00    +0.000 Cl
ATOM     25  C   UNL     1       3.255   5.913  18.328  0.00  0.00    +0.000 A 
ATOM     26  C   UNL     1       3.744   6.892  17.466  0.00  0.00    +0.000 A 
ATOM     27  C   UNL     1       3.298   8.223  17.628  0.00  0.00    +0.000 A 
BRANCH  26  28
ATOM     28  C   UNL     1       4.684   6.562  16.446  0.00  0.00    +0.000 C 
ATOM     29  N   UNL     1       5.475   6.304  15.620  0.00  0.00    +0.000 NA
ENDBRANCH  26  28
ENDBRANCH  10  21
TORSDOF 2
ENDMDL
MODEL 5
REMARK VINA RESULT:      -6.9      3.959      7.224
REMARK  Name = 
REMARK  3 active torsions:
REMARK  status: ('A' for Active; 'I' for Inactive)
REMARK    1  A    between atoms: C_1  and  C_2
REMARK    2  A    between atoms: C_10  and  C_11
REMARK    3  A    between atoms: C_16  and  C_17
REMARK                            x       y       z     vdW  Elec       q    Type
REMARK                         _______ _______ _______ _____ _____    ______ ____
ROOT
ATOM      1  C   UNL     1      -2.453  10.016  17.770  0.00  0.00    +0.000 C 
ATOM      2  C   UNL     1      -1.380  10.451  18.686  0.00  0.00    +0.000 C 
ATOM      3  N   UNL     1      -0.810   9.841  19.652  0.00  0.00    +0.000 NA
ATOM      4  C   UNL     1       0.489  10.664  20.080  0.00  0.00    +0.000 C 
ATOM      5  N   UNL     1       0.565  11.356  18.748  0.00  0.00    +0.000 NA
ATOM      6  C   UNL     1      -0.650  11.675  18.467  0.00  0.00    +0.000 C 
ATOM      7  N   UNL     1      -1.256  12.868  18.166  0.00  0.00    +0.000 N 
ATOM      8  C   UNL     1       0.691  12.004  20.883  0.00  0.00    +0.000 A 
ATOM      9  C   UNL     1       1.711  12.870  20.384  0.00  0.00    +0.000 A 
ATOM     10  C   UNL     1       1.592  14.257  20.472  0.00  0.00    +0.000 A 
ATOM     11  C   UNL     1       0.654  14.729  21.396  0.00  0.00    +0.000 A 
ATOM     12  C   UNL     1      -0.137  13.846  22.155  0.00  0.00    +0.000 A 
ATOM     13  C   UNL     1      -0.139  12.473  21.890  0.00  0.00    +0.000 A 
ATOM     14  C   UNL     1      -0.890  11.513  22.761  0.00  0.00    +0.000 C 
ATOM     15  C   UNL     1      -1.009  10.125  22.144  0.00  0.00    +0.000 C 
ATOM     16  C   UNL     1       0.264   9.747  21.307  0.00  0.00    +0.000 C 
ATOM     17  C   UNL     1       0.721   8.293  21.344  0.00  0.00    +0.000 C 
ATOM     18  C   UNL     1       1.455   9.309  22.158  0.00  0.00    +0.000 C 
ATOM     19  H   UNL     1      -0.820  13.629  18.686  0.00  0.00    +0.000 HD
ATOM     20  H   UNL     1      -2.257  12.883  18.368  0.00  0.00    +0.000 HD
ENDROOT
BRANCH  10  21
ATOM     21  C   UNL     1       2.302  15.133  19.507  0.00  0.00    +0.000 A 
ATOM     22  C   UNL     1       3.697  15.137  19.380  0.00  0.00    +0.000 A 
ATOM     23  C   UNL     1       4.351  16.019  18.512  0.00  0.00    +0.000 A 
ATOM     24 CL   UNL     1       6.065  16.005  18.422  0.00  0.00    +0.000 Cl
ATOM     25  C   UNL     1       3.628  16.920  17.730  0.00  0.00    +0.000 A 
ATOM     26  C   UNL     1       2.239  16.960  17.821  0.00  0.00    +0.000 A 
ATOM     27  C   UNL     1       1.592  16.077  18.714  0.00  0.00    +0.000 A 
BRANCH  26  28
ATOM     28  C   UNL     1       1.484  17.881  17.037  0.00  0.00    +0.000 C 
ATOM     29  N   UNL     1       0.841  18.628  16.401  0.00  0.00    +0.000 NA
ENDBRANCH  26  28
ENDBRANCH  10  21
TORSDOF 2
ENDMDL
MODEL 6
REMARK VINA RESULT:      -6.7      2.512      4.155
REMARK  Name = 
REMARK  3 active torsions:
REMARK  status: ('A' for Active; 'I' for Inactive)
REMARK    1  A    between atoms: C_1  and  C_2
REMARK    2  A    between atoms: C_10  and  C_11
REMARK    3  A    between atoms: C_16  and  C_17
REMARK                            x       y       z     vdW  Elec       q    Type
REMARK                         _______ _______ _______ _____ _____    ______ ____
ROOT
ATOM      1  C   UNL     1       0.888  15.323  19.778  0.00  0.00    +0.000 C 
ATOM      2  C   UNL     1       0.113  14.096  20.047  0.00  0.00    +0.000 C 
ATOM      3  N   UNL     1      -1.145  13.916  20.174  0.00  0.00    +0.000 NA
ATOM      4  C   UNL     1      -1.443  12.348  20.135  0.00  0.00    +0.000 C 
ATOM      5  N   UNL     1      -0.148  12.058  19.429  0.00  0.00    +0.000 NA
ATOM      6  C   UNL     1       0.728  12.792  20.020  0.00  0.00    +0.000 C 
ATOM      7  N   UNL     1       1.916  12.509  20.643  0.00  0.00    +0.000 N 
ATOM      8  C   UNL     1      -1.229  11.191  21.182  0.00  0.00    +0.000 A 
ATOM      9  C   UNL     1      -0.766   9.953  20.642  0.00  0.00    +0.000 A 
ATOM     10  C   UNL     1       0.086   9.119  21.366  0.00  0.00    +0.000 A 
ATOM     11  C   UNL     1       0.138   9.352  22.745  0.00  0.00    +0.000 A 
ATOM     12  C   UNL     1      -0.603  10.390  23.342  0.00  0.00    +0.000 A 
ATOM     13  C   UNL     1      -1.279  11.333  22.561  0.00  0.00    +0.000 A 
ATOM     14  C   UNL     1      -2.159  12.372  23.184  0.00  0.00    +0.000 C 
ATOM     15  C   UNL     1      -2.561  13.469  22.205  0.00  0.00    +0.000 C 
ATOM     16  C   UNL     1      -2.747  12.914  20.749  0.00  0.00    +0.000 C 
ATOM     17  C   UNL     1      -3.861  13.520  19.904  0.00  0.00    +0.000 C 
ATOM     18  C   UNL     1      -4.070  12.181  20.532  0.00  0.00    +0.000 C 
ATOM     19  H   UNL     1       1.866  11.604  21.111  0.00  0.00    +0.000 HD
ATOM     20  H   UNL     1       2.193  13.205  21.337  0.00  0.00    +0.000 HD
ENDROOT
BRANCH  10  21
ATOM     21  C   UNL     1       0.993   8.180  20.662  0.00  0.00    +0.000 A 
ATOM     22  C   UNL     1       1.648   8.517  19.471  0.00  0.00    +0.000 A 
ATOM     23  C   UNL     1       2.447   7.592  18.787  0.00  0.00    +0.000 A 
ATOM     24 CL   UNL     1       3.198   8.048  17.313  0.00  0.00    +0.000 Cl
ATOM     25  C   UNL     1       2.628   6.300  19.281  0.00  0.00    +0.000 A 
ATOM     26  C   UNL     1       1.997   5.913  20.460  0.00  0.00    +0.000 A 
ATOM     27  C   UNL     1       1.179   6.849  21.132  0.00  0.00    +0.000 A 
BRANCH  26  28
ATOM     28  C   UNL     1       2.162   4.594  20.976  0.00  0.00    +0.000 C 
ATOM     29  N   UNL     1       2.272   3.507  21.402  0.00  0.00    +0.000 NA
ENDBRANCH  26  28
ENDBRANCH  10  21
TORSDOF 2
ENDMDL
MODEL 7
REMARK VINA RESULT:      -6.6      3.589      5.843
REMARK  Name = 
REMARK  3 active torsions:
REMARK  status: ('A' for Active; 'I' for Inactive)
REMARK    1  A    between atoms: C_1  and  C_2
REMARK    2  A    between atoms: C_10  and  C_11
REMARK    3  A    between atoms: C_16  and  C_17
REMARK                            x       y       z     vdW  Elec       q    Type
REMARK                         _______ _______ _______ _____ _____    ______ ____
ROOT
ATOM      1  C   UNL     1      -2.382  17.504  22.820  0.00  0.00    +0.000 C 
ATOM      2  C   UNL     1      -2.660  16.122  22.381  0.00  0.00    +0.000 C 
ATOM      3  N   UNL     1      -3.754  15.465  22.337  0.00  0.00    +0.000 NA
ATOM      4  C   UNL     1      -3.519  14.138  21.481  0.00  0.00    +0.000 C 
ATOM      5  N   UNL     1      -2.321  14.724  20.788  0.00  0.00    +0.000 NA
ATOM      6  C   UNL     1      -1.659  15.326  21.714  0.00  0.00    +0.000 C 
ATOM      7  N   UNL     1      -0.367  15.219  22.157  0.00  0.00    +0.000 N 
ATOM      8  C   UNL     1      -2.783  12.780  21.790  0.00  0.00    +0.000 A 
ATOM      9  C   UNL     1      -2.021  12.236  20.711  0.00  0.00    +0.000 A 
ATOM     10  C   UNL     1      -0.844  11.524  20.941  0.00  0.00    +0.000 A 
ATOM     11  C   UNL     1      -0.670  11.042  22.243  0.00  0.00    +0.000 A 
ATOM     12  C   UNL     1      -1.615  11.300  23.254  0.00  0.00    +0.000 A 
ATOM     13  C   UNL     1      -2.672  12.190  23.040  0.00  0.00    +0.000 A 
ATOM     14  C   UNL     1      -3.744  12.386  24.068  0.00  0.00    +0.000 C 
ATOM     15  C   UNL     1      -4.626  13.595  23.777  0.00  0.00    +0.000 C 
ATOM     16  C   UNL     1      -4.831  13.812  22.236  0.00  0.00    +0.000 C 
ATOM     17  C   UNL     1      -6.195  14.311  21.773  0.00  0.00    +0.000 C 
ATOM     18  C   UNL     1      -5.854  12.866  21.610  0.00  0.00    +0.000 C 
ATOM     19  H   UNL     1      -0.045  14.253  22.088  0.00  0.00    +0.000 HD
ATOM     20  H   UNL     1      -0.236  15.524  23.123  0.00  0.00    +0.000 HD
ENDROOT
BRANCH  10  21
ATOM     21  C   UNL     1       0.208  11.456  19.897  0.00  0.00    +0.000 A 
ATOM     22  C   UNL     1       0.572  10.257  19.273  0.00  0.00    +0.000 A 
ATOM     23  C   UNL     1       1.613  10.203  18.338  0.00  0.00    +0.000 A 
ATOM     24 CL   UNL     1       2.041   8.700  17.631  0.00  0.00    +0.000 Cl
ATOM     25  C   UNL     1       2.317  11.355  17.986  0.00  0.00    +0.000 A 
ATOM     26  C   UNL     1       1.997  12.574  18.580  0.00  0.00    +0.000 A 
ATOM     27  C   UNL     1       0.956  12.611  19.535  0.00  0.00    +0.000 A 
BRANCH  26  28
ATOM     28  C   UNL     1       2.711  13.760  18.240  0.00  0.00    +0.000 C 
ATOM     29  N   UNL     1       3.279  14.749  17.968  0.00  0.00    +0.000 NA
ENDBRANCH  26  28
ENDBRANCH  10  21
TORSDOF 2
ENDMDL
MODEL 8
REMARK VINA RESULT:      -6.6      4.325      8.026
REMARK  Name = 
REMARK  3 active torsions:
REMARK  status: ('A' for Active; 'I' for Inactive)
REMARK    1  A    between atoms: C_1  and  C_2
REMARK    2  A    between atoms: C_10  and  C_11
REMARK    3  A    between atoms: C_16  and  C_17
REMARK                            x       y       z     vdW  Elec       q    Type
REMARK                         _______ _______ _______ _____ _____    ______ ____
ROOT
ATOM      1  C   UNL     1       1.853  14.284  19.882  0.00  0.00    +0.000 C 
ATOM      2  C   UNL     1       0.880  13.174  19.887  0.00  0.00    +0.000 C 
ATOM      3  N   UNL     1       0.992  11.969  20.294  0.00  0.00    +0.000 NA
ATOM      4  C   UNL     1      -0.463  11.312  20.351  0.00  0.00    +0.000 C 
ATOM      5  N   UNL     1      -1.133  12.655  20.418  0.00  0.00    +0.000 NA
ATOM      6  C   UNL     1      -0.509  13.385  19.561  0.00  0.00    +0.000 C 
ATOM      7  N   UNL     1      -0.924  14.110  18.475  0.00  0.00    +0.000 N 
ATOM      8  C   UNL     1      -1.443  10.784  19.237  0.00  0.00    +0.000 A 
ATOM      9  C   UNL     1      -2.824  11.082  19.444  0.00  0.00    +0.000 A 
ATOM     10  C   UNL     1      -3.681  11.328  18.371  0.00  0.00    +0.000 A 
ATOM     11  C   UNL     1      -3.233  10.889  17.121  0.00  0.00    +0.000 A 
ATOM     12  C   UNL     1      -1.976  10.271  16.968  0.00  0.00    +0.000 A 
ATOM     13  C   UNL     1      -1.061  10.232  18.023  0.00  0.00    +0.000 A 
ATOM     14  C   UNL     1       0.231   9.482  17.906  0.00  0.00    +0.000 C 
ATOM     15  C   UNL     1       1.204   9.802  19.034  0.00  0.00    +0.000 C 
ATOM     16  C   UNL     1       0.460  10.069  20.389  0.00  0.00    +0.000 C 
ATOM     17  C   UNL     1       1.133   9.581  21.667  0.00  0.00    +0.000 C 
ATOM     18  C   UNL     1      -0.006   8.799  21.099  0.00  0.00    +0.000 C 
ATOM     19  H   UNL     1      -1.705  13.645  18.013  0.00  0.00    +0.000 HD
ATOM     20  H   UNL     1      -0.193  14.262  17.777  0.00  0.00    +0.000 HD
ENDROOT
BRANCH  10  21
ATOM     21  C   UNL     1      -4.896  12.159  18.558  0.00  0.00    +0.000 A 
ATOM     22  C   UNL     1      -5.546  12.275  19.793  0.00  0.00    +0.000 A 
ATOM     23  C   UNL     1      -6.729  13.011  19.932  0.00  0.00    +0.000 A 
ATOM     24 CL   UNL     1      -7.503  13.089  21.461  0.00  0.00    +0.000 Cl
ATOM     25  C   UNL     1      -7.295  13.669  18.840  0.00  0.00    +0.000 A 
ATOM     26  C   UNL     1      -6.690  13.583  17.588  0.00  0.00    +0.000 A 
ATOM     27  C   UNL     1      -5.506  12.823  17.456  0.00  0.00    +0.000 A 
BRANCH  26  28
ATOM     28  C   UNL     1      -7.258  14.241  16.458  0.00  0.00    +0.000 C 
ATOM     29  N   UNL     1      -7.719  14.804  15.538  0.00  0.00    +0.000 NA
ENDBRANCH  26  28
ENDBRANCH  10  21
TORSDOF 2
ENDMDL
MODEL 9
REMARK VINA RESULT:      -6.5      2.393      3.507
REMARK  Name = 
REMARK  3 active torsions:
REMARK  status: ('A' for Active; 'I' for Inactive)
REMARK    1  A    between atoms: C_1  and  C_2
REMARK    2  A    between atoms: C_10  and  C_11
REMARK    3  A    between atoms: C_16  and  C_17
REMARK                            x       y       z     vdW  Elec       q    Type
REMARK                         _______ _______ _______ _____ _____    ______ ____
ROOT
ATOM      1  C   UNL     1      -4.149  11.123  17.456  0.00  0.00    +0.000 C 
ATOM      2  C   UNL     1      -2.907  11.208  18.250  0.00  0.00    +0.000 C 
ATOM      3  N   UNL     1      -2.617  11.917  19.271  0.00  0.00    +0.000 NA
ATOM      4  C   UNL     1      -1.258  11.369  19.905  0.00  0.00    +0.000 C 
ATOM      5  N   UNL     1      -1.427  10.024  19.257  0.00  0.00    +0.000 NA
ATOM      6  C   UNL     1      -1.823  10.277  18.058  0.00  0.00    +0.000 C 
ATOM      7  N   UNL     1      -1.337   9.934  16.823  0.00  0.00    +0.000 N 
ATOM      8  C   UNL     1       0.250  11.486  19.467  0.00  0.00    +0.000 A 
ATOM      9  C   UNL     1       1.034  10.305  19.646  0.00  0.00    +0.000 A 
ATOM     10  C   UNL     1       2.066   9.980  18.766  0.00  0.00    +0.000 A 
ATOM     11  C   UNL     1       2.540  11.029  17.970  0.00  0.00    +0.000 A 
ATOM     12  C   UNL     1       1.974  12.316  18.041  0.00  0.00    +0.000 A 
ATOM     13  C   UNL     1       0.809  12.551  18.777  0.00  0.00    +0.000 A 
ATOM     14  C   UNL     1       0.263  13.935  18.949  0.00  0.00    +0.000 C 
ATOM     15  C   UNL     1      -1.149  13.945  19.521  0.00  0.00    +0.000 C 
ATOM     16  C   UNL     1      -1.374  12.775  20.543  0.00  0.00    +0.000 C 
ATOM     17  C   UNL     1      -2.254  13.061  21.755  0.00  0.00    +0.000 C 
ATOM     18  C   UNL     1      -0.770  13.036  21.922  0.00  0.00    +0.000 C 
ATOM     19  H   UNL     1      -0.317   9.897  16.839  0.00  0.00    +0.000 HD
ATOM     20  H   UNL     1      -1.615  10.576  16.079  0.00  0.00    +0.000 HD
ENDROOT
BRANCH  10  21
ATOM     21  C   UNL     1       2.484   8.567  18.590  0.00  0.00    +0.000 A 
ATOM     22  C   UNL     1       3.369   8.165  17.582  0.00  0.00    +0.000 A 
ATOM     23  C   UNL     1       3.699   6.817  17.391  0.00  0.00    +0.000 A 
ATOM     24 CL   UNL     1       4.760   6.377  16.117  0.00  0.00    +0.000 Cl
ATOM     25  C   UNL     1       3.163   5.827  18.215  0.00  0.00    +0.000 A 
ATOM     26  C   UNL     1       2.276   6.173  19.231  0.00  0.00    +0.000 A 
ATOM     27  C   UNL     1       1.937   7.534  19.402  0.00  0.00    +0.000 A 
BRANCH  26  28
ATOM     28  C   UNL     1       1.711   5.174  20.077  0.00  0.00    +0.000 C 
ATOM     29  N   UNL     1       1.222   4.360  20.765  0.00  0.00    +0.000 NA
ENDBRANCH  26  28
ENDBRANCH  10  21
TORSDOF 2
ENDMDL
