MODEL 1
REMARK VINA RESULT:      -7.9      0.000      0.000
REMARK  Name = 
REMARK  5 active torsions:
REMARK  status: ('A' for Active; 'I' for Inactive)
REMARK    1  A    between atoms: C_2  and  C_3
REMARK    2  A    between atoms: C_6  and  N_7
REMARK    3  A    between atoms: C_8  and  C_10
REMARK    4  A    between atoms: C_13  and  C_14
REMARK    5  A    between atoms: C_14  and  C_15
REMARK                            x       y       z     vdW  Elec       q    Type
REMARK                         _______ _______ _______ _____ _____    ______ ____
ROOT
ATOM      1  C   UNL     1       2.316   6.424  20.038  0.00  0.00    +0.000 A 
ATOM      2  C   UNL     1       1.749   5.338  20.683  0.00  0.00    +0.000 A 
ATOM      3  S   UNL     1       2.696   3.950  20.466  0.00  0.00    +0.000 S 
ATOM      4  C   UNL     1       3.824   4.872  19.542  0.00  0.00    +0.000 A 
ATOM      5  N   UNL     1       3.485   6.134  19.329  0.00  0.00    +0.000 NA
ENDROOT
BRANCH   1   7
ATOM      6  N   UNL     1       1.254   8.082  21.441  0.00  0.00    +0.000 N 
ATOM      7  C   UNL     1       1.734   7.764  20.179  0.00  0.00    +0.000 C 
ATOM      8  O   UNL     1       1.713   8.513  19.204  0.00  0.00    +0.000 OA
ATOM      9  H   UNL     1       1.449   7.405  22.173  0.00  0.00    +0.000 HD
BRANCH   6  13
ATOM     10  C   UNL     1      -0.692  11.715  22.451  0.00  0.00    +0.000 A 
ATOM     11  C   UNL     1       0.244  11.690  21.423  0.00  0.00    +0.000 A 
ATOM     12  C   UNL     1       0.884  10.493  21.090  0.00  0.00    +0.000 A 
ATOM     13  C   UNL     1       0.610   9.300  21.770  0.00  0.00    +0.000 A 
ATOM     14  C   UNL     1      -0.340   9.330  22.800  0.00  0.00    +0.000 A 
ATOM     15  C   UNL     1      -0.980  10.533  23.143  0.00  0.00    +0.000 A 
BRANCH  10  17
ATOM     16  N   UNL     1      -1.890  13.939  23.048  0.00  0.00    +0.000 NA
ATOM     17  C   UNL     1      -1.358  12.937  22.777  0.00  0.00    +0.000 C 
ENDBRANCH  10  17
ENDBRANCH   6  13
ENDBRANCH   1   7
BRANCH   4  18
ATOM     18  C   UNL     1       5.141   4.240  19.170  0.00  0.00    +0.000 C 
BRANCH  18  19
ATOM     19  C   UNL     1       5.597   4.523  17.755  0.00  0.00    +0.000 A 
ATOM     20  C   UNL     1       4.848   4.071  16.651  0.00  0.00    +0.000 A 
ATOM     21 CL   UNL     1       3.337   3.246  16.833  0.00  0.00    +0.000 Cl
ATOM     22  C   UNL     1       5.283   4.297  15.340  0.00  0.00    +0.000 A 
ATOM     23  C   UNL     1       6.465   4.989  15.101  0.00  0.00    +0.000 A 
ATOM     24  C   UNL     1       7.209   5.465  16.173  0.00  0.00    +0.000 A 
ATOM     25  C   UNL     1       6.784   5.235  17.487  0.00  0.00    +0.000 A 
ATOM     26 CL   UNL     1       7.779   5.905  18.734  0.00  0.00    +0.000 Cl
ENDBRANCH  18  19
ENDBRANCH   4  18
TORSDOF 5
ENDMDL
MODEL 2
REMARK VINA RESULT:      -7.8      0.063      2.070
REMARK  Name = 
REMARK  5 active torsions:
REMARK  status: ('A' for Active; 'I' for Inactive)
REMARK    1  A    between atoms: C_2  and  C_3
REMARK    2  A    between atoms: C_6  and  N_7
REMARK    3  A    between atoms: C_8  and  C_10
REMARK    4  A    between atoms: C_13  and  C_14
REMARK    5  A    between atoms: C_14  and  C_15
REMARK                            x       y       z     vdW  Elec       q    Type
REMARK                         _______ _______ _______ _____ _____    ______ ____
ROOT
ATOM      1  C   UNL     1       2.291   6.430  20.041  0.00  0.00    +0.000 A 
ATOM      2  C   UNL     1       1.702   5.333  20.646  0.00  0.00    +0.000 A 
ATOM      3  S   UNL     1       2.647   3.945  20.424  0.00  0.00    +0.000 S 
ATOM      4  C   UNL     1       3.803   4.881  19.550  0.00  0.00    +0.000 A 
ATOM      5  N   UNL     1       3.476   6.149  19.356  0.00  0.00    +0.000 NA
ENDROOT
BRANCH   1   7
ATOM      6  N   UNL     1       1.205   8.065  21.452  0.00  0.00    +0.000 N 
ATOM      7  C   UNL     1       1.712   7.770  20.195  0.00  0.00    +0.000 C 
ATOM      8  O   UNL     1       1.716   8.538  19.236  0.00  0.00    +0.000 OA
ATOM      9  H   UNL     1       1.381   7.372  22.175  0.00  0.00    +0.000 HD
BRANCH   6  13
ATOM     10  C   UNL     1      -0.713  11.718  22.446  0.00  0.00    +0.000 A 
ATOM     11  C   UNL     1      -1.002  10.562  23.163  0.00  0.00    +0.000 A 
ATOM     12  C   UNL     1      -0.369   9.360  22.836  0.00  0.00    +0.000 A 
ATOM     13  C   UNL     1       0.560   9.279  21.792  0.00  0.00    +0.000 A 
ATOM     14  C   UNL     1       0.853  10.448  21.077  0.00  0.00    +0.000 A 
ATOM     15  C   UNL     1       0.213  11.658  21.397  0.00  0.00    +0.000 A 
BRANCH  10  17
ATOM     16  N   UNL     1      -1.876  13.953  23.068  0.00  0.00    +0.000 NA
ATOM     17  C   UNL     1      -1.348  12.950  22.793  0.00  0.00    +0.000 C 
ENDBRANCH  10  17
ENDBRANCH   6  13
ENDBRANCH   1   7
BRANCH   4  18
ATOM     18  C   UNL     1       5.126   4.249  19.199  0.00  0.00    +0.000 C 
BRANCH  18  19
ATOM     19  C   UNL     1       5.581   4.492  17.776  0.00  0.00    +0.000 A 
ATOM     20  C   UNL     1       6.781   5.179  17.508  0.00  0.00    +0.000 A 
ATOM     21 CL   UNL     1       7.842   5.713  18.768  0.00  0.00    +0.000 Cl
ATOM     22  C   UNL     1       7.188   5.439  16.195  0.00  0.00    +0.000 A 
ATOM     23  C   UNL     1       6.418   5.008  15.121  0.00  0.00    +0.000 A 
ATOM     24  C   UNL     1       5.241   4.308  15.360  0.00  0.00    +0.000 A 
ATOM     25  C   UNL     1       4.824   4.052  16.670  0.00  0.00    +0.000 A 
ATOM     26 CL   UNL     1       3.361   3.143  16.837  0.00  0.00    +0.000 Cl
ENDBRANCH  18  19
ENDBRANCH   4  18
TORSDOF 5
ENDMDL
MODEL 3
REMARK VINA RESULT:      -7.8      5.031      7.493
REMARK  Name = 
REMARK  5 active torsions:
REMARK  status: ('A' for Active; 'I' for Inactive)
REMARK    1  A    between atoms: C_2  and  C_3
REMARK    2  A    between atoms: C_6  and  N_7
REMARK    3  A    between atoms: C_8  and  C_10
REMARK    4  A    between atoms: C_13  and  C_14
REMARK    5  A    between atoms: C_14  and  C_15
REMARK                            x       y       z     vdW  Elec       q    Type
REMARK                         _______ _______ _______ _____ _____    ______ ____
ROOT
ATOM      1  C   UNL     1       6.699   6.029  17.321  0.00  0.00    +0.000 A 
ATOM      2  C   UNL     1       6.991   5.625  16.029  0.00  0.00    +0.000 A 
ATOM      3  S   UNL     1       5.794   4.579  15.442  0.00  0.00    +0.000 S 
ATOM      4  C   UNL     1       4.937   4.735  16.932  0.00  0.00    +0.000 A 
ATOM      5  N   UNL     1       5.541   5.462  17.860  0.00  0.00    +0.000 NA
ENDROOT
BRANCH   1   7
ATOM      6  N   UNL     1       7.418   8.327  17.529  0.00  0.00    +0.000 N 
ATOM      7  C   UNL     1       7.534   7.027  17.999  0.00  0.00    +0.000 C 
ATOM      8  O   UNL     1       8.261   6.672  18.924  0.00  0.00    +0.000 OA
ATOM      9  H   UNL     1       6.689   8.486  16.839  0.00  0.00    +0.000 HD
BRANCH   6  13
ATOM     10  C   UNL     1       9.669  11.632  18.950  0.00  0.00    +0.000 A 
ATOM     11  C   UNL     1       9.761  10.401  19.589  0.00  0.00    +0.000 A 
ATOM     12  C   UNL     1       9.020   9.313  19.120  0.00  0.00    +0.000 A 
ATOM     13  C   UNL     1       8.174   9.424  18.011  0.00  0.00    +0.000 A 
ATOM     14  C   UNL     1       8.091  10.665  17.365  0.00  0.00    +0.000 A 
ATOM     15  C   UNL     1       8.828  11.765  17.838  0.00  0.00    +0.000 A 
BRANCH  10  17
ATOM     16  N   UNL     1      11.077  13.643  19.793  0.00  0.00    +0.000 NA
ATOM     17  C   UNL     1      10.441  12.739  19.420  0.00  0.00    +0.000 C 
ENDBRANCH  10  17
ENDBRANCH   6  13
ENDBRANCH   1   7
BRANCH   4  18
ATOM     18  C   UNL     1       3.544   4.168  17.026  0.00  0.00    +0.000 C 
BRANCH  18  19
ATOM     19  C   UNL     1       2.977   4.123  18.428  0.00  0.00    +0.000 A 
ATOM     20  C   UNL     1       2.983   2.927  19.171  0.00  0.00    +0.000 A 
ATOM     21 CL   UNL     1       3.703   1.470  18.574  0.00  0.00    +0.000 Cl
ATOM     22  C   UNL     1       2.427   2.869  20.455  0.00  0.00    +0.000 A 
ATOM     23  C   UNL     1       1.866   4.003  21.030  0.00  0.00    +0.000 A 
ATOM     24  C   UNL     1       1.868   5.201  20.325  0.00  0.00    +0.000 A 
ATOM     25  C   UNL     1       2.414   5.264  19.038  0.00  0.00    +0.000 A 
ATOM     26 CL   UNL     1       2.388   6.818  18.278  0.00  0.00    +0.000 Cl
ENDBRANCH  18  19
ENDBRANCH   4  18
TORSDOF 5
ENDMDL
MODEL 4
REMARK VINA RESULT:      -7.7      5.013      7.577
REMARK  Name = 
REMARK  5 active torsions:
REMARK  status: ('A' for Active; 'I' for Inactive)
REMARK    1  A    between atoms: C_2  and  C_3
REMARK    2  A    between atoms: C_6  and  N_7
REMARK    3  A    between atoms: C_8  and  C_10
REMARK    4  A    between atoms: C_13  and  C_14
REMARK    5  A    between atoms: C_14  and  C_15
REMARK                            x       y       z     vdW  Elec       q    Type
REMARK                         _______ _______ _______ _____ _____    ______ ____
ROOT
ATOM      1  C   UNL     1       6.788   6.125  17.449  0.00  0.00    +0.000 A 
ATOM      2  C   UNL     1       7.145   5.563  16.235  0.00  0.00    +0.000 A 
ATOM      3  S   UNL     1       5.931   4.521  15.676  0.00  0.00    +0.000 S 
ATOM      4  C   UNL     1       4.983   4.889  17.070  0.00  0.00    +0.000 A 
ATOM      5  N   UNL     1       5.563   5.684  17.956  0.00  0.00    +0.000 NA
ENDROOT
BRANCH   1   7
ATOM      6  N   UNL     1       7.462   8.442  17.601  0.00  0.00    +0.000 N 
ATOM      7  C   UNL     1       7.632   7.149  18.075  0.00  0.00    +0.000 C 
ATOM      8  O   UNL     1       8.413   6.819  18.965  0.00  0.00    +0.000 OA
ATOM      9  H   UNL     1       6.695   8.577  16.948  0.00  0.00    +0.000 HD
BRANCH   6  13
ATOM     10  C   UNL     1       9.703  11.812  18.880  0.00  0.00    +0.000 A 
ATOM     11  C   UNL     1       9.845  10.593  19.533  0.00  0.00    +0.000 A 
ATOM     12  C   UNL     1       9.108   9.483  19.111  0.00  0.00    +0.000 A 
ATOM     13  C   UNL     1       8.214   9.561  18.036  0.00  0.00    +0.000 A 
ATOM     14  C   UNL     1       8.081  10.790  17.376  0.00  0.00    +0.000 A 
ATOM     15  C   UNL     1       8.814  11.910  17.802  0.00  0.00    +0.000 A 
BRANCH  10  17
ATOM     16  N   UNL     1      11.094  13.859  19.658  0.00  0.00    +0.000 NA
ATOM     17  C   UNL     1      10.471  12.940  19.302  0.00  0.00    +0.000 C 
ENDBRANCH  10  17
ENDBRANCH   6  13
ENDBRANCH   1   7
BRANCH   4  18
ATOM     18  C   UNL     1       3.555   4.410  17.118  0.00  0.00    +0.000 C 
BRANCH  18  19
ATOM     19  C   UNL     1       2.995   4.244  18.514  0.00  0.00    +0.000 A 
ATOM     20  C   UNL     1       2.455   5.342  19.211  0.00  0.00    +0.000 A 
ATOM     21 CL   UNL     1       2.323   6.915  18.499  0.00  0.00    +0.000 Cl
ATOM     22  C   UNL     1       1.969   5.204  20.516  0.00  0.00    +0.000 A 
ATOM     23  C   UNL     1       1.997   3.966  21.149  0.00  0.00    +0.000 A 
ATOM     24  C   UNL     1       2.503   2.863  20.474  0.00  0.00    +0.000 A 
ATOM     25  C   UNL     1       2.999   2.996  19.172  0.00  0.00    +0.000 A 
ATOM     26 CL   UNL     1       3.571   1.544  18.425  0.00  0.00    +0.000 Cl
ENDBRANCH  18  19
ENDBRANCH   4  18
TORSDOF 5
ENDMDL
MODEL 5
REMARK VINA RESULT:      -7.4      2.058      3.049
REMARK  Name = 
REMARK  5 active torsions:
REMARK  status: ('A' for Active; 'I' for Inactive)
REMARK    1  A    between atoms: C_2  and  C_3
REMARK    2  A    between atoms: C_6  and  N_7
REMARK    3  A    between atoms: C_8  and  C_10
REMARK    4  A    between atoms: C_13  and  C_14
REMARK    5  A    between atoms: C_14  and  C_15
REMARK                            x       y       z     vdW  Elec       q    Type
REMARK                         _______ _______ _______ _____ _____    ______ ____
ROOT
ATOM      1  C   UNL     1       2.248   6.665  20.060  0.00  0.00    +0.000 A 
ATOM      2  C   UNL     1       1.591   5.614  20.676  0.00  0.00    +0.000 A 
ATOM      3  S   UNL     1       2.446   4.166  20.468  0.00  0.00    +0.000 S 
ATOM      4  C   UNL     1       3.660   5.018  19.586  0.00  0.00    +0.000 A 
ATOM      5  N   UNL     1       3.414   6.302  19.379  0.00  0.00    +0.000 NA
ENDROOT
BRANCH   1   7
ATOM      6  N   UNL     1       1.549   8.729  19.014  0.00  0.00    +0.000 N 
ATOM      7  C   UNL     1       1.755   8.040  20.201  0.00  0.00    +0.000 C 
ATOM      8  O   UNL     1       1.548   8.490  21.325  0.00  0.00    +0.000 OA
ATOM      9  H   UNL     1       1.651   8.186  18.162  0.00  0.00    +0.000 HD
BRANCH   6  13
ATOM     10  C   UNL     1       0.318  12.783  18.766  0.00  0.00    +0.000 A 
ATOM     11  C   UNL     1      -0.595  11.800  19.130  0.00  0.00    +0.000 A 
ATOM     12  C   UNL     1      -0.189  10.465  19.213  0.00  0.00    +0.000 A 
ATOM     13  C   UNL     1       1.128  10.080  18.934  0.00  0.00    +0.000 A 
ATOM     14  C   UNL     1       2.046  11.076  18.576  0.00  0.00    +0.000 A 
ATOM     15  C   UNL     1       1.640  12.419  18.484  0.00  0.00    +0.000 A 
BRANCH  10  17
ATOM     16  N   UNL     1      -0.439  15.263  18.657  0.00  0.00    +0.000 NA
ATOM     17  C   UNL     1      -0.096  14.150  18.700  0.00  0.00    +0.000 C 
ENDBRANCH  10  17
ENDBRANCH   6  13
ENDBRANCH   1   7
BRANCH   4  18
ATOM     18  C   UNL     1       4.940   4.301  19.243  0.00  0.00    +0.000 C 
BRANCH  18  19
ATOM     19  C   UNL     1       5.438   4.543  17.834  0.00  0.00    +0.000 A 
ATOM     20  C   UNL     1       6.660   5.204  17.604  0.00  0.00    +0.000 A 
ATOM     21 CL   UNL     1       7.698   5.705  18.895  0.00  0.00    +0.000 Cl
ATOM     22  C   UNL     1       7.108   5.464  16.303  0.00  0.00    +0.000 A 
ATOM     23  C   UNL     1       6.357   5.059  15.206  0.00  0.00    +0.000 A 
ATOM     24  C   UNL     1       5.159   4.384  15.408  0.00  0.00    +0.000 A 
ATOM     25  C   UNL     1       4.701   4.129  16.705  0.00  0.00    +0.000 A 
ATOM     26 CL   UNL     1       3.214   3.252  16.825  0.00  0.00    +0.000 Cl
ENDBRANCH  18  19
ENDBRANCH   4  18
TORSDOF 5
ENDMDL
MODEL 6
REMARK VINA RESULT:      -7.4      2.058      2.270
REMARK  Name = 
REMARK  5 active torsions:
REMARK  status: ('A' for Active; 'I' for Inactive)
REMARK    1  A    between atoms: C_2  and  C_3
REMARK    2  A    between atoms: C_6  and  N_7
REMARK    3  A    between atoms: C_8  and  C_10
REMARK    4  A    between atoms: C_13  and  C_14
REMARK    5  A    between atoms: C_14  and  C_15
REMARK                            x       y       z     vdW  Elec       q    Type
REMARK                         _______ _______ _______ _____ _____    ______ ____
ROOT
ATOM      1  C   UNL     1       2.206   6.644  20.077  0.00  0.00    +0.000 A 
ATOM      2  C   UNL     1       1.532   5.597  20.683  0.00  0.00    +0.000 A 
ATOM      3  S   UNL     1       2.374   4.142  20.476  0.00  0.00    +0.000 S 
ATOM      4  C   UNL     1       3.604   4.984  19.608  0.00  0.00    +0.000 A 
ATOM      5  N   UNL     1       3.373   6.272  19.404  0.00  0.00    +0.000 NA
ENDROOT
BRANCH   1   7
ATOM      6  N   UNL     1       1.540   8.721  19.034  0.00  0.00    +0.000 N 
ATOM      7  C   UNL     1       1.726   8.023  20.219  0.00  0.00    +0.000 C 
ATOM      8  O   UNL     1       1.512   8.470  21.344  0.00  0.00    +0.000 OA
ATOM      9  H   UNL     1       1.646   8.180  18.180  0.00  0.00    +0.000 HD
BRANCH   6  13
ATOM     10  C   UNL     1       0.296  12.772  18.810  0.00  0.00    +0.000 A 
ATOM     11  C   UNL     1       1.621  12.436  18.554  0.00  0.00    +0.000 A 
ATOM     12  C   UNL     1       2.030  11.101  18.627  0.00  0.00    +0.000 A 
ATOM     13  C   UNL     1       1.135  10.076  18.957  0.00  0.00    +0.000 A 
ATOM     14  C   UNL     1      -0.200  10.420  19.205  0.00  0.00    +0.000 A 
ATOM     15  C   UNL     1      -0.615  11.761  19.141  0.00  0.00    +0.000 A 
BRANCH  10  17
ATOM     16  N   UNL     1      -0.454  15.250  18.640  0.00  0.00    +0.000 NA
ATOM     17  C   UNL     1      -0.124  14.135  18.717  0.00  0.00    +0.000 C 
ENDBRANCH  10  17
ENDBRANCH   6  13
ENDBRANCH   1   7
BRANCH   4  18
ATOM     18  C   UNL     1       4.879   4.254  19.272  0.00  0.00    +0.000 C 
BRANCH  18  19
ATOM     19  C   UNL     1       5.414   4.529  17.883  0.00  0.00    +0.000 A 
ATOM     20  C   UNL     1       4.708   4.104  16.741  0.00  0.00    +0.000 A 
ATOM     21 CL   UNL     1       3.166   3.323  16.843  0.00  0.00    +0.000 Cl
ATOM     22  C   UNL     1       5.215   4.322  15.454  0.00  0.00    +0.000 A 
ATOM     23  C   UNL     1       6.427   4.980  15.278  0.00  0.00    +0.000 A 
ATOM     24  C   UNL     1       7.130   5.429  16.389  0.00  0.00    +0.000 A 
ATOM     25  C   UNL     1       6.634   5.207  17.678  0.00  0.00    +0.000 A 
ATOM     26 CL   UNL     1       7.583   5.843  18.977  0.00  0.00    +0.000 Cl
ENDBRANCH  18  19
ENDBRANCH   4  18
TORSDOF 5
ENDMDL
MODEL 7
REMARK VINA RESULT:      -7.3      1.250      1.447
REMARK  Name = 
REMARK  5 active torsions:
REMARK  status: ('A' for Active; 'I' for Inactive)
REMARK    1  A    between atoms: C_2  and  C_3
REMARK    2  A    between atoms: C_6  and  N_7
REMARK    3  A    between atoms: C_8  and  C_10
REMARK    4  A    between atoms: C_13  and  C_14
REMARK    5  A    between atoms: C_14  and  C_15
REMARK                            x       y       z     vdW  Elec       q    Type
REMARK                         _______ _______ _______ _____ _____    ______ ____
ROOT
ATOM      1  C   UNL     1       2.322   6.814  19.630  0.00  0.00    +0.000 A 
ATOM      2  C   UNL     1       1.696   5.960  20.521  0.00  0.00    +0.000 A 
ATOM      3  S   UNL     1       2.540   4.496  20.644  0.00  0.00    +0.000 S 
ATOM      4  C   UNL     1       3.708   5.083  19.519  0.00  0.00    +0.000 A 
ATOM      5  N   UNL     1       3.453   6.277  19.008  0.00  0.00    +0.000 NA
ENDROOT
BRANCH   1   7
ATOM      6  N   UNL     1       1.016   8.676  20.449  0.00  0.00    +0.000 N 
ATOM      7  C   UNL     1       1.837   8.186  19.443  0.00  0.00    +0.000 C 
ATOM      8  O   UNL     1       2.182   8.812  18.444  0.00  0.00    +0.000 OA
ATOM      9  H   UNL     1       0.917   8.084  21.269  0.00  0.00    +0.000 HD
BRANCH   6  13
ATOM     10  C   UNL     1      -0.797  12.513  20.421  0.00  0.00    +0.000 A 
ATOM     11  C   UNL     1      -1.330  11.486  19.649  0.00  0.00    +0.000 A 
ATOM     12  C   UNL     1      -0.733  10.222  19.660  0.00  0.00    +0.000 A 
ATOM     13  C   UNL     1       0.403   9.953  20.433  0.00  0.00    +0.000 A 
ATOM     14  C   UNL     1       0.931  10.990  21.214  0.00  0.00    +0.000 A 
ATOM     15  C   UNL     1       0.339  12.264  21.201  0.00  0.00    +0.000 A 
BRANCH  10  17
ATOM     16  N   UNL     1      -1.930  14.848  20.411  0.00  0.00    +0.000 NA
ATOM     17  C   UNL     1      -1.420  13.799  20.422  0.00  0.00    +0.000 C 
ENDBRANCH  10  17
ENDBRANCH   6  13
ENDBRANCH   1   7
BRANCH   4  18
ATOM     18  C   UNL     1       4.970   4.286  19.307  0.00  0.00    +0.000 C 
BRANCH  18  19
ATOM     19  C   UNL     1       5.546   4.381  17.910  0.00  0.00    +0.000 A 
ATOM     20  C   UNL     1       4.822   3.911  16.798  0.00  0.00    +0.000 A 
ATOM     21 CL   UNL     1       3.216   3.279  16.938  0.00  0.00    +0.000 Cl
ATOM     22  C   UNL     1       5.363   3.961  15.508  0.00  0.00    +0.000 A 
ATOM     23  C   UNL     1       6.630   4.493  15.297  0.00  0.00    +0.000 A 
ATOM     24  C   UNL     1       7.355   4.983  16.376  0.00  0.00    +0.000 A 
ATOM     25  C   UNL     1       6.823   4.928  17.670  0.00  0.00    +0.000 A 
ATOM     26 CL   UNL     1       7.807   5.601  18.924  0.00  0.00    +0.000 Cl
ENDBRANCH  18  19
ENDBRANCH   4  18
TORSDOF 5
ENDMDL
MODEL 8
REMARK VINA RESULT:      -7.2      5.359      7.856
REMARK  Name = 
REMARK  5 active torsions:
REMARK  status: ('A' for Active; 'I' for Inactive)
REMARK    1  A    between atoms: C_2  and  C_3
REMARK    2  A    between atoms: C_6  and  N_7
REMARK    3  A    between atoms: C_8  and  C_10
REMARK    4  A    between atoms: C_13  and  C_14
REMARK    5  A    between atoms: C_14  and  C_15
REMARK                            x       y       z     vdW  Elec       q    Type
REMARK                         _______ _______ _______ _____ _____    ______ ____
ROOT
ATOM      1  C   UNL     1       7.045   7.293  17.919  0.00  0.00    +0.000 A 
ATOM      2  C   UNL     1       7.775   6.126  18.060  0.00  0.00    +0.000 A 
ATOM      3  S   UNL     1       6.768   4.769  17.934  0.00  0.00    +0.000 S 
ATOM      4  C   UNL     1       5.414   5.806  17.677  0.00  0.00    +0.000 A 
ATOM      5  N   UNL     1       5.669   7.103  17.758  0.00  0.00    +0.000 NA
ENDROOT
BRANCH   1   7
ATOM      6  N   UNL     1       8.644   8.826  18.887  0.00  0.00    +0.000 N 
ATOM      7  C   UNL     1       7.719   8.596  17.879  0.00  0.00    +0.000 C 
ATOM      8  O   UNL     1       7.444   9.385  16.977  0.00  0.00    +0.000 OA
ATOM      9  H   UNL     1       8.849   8.034  19.490  0.00  0.00    +0.000 HD
BRANCH   6  13
ATOM     10  C   UNL     1      10.785  12.450  19.426  0.00  0.00    +0.000 A 
ATOM     11  C   UNL     1      10.672  11.891  18.159  0.00  0.00    +0.000 A 
ATOM     12  C   UNL     1       9.966  10.698  17.982  0.00  0.00    +0.000 A 
ATOM     13  C   UNL     1       9.360  10.036  19.057  0.00  0.00    +0.000 A 
ATOM     14  C   UNL     1       9.471  10.609  20.331  0.00  0.00    +0.000 A 
ATOM     15  C   UNL     1      10.187  11.804  20.515  0.00  0.00    +0.000 A 
BRANCH  10  17
ATOM     16  N   UNL     1      12.072  14.679  19.758  0.00  0.00    +0.000 NA
ATOM     17  C   UNL     1      11.493  13.679  19.602  0.00  0.00    +0.000 C 
ENDBRANCH  10  17
ENDBRANCH   6  13
ENDBRANCH   1   7
BRANCH   4  18
ATOM     18  C   UNL     1       4.105   5.192  17.253  0.00  0.00    +0.000 C 
BRANCH  18  19
ATOM     19  C   UNL     1       3.211   4.766  18.397  0.00  0.00    +0.000 A 
ATOM     20  C   UNL     1       2.495   5.718  19.148  0.00  0.00    +0.000 A 
ATOM     21 CL   UNL     1       2.524   7.407  18.768  0.00  0.00    +0.000 Cl
ATOM     22  C   UNL     1       1.696   5.334  20.231  0.00  0.00    +0.000 A 
ATOM     23  C   UNL     1       1.581   3.993  20.580  0.00  0.00    +0.000 A 
ATOM     24  C   UNL     1       2.260   3.032  19.840  0.00  0.00    +0.000 A 
ATOM     25  C   UNL     1       3.067   3.410  18.762  0.00  0.00    +0.000 A 
ATOM     26 CL   UNL     1       3.833   2.121  17.898  0.00  0.00    +0.000 Cl
ENDBRANCH  18  19
ENDBRANCH   4  18
TORSDOF 5
ENDMDL
MODEL 9
REMARK VINA RESULT:      -7.2      1.493      2.487
REMARK  Name = 
REMARK  5 active torsions:
REMARK  status: ('A' for Active; 'I' for Inactive)
REMARK    1  A    between atoms: C_2  and  C_3
REMARK    2  A    between atoms: C_6  and  N_7
REMARK    3  A    between atoms: C_8  and  C_10
REMARK    4  A    between atoms: C_13  and  C_14
REMARK    5  A    between atoms: C_14  and  C_15
REMARK                            x       y       z     vdW  Elec       q    Type
REMARK                         _______ _______ _______ _____ _____    ______ ____
ROOT
ATOM      1  C   UNL     1       2.263   7.046  19.548  0.00  0.00    +0.000 A 
ATOM      2  C   UNL     1       1.597   6.236  20.452  0.00  0.00    +0.000 A 
ATOM      3  S   UNL     1       2.389   4.749  20.623  0.00  0.00    +0.000 S 
ATOM      4  C   UNL     1       3.591   5.267  19.500  0.00  0.00    +0.000 A 
ATOM      5  N   UNL     1       3.383   6.455  18.955  0.00  0.00    +0.000 NA
ENDROOT
BRANCH   1   7
ATOM      6  N   UNL     1       1.033   8.980  20.315  0.00  0.00    +0.000 N 
ATOM      7  C   UNL     1       1.827   8.428  19.320  0.00  0.00    +0.000 C 
ATOM      8  O   UNL     1       2.186   9.008  18.298  0.00  0.00    +0.000 OA
ATOM      9  H   UNL     1       0.920   8.419  21.155  0.00  0.00    +0.000 HD
BRANCH   6  13
ATOM     10  C   UNL     1      -0.635  12.880  20.170  0.00  0.00    +0.000 A 
ATOM     11  C   UNL     1      -1.324  11.807  19.616  0.00  0.00    +0.000 A 
ATOM     12  C   UNL     1      -0.775  10.523  19.665  0.00  0.00    +0.000 A 
ATOM     13  C   UNL     1       0.468  10.278  20.261  0.00  0.00    +0.000 A 
ATOM     14  C   UNL     1       1.154  11.362  20.825  0.00  0.00    +0.000 A 
ATOM     15  C   UNL     1       0.610  12.656  20.771  0.00  0.00    +0.000 A 
BRANCH  10  17
ATOM     16  N   UNL     1      -1.662  15.262  20.110  0.00  0.00    +0.000 NA
ATOM     17  C   UNL     1      -1.207  14.189  20.134  0.00  0.00    +0.000 C 
ENDBRANCH  10  17
ENDBRANCH   6  13
ENDBRANCH   1   7
BRANCH   4  18
ATOM     18  C   UNL     1       4.828   4.423  19.325  0.00  0.00    +0.000 C 
BRANCH  18  19
ATOM     19  C   UNL     1       5.407   4.439  17.927  0.00  0.00    +0.000 A 
ATOM     20  C   UNL     1       6.697   4.948  17.685  0.00  0.00    +0.000 A 
ATOM     21 CL   UNL     1       7.726   5.506  18.961  0.00  0.00    +0.000 Cl
ATOM     22  C   UNL     1       7.225   5.000  16.389  0.00  0.00    +0.000 A 
ATOM     23  C   UNL     1       6.484   4.533  15.310  0.00  0.00    +0.000 A 
ATOM     24  C   UNL     1       5.217   4.005  15.526  0.00  0.00    +0.000 A 
ATOM     25  C   UNL     1       4.681   3.958  16.817  0.00  0.00    +0.000 A 
ATOM     26 CL   UNL     1       3.109   3.248  16.961  0.00  0.00    +0.000 Cl
ENDBRANCH  18  19
ENDBRANCH   4  18
TORSDOF 5
ENDMDL
