MODEL 1
REMARK VINA RESULT:      -8.9      0.000      0.000
REMARK  Name = 
REMARK  6 active torsions:
REMARK  status: ('A' for Active; 'I' for Inactive)
REMARK    1  A    between atoms: C_2  and  C_14
REMARK    2  A    between atoms: N_3  and  C_4
REMARK    3  A    between atoms: C_4  and  C_5
REMARK    4  A    between atoms: N_20  and  C_21
REMARK    5  A    between atoms: C_21  and  C_22
REMARK    6  A    between atoms: N_32  and  O_33
REMARK                            x       y       z     vdW  Elec       q    Type
REMARK                         _______ _______ _______ _____ _____    ______ ____
ROOT
ATOM      1  C   UNL     1       1.311   9.039  19.755  0.00  0.00    +0.000 A 
ATOM      2  C   UNL     1       1.704   8.710  21.057  0.00  0.00    +0.000 A 
ATOM      3  C   UNL     1       0.950   9.127  22.135  0.00  0.00    +0.000 A 
ATOM      4  C   UNL     1      -0.110  10.016  21.937  0.00  0.00    +0.000 A 
ATOM      5  C   UNL     1      -0.449  10.457  20.649  0.00  0.00    +0.000 A 
ATOM      6  C   UNL     1       0.259   9.941  19.556  0.00  0.00    +0.000 A 
ATOM      7  N   UNL     1      -1.507  11.405  20.506  0.00  0.00    +0.000 N 
ATOM      8  C   UNL     1      -2.217  11.903  21.591  0.00  0.00    +0.000 C 
ATOM      9  O   UNL     1      -3.074  12.787  21.490  0.00  0.00    +0.000 OA
ATOM     10  N   UNL     1      -1.817  11.506  22.844  0.00  0.00    +0.000 N 
ATOM     11  C   UNL     1      -0.822  10.517  23.144  0.00  0.00    +0.000 C 
ENDROOT
BRANCH   1  13
ATOM     12  O   UNL     1       2.071   9.015  17.528  0.00  0.00    +0.000 OA
ATOM     13  C   UNL     1       1.960   8.395  18.582  0.00  0.00    +0.000 C 
ATOM     14  N   UNL     1       2.411   7.091  18.688  0.00  0.00    +0.000 N 
ATOM     15  H   UNL     1       2.953   6.782  17.899  0.00  0.00    +0.000 HD
BRANCH  14  16
ATOM     16  C   UNL     1       2.309   6.244  19.853  0.00  0.00    +0.000 C 
BRANCH  16  17
ATOM     17  C   UNL     1       2.684   4.812  19.661  0.00  0.00    +0.000 A 
ATOM     18  C   UNL     1       1.731   3.803  19.719  0.00  0.00    +0.000 A 
ATOM     19  F   UNL     1       0.459   4.100  20.014  0.00  0.00    +0.000 F 
ATOM     20  C   UNL     1       2.068   2.488  19.428  0.00  0.00    +0.000 A 
ATOM     21  C   UNL     1       3.379   2.199  19.062  0.00  0.00    +0.000 A 
ATOM     22  F   UNL     1       3.701   0.931  18.760  0.00  0.00    +0.000 F 
ATOM     23  C   UNL     1       4.346   3.183  18.980  0.00  0.00    +0.000 A 
ATOM     24  C   UNL     1       3.991   4.486  19.277  0.00  0.00    +0.000 A 
ATOM     25  F   UNL     1       4.912   5.448  19.146  0.00  0.00    +0.000 F 
ENDBRANCH  16  17
ENDBRANCH  14  16
ENDBRANCH   1  13
BRANCH  10  26
ATOM     26  O   UNL     1      -1.814  12.566  23.796  0.00  0.00    +0.000 OA
ATOM     27  H   UNL     1      -2.445  13.201  23.394  0.00  0.00    +0.000 HD
ENDBRANCH  10  26
BRANCH   7  28
ATOM     28  C   UNL     1      -1.683  12.123  19.242  0.00  0.00    +0.000 C 
BRANCH  28  29
ATOM     29  C   UNL     1      -2.525  11.489  18.161  0.00  0.00    +0.000 A 
ATOM     30  C   UNL     1      -2.005  10.637  17.182  0.00  0.00    +0.000 A 
ATOM     31  F   UNL     1      -0.704  10.321  17.160  0.00  0.00    +0.000 F 
ATOM     32  C   UNL     1      -2.808  10.090  16.181  0.00  0.00    +0.000 A 
ATOM     33  C   UNL     1      -4.169  10.368  16.149  0.00  0.00    +0.000 A 
ATOM     34  C   UNL     1      -4.722  11.197  17.121  0.00  0.00    +0.000 A 
ATOM     35  C   UNL     1      -3.908  11.755  18.113  0.00  0.00    +0.000 A 
ATOM     36 CL   UNL     1      -4.678  12.790  19.269  0.00  0.00    +0.000 Cl
ENDBRANCH  28  29
ENDBRANCH   7  28
TORSDOF 6
ENDMDL
MODEL 2
REMARK VINA RESULT:      -8.9      3.401      5.784
REMARK  Name = 
REMARK  6 active torsions:
REMARK  status: ('A' for Active; 'I' for Inactive)
REMARK    1  A    between atoms: C_2  and  C_14
REMARK    2  A    between atoms: N_3  and  C_4
REMARK    3  A    between atoms: C_4  and  C_5
REMARK    4  A    between atoms: N_20  and  C_21
REMARK    5  A    between atoms: C_21  and  C_22
REMARK    6  A    between atoms: N_32  and  O_33
REMARK                            x       y       z     vdW  Elec       q    Type
REMARK                         _______ _______ _______ _____ _____    ______ ____
ROOT
ATOM      1  C   UNL     1      -1.543  12.019  18.712  0.00  0.00    +0.000 A 
ATOM      2  C   UNL     1      -1.905  11.312  17.560  0.00  0.00    +0.000 A 
ATOM      3  C   UNL     1      -3.237  11.118  17.256  0.00  0.00    +0.000 A 
ATOM      4  C   UNL     1      -4.219  11.480  18.182  0.00  0.00    +0.000 A 
ATOM      5  C   UNL     1      -3.872  12.083  19.400  0.00  0.00    +0.000 A 
ATOM      6  C   UNL     1      -2.523  12.370  19.646  0.00  0.00    +0.000 A 
ATOM      7  N   UNL     1      -4.909  12.387  20.333  0.00  0.00    +0.000 N 
ATOM      8  C   UNL     1      -6.248  12.115  20.079  0.00  0.00    +0.000 C 
ATOM      9  O   UNL     1      -7.144  12.291  20.911  0.00  0.00    +0.000 OA
ATOM     10  N   UNL     1      -6.549  11.462  18.909  0.00  0.00    +0.000 N 
ATOM     11  C   UNL     1      -5.632  11.151  17.850  0.00  0.00    +0.000 C 
ENDROOT
BRANCH   1  13
ATOM     12  O   UNL     1       0.259  13.506  18.429  0.00  0.00    +0.000 OA
ATOM     13  C   UNL     1      -0.136  12.454  18.923  0.00  0.00    +0.000 C 
ATOM     14  N   UNL     1       0.718  11.651  19.659  0.00  0.00    +0.000 N 
ATOM     15  H   UNL     1       1.604  12.080  19.866  0.00  0.00    +0.000 HD
BRANCH  14  16
ATOM     16  C   UNL     1       0.389  10.379  20.259  0.00  0.00    +0.000 C 
BRANCH  16  17
ATOM     17  C   UNL     1       1.094   9.186  19.703  0.00  0.00    +0.000 A 
ATOM     18  C   UNL     1       1.508   9.146  18.377  0.00  0.00    +0.000 A 
ATOM     19  F   UNL     1       1.220  10.164  17.556  0.00  0.00    +0.000 F 
ATOM     20  C   UNL     1       2.260   8.083  17.898  0.00  0.00    +0.000 A 
ATOM     21  C   UNL     1       2.607   7.060  18.775  0.00  0.00    +0.000 A 
ATOM     22  F   UNL     1       3.352   6.041  18.318  0.00  0.00    +0.000 F 
ATOM     23  C   UNL     1       2.224   7.079  20.104  0.00  0.00    +0.000 A 
ATOM     24  C   UNL     1       1.472   8.145  20.560  0.00  0.00    +0.000 A 
ATOM     25  F   UNL     1       1.146   8.192  21.857  0.00  0.00    +0.000 F 
ENDBRANCH  16  17
ENDBRANCH  14  16
ENDBRANCH   1  13
BRANCH  10  26
ATOM     26  O   UNL     1      -7.538  10.449  19.067  0.00  0.00    +0.000 OA
ATOM     27  H   UNL     1      -8.356  10.980  19.180  0.00  0.00    +0.000 HD
ENDBRANCH  10  26
BRANCH   7  28
ATOM     28  C   UNL     1      -4.575  12.715  21.721  0.00  0.00    +0.000 C 
BRANCH  28  29
ATOM     29  C   UNL     1      -4.916  14.091  22.240  0.00  0.00    +0.000 A 
ATOM     30  C   UNL     1      -4.443  15.271  21.658  0.00  0.00    +0.000 A 
ATOM     31  F   UNL     1      -3.657  15.241  20.575  0.00  0.00    +0.000 F 
ATOM     32  C   UNL     1      -4.754  16.526  22.181  0.00  0.00    +0.000 A 
ATOM     33  C   UNL     1      -5.574  16.632  23.298  0.00  0.00    +0.000 A 
ATOM     34  C   UNL     1      -6.077  15.477  23.891  0.00  0.00    +0.000 A 
ATOM     35  C   UNL     1      -5.748  14.220  23.370  0.00  0.00    +0.000 A 
ATOM     36 CL   UNL     1      -6.403  12.838  24.183  0.00  0.00    +0.000 Cl
ENDBRANCH  28  29
ENDBRANCH   7  28
TORSDOF 6
ENDMDL
MODEL 3
REMARK VINA RESULT:      -8.9      4.885      7.690
REMARK  Name = 
REMARK  6 active torsions:
REMARK  status: ('A' for Active; 'I' for Inactive)
REMARK    1  A    between atoms: C_2  and  C_14
REMARK    2  A    between atoms: N_3  and  C_4
REMARK    3  A    between atoms: C_4  and  C_5
REMARK    4  A    between atoms: N_20  and  C_21
REMARK    5  A    between atoms: C_21  and  C_22
REMARK    6  A    between atoms: N_32  and  O_33
REMARK                            x       y       z     vdW  Elec       q    Type
REMARK                         _______ _______ _______ _____ _____    ______ ____
ROOT
ATOM      1  C   UNL     1      -5.344  12.699  21.709  0.00  0.00    +0.000 A 
ATOM      2  C   UNL     1      -5.911  13.204  22.885  0.00  0.00    +0.000 A 
ATOM      3  C   UNL     1      -5.181  14.047  23.700  0.00  0.00    +0.000 A 
ATOM      4  C   UNL     1      -3.825  14.260  23.438  0.00  0.00    +0.000 A 
ATOM      5  C   UNL     1      -3.203  13.667  22.330  0.00  0.00    +0.000 A 
ATOM      6  C   UNL     1      -3.983  12.900  21.454  0.00  0.00    +0.000 A 
ATOM      7  N   UNL     1      -1.804  13.875  22.137  0.00  0.00    +0.000 N 
ATOM      8  C   UNL     1      -1.037  14.648  22.999  0.00  0.00    +0.000 C 
ATOM      9  O   UNL     1       0.189  14.765  22.894  0.00  0.00    +0.000 OA
ATOM     10  N   UNL     1      -1.659  15.159  24.112  0.00  0.00    +0.000 N 
ATOM     11  C   UNL     1      -3.061  15.092  24.408  0.00  0.00    +0.000 C 
ENDROOT
BRANCH   1  13
ATOM     12  O   UNL     1      -7.336  11.679  20.983  0.00  0.00    +0.000 OA
ATOM     13  C   UNL     1      -6.186  12.002  20.700  0.00  0.00    +0.000 C 
ATOM     14  N   UNL     1      -5.651  11.707  19.459  0.00  0.00    +0.000 N 
ATOM     15  H   UNL     1      -6.325  11.360  18.797  0.00  0.00    +0.000 HD
BRANCH  14  16
ATOM     16  C   UNL     1      -4.308  11.998  19.016  0.00  0.00    +0.000 C 
BRANCH  16  17
ATOM     17  C   UNL     1      -3.865  11.315  17.764  0.00  0.00    +0.000 A 
ATOM     18  C   UNL     1      -4.512  11.535  16.555  0.00  0.00    +0.000 A 
ATOM     19  F   UNL     1      -5.592  12.324  16.508  0.00  0.00    +0.000 F 
ATOM     20  C   UNL     1      -4.025  10.984  15.377  0.00  0.00    +0.000 A 
ATOM     21  C   UNL     1      -2.866  10.216  15.427  0.00  0.00    +0.000 A 
ATOM     22  F   UNL     1      -2.383   9.700  14.285  0.00  0.00    +0.000 F 
ATOM     23  C   UNL     1      -2.191   9.992  16.612  0.00  0.00    +0.000 A 
ATOM     24  C   UNL     1      -2.694  10.546  17.775  0.00  0.00    +0.000 A 
ATOM     25  F   UNL     1      -2.013  10.375  18.914  0.00  0.00    +0.000 F 
ENDBRANCH  16  17
ENDBRANCH  14  16
ENDBRANCH   1  13
BRANCH  10  26
ATOM     26  O   UNL     1      -0.864  15.072  25.292  0.00  0.00    +0.000 OA
ATOM     27  H   UNL     1      -1.541  15.154  25.998  0.00  0.00    +0.000 HD
ENDBRANCH  10  26
BRANCH   7  28
ATOM     28  C   UNL     1      -1.059  13.034  21.198  0.00  0.00    +0.000 C 
BRANCH  28  29
ATOM     29  C   UNL     1      -0.543  11.698  21.676  0.00  0.00    +0.000 A 
ATOM     30  C   UNL     1      -1.009  11.064  22.832  0.00  0.00    +0.000 A 
ATOM     31  F   UNL     1      -1.970  11.615  23.585  0.00  0.00    +0.000 F 
ATOM     32  C   UNL     1      -0.490   9.843  23.261  0.00  0.00    +0.000 A 
ATOM     33  C   UNL     1       0.502   9.208  22.523  0.00  0.00    +0.000 A 
ATOM     34  C   UNL     1       0.974   9.804  21.356  0.00  0.00    +0.000 A 
ATOM     35  C   UNL     1       0.460  11.037  20.940  0.00  0.00    +0.000 A 
ATOM     36 CL   UNL     1       1.120  11.713  19.489  0.00  0.00    +0.000 Cl
ENDBRANCH  28  29
ENDBRANCH   7  28
TORSDOF 6
ENDMDL
MODEL 4
REMARK VINA RESULT:      -8.9      2.797      4.618
REMARK  Name = 
REMARK  6 active torsions:
REMARK  status: ('A' for Active; 'I' for Inactive)
REMARK    1  A    between atoms: C_2  and  C_14
REMARK    2  A    between atoms: N_3  and  C_4
REMARK    3  A    between atoms: C_4  and  C_5
REMARK    4  A    between atoms: N_20  and  C_21
REMARK    5  A    between atoms: C_21  and  C_22
REMARK    6  A    between atoms: N_32  and  O_33
REMARK                            x       y       z     vdW  Elec       q    Type
REMARK                         _______ _______ _______ _____ _____    ______ ____
ROOT
ATOM      1  C   UNL     1       0.476   9.663  20.947  0.00  0.00    +0.000 A 
ATOM      2  C   UNL     1       0.469   9.462  19.562  0.00  0.00    +0.000 A 
ATOM      3  C   UNL     1      -0.321  10.252  18.752  0.00  0.00    +0.000 A 
ATOM      4  C   UNL     1      -1.237  11.137  19.327  0.00  0.00    +0.000 A 
ATOM      5  C   UNL     1      -1.333  11.269  20.721  0.00  0.00    +0.000 A 
ATOM      6  C   UNL     1      -0.450  10.538  21.526  0.00  0.00    +0.000 A 
ATOM      7  N   UNL     1      -2.320  12.149  21.259  0.00  0.00    +0.000 N 
ATOM      8  C   UNL     1      -3.184  12.883  20.457  0.00  0.00    +0.000 C 
ATOM      9  O   UNL     1      -4.100  13.580  20.909  0.00  0.00    +0.000 OA
ATOM     10  N   UNL     1      -3.113  12.681  19.100  0.00  0.00    +0.000 N 
ATOM     11  C   UNL     1      -2.139  11.886  18.410  0.00  0.00    +0.000 C 
ENDROOT
BRANCH   1  13
ATOM     12  O   UNL     1       2.022   9.625  22.722  0.00  0.00    +0.000 OA
ATOM     13  C   UNL     1       1.498   9.002  21.803  0.00  0.00    +0.000 C 
ATOM     14  N   UNL     1       1.861   7.693  21.537  0.00  0.00    +0.000 N 
ATOM     15  H   UNL     1       2.452   7.283  22.240  0.00  0.00    +0.000 HD
BRANCH  14  16
ATOM     16  C   UNL     1       1.349   6.865  20.470  0.00  0.00    +0.000 C 
BRANCH  16  17
ATOM     17  C   UNL     1       2.347   5.999  19.773  0.00  0.00    +0.000 A 
ATOM     18  C   UNL     1       2.762   4.792  20.321  0.00  0.00    +0.000 A 
ATOM     19  F   UNL     1       2.314   4.416  21.526  0.00  0.00    +0.000 F 
ATOM     20  C   UNL     1       3.603   3.942  19.617  0.00  0.00    +0.000 A 
ATOM     21  C   UNL     1       4.013   4.314  18.340  0.00  0.00    +0.000 A 
ATOM     22  F   UNL     1       4.809   3.483  17.649  0.00  0.00    +0.000 F 
ATOM     23  C   UNL     1       3.604   5.501  17.761  0.00  0.00    +0.000 A 
ATOM     24  C   UNL     1       2.770   6.336  18.481  0.00  0.00    +0.000 A 
ATOM     25  F   UNL     1       2.331   7.459  17.902  0.00  0.00    +0.000 F 
ENDBRANCH  16  17
ENDBRANCH  14  16
ENDBRANCH   1  13
BRANCH  10  26
ATOM     26  O   UNL     1      -4.390  12.616  18.472  0.00  0.00    +0.000 OA
ATOM     27  H   UNL     1      -4.718  11.739  18.770  0.00  0.00    +0.000 HD
ENDBRANCH  10  26
BRANCH   7  28
ATOM     28  C   UNL     1      -2.669  12.080  22.680  0.00  0.00    +0.000 C 
BRANCH  28  29
ATOM     29  C   UNL     1      -2.452  13.305  23.536  0.00  0.00    +0.000 A 
ATOM     30  C   UNL     1      -1.259  14.033  23.548  0.00  0.00    +0.000 A 
ATOM     31  F   UNL     1      -0.226  13.683  22.770  0.00  0.00    +0.000 F 
ATOM     32  C   UNL     1      -1.083  15.144  24.373  0.00  0.00    +0.000 A 
ATOM     33  C   UNL     1      -2.116  15.570  25.199  0.00  0.00    +0.000 A 
ATOM     34  C   UNL     1      -3.324  14.878  25.197  0.00  0.00    +0.000 A 
ATOM     35  C   UNL     1      -3.488  13.755  24.378  0.00  0.00    +0.000 A 
ATOM     36 CL   UNL     1      -5.017  12.945  24.455  0.00  0.00    +0.000 Cl
ENDBRANCH  28  29
ENDBRANCH   7  28
TORSDOF 6
ENDMDL
MODEL 5
REMARK VINA RESULT:      -8.9      3.295      5.840
REMARK  Name = 
REMARK  6 active torsions:
REMARK  status: ('A' for Active; 'I' for Inactive)
REMARK    1  A    between atoms: C_2  and  C_14
REMARK    2  A    between atoms: N_3  and  C_4
REMARK    3  A    between atoms: C_4  and  C_5
REMARK    4  A    between atoms: N_20  and  C_21
REMARK    5  A    between atoms: C_21  and  C_22
REMARK    6  A    between atoms: N_32  and  O_33
REMARK                            x       y       z     vdW  Elec       q    Type
REMARK                         _______ _______ _______ _____ _____    ______ ____
ROOT
ATOM      1  C   UNL     1      -1.734  12.117  18.750  0.00  0.00    +0.000 A 
ATOM      2  C   UNL     1      -2.272  11.499  17.616  0.00  0.00    +0.000 A 
ATOM      3  C   UNL     1      -3.640  11.388  17.470  0.00  0.00    +0.000 A 
ATOM      4  C   UNL     1      -4.480  11.741  18.530  0.00  0.00    +0.000 A 
ATOM      5  C   UNL     1      -3.955  12.252  19.726  0.00  0.00    +0.000 A 
ATOM      6  C   UNL     1      -2.573  12.458  19.817  0.00  0.00    +0.000 A 
ATOM      7  N   UNL     1      -4.853  12.549  20.796  0.00  0.00    +0.000 N 
ATOM      8  C   UNL     1      -6.225  12.358  20.697  0.00  0.00    +0.000 C 
ATOM      9  O   UNL     1      -7.002  12.527  21.642  0.00  0.00    +0.000 OA
ATOM     10  N   UNL     1      -6.702  11.792  19.539  0.00  0.00    +0.000 N 
ATOM     11  C   UNL     1      -5.940  11.502  18.359  0.00  0.00    +0.000 C 
ENDROOT
BRANCH   1  13
ATOM     12  O   UNL     1       0.111  13.496  18.268  0.00  0.00    +0.000 OA
ATOM     13  C   UNL     1      -0.290  12.469  18.808  0.00  0.00    +0.000 C 
ATOM     14  N   UNL     1       0.590  11.618  19.454  0.00  0.00    +0.000 N 
ATOM     15  H   UNL     1       1.516  11.996  19.563  0.00  0.00    +0.000 HD
BRANCH  14  16
ATOM     16  C   UNL     1       0.254  10.369  20.095  0.00  0.00    +0.000 C 
BRANCH  16  17
ATOM     17  C   UNL     1       1.020   9.170  19.642  0.00  0.00    +0.000 A 
ATOM     18  C   UNL     1       1.493   9.066  18.340  0.00  0.00    +0.000 A 
ATOM     19  F   UNL     1       1.209  10.022  17.447  0.00  0.00    +0.000 F 
ATOM     20  C   UNL     1       2.298   8.002  17.958  0.00  0.00    +0.000 A 
ATOM     21  C   UNL     1       2.639   7.045  18.910  0.00  0.00    +0.000 A 
ATOM     22  F   UNL     1       3.435   6.027  18.547  0.00  0.00    +0.000 F 
ATOM     23  C   UNL     1       2.197   7.129  20.218  0.00  0.00    +0.000 A 
ATOM     24  C   UNL     1       1.392   8.195  20.576  0.00  0.00    +0.000 A 
ATOM     25  F   UNL     1       1.008   8.307  21.853  0.00  0.00    +0.000 F 
ENDBRANCH  16  17
ENDBRANCH  14  16
ENDBRANCH   1  13
BRANCH  10  26
ATOM     26  O   UNL     1      -7.719  10.821  19.764  0.00  0.00    +0.000 OA
ATOM     27  H   UNL     1      -7.677  10.288  18.940  0.00  0.00    +0.000 HD
ENDBRANCH  10  26
BRANCH   7  28
ATOM     28  C   UNL     1      -4.335  12.775  22.147  0.00  0.00    +0.000 C 
BRANCH  28  29
ATOM     29  C   UNL     1      -3.734  14.122  22.474  0.00  0.00    +0.000 A 
ATOM     30  C   UNL     1      -4.424  15.328  22.324  0.00  0.00    +0.000 A 
ATOM     31  F   UNL     1      -5.689  15.352  21.885  0.00  0.00    +0.000 F 
ATOM     32  C   UNL     1      -3.829  16.557  22.609  0.00  0.00    +0.000 A 
ATOM     33  C   UNL     1      -2.522  16.606  23.078  0.00  0.00    +0.000 A 
ATOM     34  C   UNL     1      -1.814  15.422  23.257  0.00  0.00    +0.000 A 
ATOM     35  C   UNL     1      -2.412  14.193  22.954  0.00  0.00    +0.000 A 
ATOM     36 CL   UNL     1      -1.449  12.773  23.189  0.00  0.00    +0.000 Cl
ENDBRANCH  28  29
ENDBRANCH   7  28
TORSDOF 6
ENDMDL
MODEL 6
REMARK VINA RESULT:      -8.8      3.849      8.963
REMARK  Name = 
REMARK  6 active torsions:
REMARK  status: ('A' for Active; 'I' for Inactive)
REMARK    1  A    between atoms: C_2  and  C_14
REMARK    2  A    between atoms: N_3  and  C_4
REMARK    3  A    between atoms: C_4  and  C_5
REMARK    4  A    between atoms: N_20  and  C_21
REMARK    5  A    between atoms: C_21  and  C_22
REMARK    6  A    between atoms: N_32  and  O_33
REMARK                            x       y       z     vdW  Elec       q    Type
REMARK                         _______ _______ _______ _____ _____    ______ ____
ROOT
ATOM      1  C   UNL     1       1.493   8.852  19.114  0.00  0.00    +0.000 A 
ATOM      2  C   UNL     1       0.880   8.715  20.365  0.00  0.00    +0.000 A 
ATOM      3  C   UNL     1       1.142   7.609  21.147  0.00  0.00    +0.000 A 
ATOM      4  C   UNL     1       1.886   6.549  20.621  0.00  0.00    +0.000 A 
ATOM      5  C   UNL     1       2.411   6.612  19.322  0.00  0.00    +0.000 A 
ATOM      6  C   UNL     1       2.226   7.786  18.581  0.00  0.00    +0.000 A 
ATOM      7  N   UNL     1       3.120   5.481  18.814  0.00  0.00    +0.000 N 
ATOM      8  C   UNL     1       3.314   4.325  19.558  0.00  0.00    +0.000 C 
ATOM      9  O   UNL     1       3.847   3.308  19.101  0.00  0.00    +0.000 OA
ATOM     10  N   UNL     1       2.729   4.266  20.800  0.00  0.00    +0.000 N 
ATOM     11  C   UNL     1       2.048   5.336  21.469  0.00  0.00    +0.000 C 
ENDROOT
BRANCH   1  13
ATOM     12  O   UNL     1       2.386  10.903  18.382  0.00  0.00    +0.000 OA
ATOM     13  C   UNL     1       1.424  10.141  18.373  0.00  0.00    +0.000 C 
ATOM     14  N   UNL     1       0.261  10.473  17.700  0.00  0.00    +0.000 N 
ATOM     15  H   UNL     1       0.347  11.291  17.119  0.00  0.00    +0.000 HD
BRANCH  14  16
ATOM     16  C   UNL     1      -0.947   9.685  17.642  0.00  0.00    +0.000 C 
BRANCH  16  17
ATOM     17  C   UNL     1      -2.211  10.437  17.377  0.00  0.00    +0.000 A 
ATOM     18  C   UNL     1      -2.923  10.257  16.198  0.00  0.00    +0.000 A 
ATOM     19  F   UNL     1      -2.447   9.444  15.247  0.00  0.00    +0.000 F 
ATOM     20  C   UNL     1      -4.152  10.874  16.008  0.00  0.00    +0.000 A 
ATOM     21  C   UNL     1      -4.667  11.667  17.029  0.00  0.00    +0.000 A 
ATOM     22  F   UNL     1      -5.865  12.247  16.854  0.00  0.00    +0.000 F 
ATOM     23  C   UNL     1      -3.989  11.853  18.220  0.00  0.00    +0.000 A 
ATOM     24  C   UNL     1      -2.765  11.233  18.387  0.00  0.00    +0.000 A 
ATOM     25  F   UNL     1      -2.133  11.368  19.559  0.00  0.00    +0.000 F 
ENDBRANCH  16  17
ENDBRANCH  14  16
ENDBRANCH   1  13
BRANCH  10  26
ATOM     26  O   UNL     1       2.138   3.002  21.084  0.00  0.00    +0.000 OA
ATOM     27  H   UNL     1       2.446   2.458  20.328  0.00  0.00    +0.000 HD
ENDBRANCH  10  26
BRANCH   7  28
ATOM     28  C   UNL     1       3.403   5.376  17.381  0.00  0.00    +0.000 C 
BRANCH  28  29
ATOM     29  C   UNL     1       4.843   5.404  16.926  0.00  0.00    +0.000 A 
ATOM     30  C   UNL     1       5.682   6.509  17.096  0.00  0.00    +0.000 A 
ATOM     31  F   UNL     1       5.246   7.622  17.700  0.00  0.00    +0.000 F 
ATOM     32  C   UNL     1       6.999   6.510  16.638  0.00  0.00    +0.000 A 
ATOM     33  C   UNL     1       7.521   5.385  16.011  0.00  0.00    +0.000 A 
ATOM     34  C   UNL     1       6.717   4.260  15.843  0.00  0.00    +0.000 A 
ATOM     35  C   UNL     1       5.392   4.271  16.291  0.00  0.00    +0.000 A 
ATOM     36 CL   UNL     1       4.460   2.836  16.022  0.00  0.00    +0.000 Cl
ENDBRANCH  28  29
ENDBRANCH   7  28
TORSDOF 6
ENDMDL
MODEL 7
REMARK VINA RESULT:      -8.8      3.180      5.454
REMARK  Name = 
REMARK  6 active torsions:
REMARK  status: ('A' for Active; 'I' for Inactive)
REMARK    1  A    between atoms: C_2  and  C_14
REMARK    2  A    between atoms: N_3  and  C_4
REMARK    3  A    between atoms: C_4  and  C_5
REMARK    4  A    between atoms: N_20  and  C_21
REMARK    5  A    between atoms: C_21  and  C_22
REMARK    6  A    between atoms: N_32  and  O_33
REMARK                            x       y       z     vdW  Elec       q    Type
REMARK                         _______ _______ _______ _____ _____    ______ ____
ROOT
ATOM      1  C   UNL     1      -1.223  11.755  18.913  0.00  0.00    +0.000 A 
ATOM      2  C   UNL     1      -1.494  11.080  17.717  0.00  0.00    +0.000 A 
ATOM      3  C   UNL     1      -2.787  11.006  17.241  0.00  0.00    +0.000 A 
ATOM      4  C   UNL     1      -3.845  11.458  18.035  0.00  0.00    +0.000 A 
ATOM      5  C   UNL     1      -3.607  12.031  19.293  0.00  0.00    +0.000 A 
ATOM      6  C   UNL     1      -2.282  12.195  19.715  0.00  0.00    +0.000 A 
ATOM      7  N   UNL     1      -4.725  12.430  20.086  0.00  0.00    +0.000 N 
ATOM      8  C   UNL     1      -6.038  12.280  19.658  0.00  0.00    +0.000 C 
ATOM      9  O   UNL     1      -7.016  12.538  20.368  0.00  0.00    +0.000 OA
ATOM     10  N   UNL     1      -6.242  11.653  18.452  0.00  0.00    +0.000 N 
ATOM     11  C   UNL     1      -5.227  11.258  17.518  0.00  0.00    +0.000 C 
ENDROOT
BRANCH   1  13
ATOM     12  O   UNL     1       0.617  13.198  19.169  0.00  0.00    +0.000 OA
ATOM     13  C   UNL     1       0.177  12.061  19.309  0.00  0.00    +0.000 C 
ATOM     14  N   UNL     1       0.976  11.049  19.812  0.00  0.00    +0.000 N 
ATOM     15  H   UNL     1       1.857  11.368  20.178  0.00  0.00    +0.000 HD
BRANCH  14  16
ATOM     16  C   UNL     1       0.593   9.668  19.992  0.00  0.00    +0.000 C 
BRANCH  16  17
ATOM     17  C   UNL     1       1.540   8.647  19.453  0.00  0.00    +0.000 A 
ATOM     18  C   UNL     1       1.868   7.511  20.183  0.00  0.00    +0.000 A 
ATOM     19  F   UNL     1       1.380   7.346  21.419  0.00  0.00    +0.000 F 
ATOM     20  C   UNL     1       2.660   6.514  19.631  0.00  0.00    +0.000 A 
ATOM     21  C   UNL     1       3.111   6.665  18.323  0.00  0.00    +0.000 A 
ATOM     22  F   UNL     1       3.860   5.692  17.781  0.00  0.00    +0.000 F 
ATOM     23  C   UNL     1       2.789   7.777  17.566  0.00  0.00    +0.000 A 
ATOM     24  C   UNL     1       2.002   8.760  18.136  0.00  0.00    +0.000 A 
ATOM     25  F   UNL     1       1.645   9.811  17.388  0.00  0.00    +0.000 F 
ENDBRANCH  16  17
ENDBRANCH  14  16
ENDBRANCH   1  13
BRANCH  10  26
ATOM     26  O   UNL     1      -7.330  10.734  18.471  0.00  0.00    +0.000 OA
ATOM     27  H   UNL     1      -6.961   9.973  17.973  0.00  0.00    +0.000 HD
ENDBRANCH  10  26
BRANCH   7  28
ATOM     28  C   UNL     1      -4.547  12.730  21.508  0.00  0.00    +0.000 C 
BRANCH  28  29
ATOM     29  C   UNL     1      -3.996  14.081  21.898  0.00  0.00    +0.000 A 
ATOM     30  C   UNL     1      -4.561  15.290  21.484  0.00  0.00    +0.000 A 
ATOM     31  F   UNL     1      -5.655  15.314  20.713  0.00  0.00    +0.000 F 
ATOM     32  C   UNL     1      -4.009  16.520  21.840  0.00  0.00    +0.000 A 
ATOM     33  C   UNL     1      -2.878  16.570  22.646  0.00  0.00    +0.000 A 
ATOM     34  C   UNL     1      -2.302  15.384  23.092  0.00  0.00    +0.000 A 
ATOM     35  C   UNL     1      -2.852  14.153  22.718  0.00  0.00    +0.000 A 
ATOM     36 CL   UNL     1      -2.058  12.729  23.303  0.00  0.00    +0.000 Cl
ENDBRANCH  28  29
ENDBRANCH   7  28
TORSDOF 6
ENDMDL
MODEL 8
REMARK VINA RESULT:      -8.8      5.275      8.041
REMARK  Name = 
REMARK  6 active torsions:
REMARK  status: ('A' for Active; 'I' for Inactive)
REMARK    1  A    between atoms: C_2  and  C_14
REMARK    2  A    between atoms: N_3  and  C_4
REMARK    3  A    between atoms: C_4  and  C_5
REMARK    4  A    between atoms: N_20  and  C_21
REMARK    5  A    between atoms: C_21  and  C_22
REMARK    6  A    between atoms: N_32  and  O_33
REMARK                            x       y       z     vdW  Elec       q    Type
REMARK                         _______ _______ _______ _____ _____    ______ ____
ROOT
ATOM      1  C   UNL     1      -0.877  10.819  18.898  0.00  0.00    +0.000 A 
ATOM      2  C   UNL     1      -1.162  10.233  17.660  0.00  0.00    +0.000 A 
ATOM      3  C   UNL     1      -2.350  10.515  17.016  0.00  0.00    +0.000 A 
ATOM      4  C   UNL     1      -3.337  11.252  17.676  0.00  0.00    +0.000 A 
ATOM      5  C   UNL     1      -3.120  11.750  18.969  0.00  0.00    +0.000 A 
ATOM      6  C   UNL     1      -1.870  11.545  19.566  0.00  0.00    +0.000 A 
ATOM      7  N   UNL     1      -4.181  12.453  19.619  0.00  0.00    +0.000 N 
ATOM      8  C   UNL     1      -5.414  12.667  19.018  0.00  0.00    +0.000 C 
ATOM      9  O   UNL     1      -6.368  13.195  19.600  0.00  0.00    +0.000 OA
ATOM     10  N   UNL     1      -5.620  12.109  17.780  0.00  0.00    +0.000 N 
ATOM     11  C   UNL     1      -4.639  11.437  16.977  0.00  0.00    +0.000 C 
ENDROOT
BRANCH   1  13
ATOM     12  O   UNL     1       0.752   9.834  20.281  0.00  0.00    +0.000 OA
ATOM     13  C   UNL     1       0.487  10.729  19.484  0.00  0.00    +0.000 C 
ATOM     14  N   UNL     1       1.437  11.674  19.137  0.00  0.00    +0.000 N 
ATOM     15  H   UNL     1       2.363  11.462  19.470  0.00  0.00    +0.000 HD
BRANCH  14  16
ATOM     16  C   UNL     1       1.243  12.792  18.243  0.00  0.00    +0.000 C 
BRANCH  16  17
ATOM     17  C   UNL     1       1.599  14.137  18.786  0.00  0.00    +0.000 A 
ATOM     18  C   UNL     1       2.882  14.652  18.653  0.00  0.00    +0.000 A 
ATOM     19  F   UNL     1       3.844  13.914  18.086  0.00  0.00    +0.000 F 
ATOM     20  C   UNL     1       3.175  15.946  19.060  0.00  0.00    +0.000 A 
ATOM     21  C   UNL     1       2.153  16.728  19.592  0.00  0.00    +0.000 A 
ATOM     22  F   UNL     1       2.430  17.987  19.966  0.00  0.00    +0.000 F 
ATOM     23  C   UNL     1       0.863  16.249  19.722  0.00  0.00    +0.000 A 
ATOM     24  C   UNL     1       0.593  14.956  19.314  0.00  0.00    +0.000 A 
ATOM     25  F   UNL     1      -0.666  14.509  19.390  0.00  0.00    +0.000 F 
ENDBRANCH  16  17
ENDBRANCH  14  16
ENDBRANCH   1  13
BRANCH  10  26
ATOM     26  O   UNL     1      -6.912  11.528  17.631  0.00  0.00    +0.000 OA
ATOM     27  H   UNL     1      -7.457  12.092  18.222  0.00  0.00    +0.000 HD
ENDBRANCH  10  26
BRANCH   7  28
ATOM     28  C   UNL     1      -4.118  12.707  21.060  0.00  0.00    +0.000 C 
BRANCH  28  29
ATOM     29  C   UNL     1      -3.251  13.839  21.556  0.00  0.00    +0.000 A 
ATOM     30  C   UNL     1      -3.416  15.168  21.153  0.00  0.00    +0.000 A 
ATOM     31  F   UNL     1      -4.384  15.516  20.296  0.00  0.00    +0.000 F 
ATOM     32  C   UNL     1      -2.578  16.185  21.610  0.00  0.00    +0.000 A 
ATOM     33  C   UNL     1      -1.558  15.897  22.510  0.00  0.00    +0.000 A 
ATOM     34  C   UNL     1      -1.379  14.587  22.946  0.00  0.00    +0.000 A 
ATOM     35  C   UNL     1      -2.213  13.569  22.471  0.00  0.00    +0.000 A 
ATOM     36 CL   UNL     1      -1.905  11.967  23.052  0.00  0.00    +0.000 Cl
ENDBRANCH  28  29
ENDBRANCH   7  28
TORSDOF 6
ENDMDL
MODEL 9
REMARK VINA RESULT:      -8.8      3.828      9.009
REMARK  Name = 
REMARK  6 active torsions:
REMARK  status: ('A' for Active; 'I' for Inactive)
REMARK    1  A    between atoms: C_2  and  C_14
REMARK    2  A    between atoms: N_3  and  C_4
REMARK    3  A    between atoms: C_4  and  C_5
REMARK    4  A    between atoms: N_20  and  C_21
REMARK    5  A    between atoms: C_21  and  C_22
REMARK    6  A    between atoms: N_32  and  O_33
REMARK                            x       y       z     vdW  Elec       q    Type
REMARK                         _______ _______ _______ _____ _____    ______ ____
ROOT
ATOM      1  C   UNL     1       1.904   8.216  18.848  0.00  0.00    +0.000 A 
ATOM      2  C   UNL     1       1.266   8.151  20.092  0.00  0.00    +0.000 A 
ATOM      3  C   UNL     1       1.409   7.030  20.886  0.00  0.00    +0.000 A 
ATOM      4  C   UNL     1       2.050   5.897  20.376  0.00  0.00    +0.000 A 
ATOM      5  C   UNL     1       2.593   5.898  19.083  0.00  0.00    +0.000 A 
ATOM      6  C   UNL     1       2.534   7.078  18.331  0.00  0.00    +0.000 A 
ATOM      7  N   UNL     1       3.192   4.698  18.591  0.00  0.00    +0.000 N 
ATOM      8  C   UNL     1       3.263   3.534  19.346  0.00  0.00    +0.000 C 
ATOM      9  O   UNL     1       3.697   2.466  18.903  0.00  0.00    +0.000 OA
ATOM     10  N   UNL     1       2.661   3.544  20.581  0.00  0.00    +0.000 N 
ATOM     11  C   UNL     1       2.082   4.682  21.235  0.00  0.00    +0.000 C 
ENDROOT
BRANCH   1  13
ATOM     12  O   UNL     1       2.954   9.752  17.407  0.00  0.00    +0.000 OA
ATOM     13  C   UNL     1       1.971   9.498  18.097  0.00  0.00    +0.000 C 
ATOM     14  N   UNL     1       0.928  10.402  18.205  0.00  0.00    +0.000 N 
ATOM     15  H   UNL     1       0.991  11.175  17.564  0.00  0.00    +0.000 HD
BRANCH  14  16
ATOM     16  C   UNL     1      -0.262  10.241  19.007  0.00  0.00    +0.000 C 
BRANCH  16  17
ATOM     17  C   UNL     1      -1.550  10.632  18.359  0.00  0.00    +0.000 A 
ATOM     18  C   UNL     1      -1.990  10.012  17.197  0.00  0.00    +0.000 A 
ATOM     19  F   UNL     1      -1.226   9.088  16.601  0.00  0.00    +0.000 F 
ATOM     20  C   UNL     1      -3.238  10.303  16.664  0.00  0.00    +0.000 A 
ATOM     21  C   UNL     1      -4.051  11.219  17.325  0.00  0.00    +0.000 A 
ATOM     22  F   UNL     1      -5.267  11.485  16.823  0.00  0.00    +0.000 F 
ATOM     23  C   UNL     1      -3.648  11.840  18.493  0.00  0.00    +0.000 A 
ATOM     24  C   UNL     1      -2.399  11.540  19.005  0.00  0.00    +0.000 A 
ATOM     25  F   UNL     1      -2.028  12.100  20.162  0.00  0.00    +0.000 F 
ENDBRANCH  16  17
ENDBRANCH  14  16
ENDBRANCH   1  13
BRANCH  10  26
ATOM     26  O   UNL     1       1.944   2.347  20.868  0.00  0.00    +0.000 OA
ATOM     27  H   UNL     1       2.463   1.973  21.613  0.00  0.00    +0.000 HD
ENDBRANCH  10  26
BRANCH   7  28
ATOM     28  C   UNL     1       3.480   4.553  17.163  0.00  0.00    +0.000 C 
BRANCH  28  29
ATOM     29  C   UNL     1       4.914   4.656  16.701  0.00  0.00    +0.000 A 
ATOM     30  C   UNL     1       5.319   4.395  15.389  0.00  0.00    +0.000 A 
ATOM     31  F   UNL     1       4.433   4.047  14.447  0.00  0.00    +0.000 F 
ATOM     32  C   UNL     1       6.657   4.473  15.003  0.00  0.00    +0.000 A 
ATOM     33  C   UNL     1       7.629   4.839  15.927  0.00  0.00    +0.000 A 
ATOM     34  C   UNL     1       7.256   5.123  17.237  0.00  0.00    +0.000 A 
ATOM     35  C   UNL     1       5.914   5.028  17.621  0.00  0.00    +0.000 A 
ATOM     36 CL   UNL     1       5.544   5.381  19.276  0.00  0.00    +0.000 Cl
ENDBRANCH  28  29
ENDBRANCH   7  28
TORSDOF 6
ENDMDL
