MODEL 1
REMARK VINA RESULT:      -6.2      0.000      0.000
REMARK  Name = 
REMARK  3 active torsions:
REMARK  status: ('A' for Active; 'I' for Inactive)
REMARK    1  A    between atoms: C_2  and  C_3
REMARK    2  A    between atoms: C_13  and  O_14
REMARK    3  A    between atoms: O_14  and  C_15
REMARK                            x       y       z     vdW  Elec       q    Type
REMARK                         _______ _______ _______ _____ _____    ______ ____
ROOT
ATOM      1  O   UNL     1       2.236  11.247  17.765  0.00  0.00    +0.000 OA
ATOM      2  C   UNL     1       1.438  11.108  18.687  0.00  0.00    +0.000 C 
ATOM      3  N   UNL     1       0.773   9.896  18.932  0.00  0.00    +0.000 N 
ATOM      4  C   UNL     1      -0.331   9.763  19.899  0.00  0.00    +0.000 C 
ATOM      5  C   UNL     1       0.198   9.198  21.232  0.00  0.00    +0.000 C 
ATOM      6  O   UNL     1       0.855   7.934  21.024  0.00  0.00    +0.000 OA
ATOM      7  C   UNL     1       1.922   8.070  20.072  0.00  0.00    +0.000 C 
ATOM      8  C   UNL     1       2.592   6.750  19.676  0.00  0.00    +0.000 C 
ATOM      9  C   UNL     1       3.289   7.108  18.347  0.00  0.00    +0.000 C 
ATOM     10  C   UNL     1       2.616   8.390  17.814  0.00  0.00    +0.000 C 
ATOM     11  C   UNL     1       1.405   8.594  18.719  0.00  0.00    +0.000 C 
ENDROOT
BRANCH   2  12
ATOM     12  C   UNL     1       1.141  12.245  19.588  0.00  0.00    +0.000 A 
ATOM     13  C   UNL     1       0.236  13.253  19.297  0.00  0.00    +0.000 A 
ATOM     14  S   UNL     1       0.151  14.378  20.595  0.00  0.00    +0.000 S 
ATOM     15  C   UNL     1       1.353  13.497  21.423  0.00  0.00    +0.000 A 
ATOM     16  N   UNL     1       1.810  12.435  20.801  0.00  0.00    +0.000 NA
ENDBRANCH   2  12
BRANCH   8  17
ATOM     17  O   UNL     1       1.614   5.736  19.390  0.00  0.00    +0.000 OA
BRANCH  17  18
ATOM     18  C   UNL     1       2.170   4.494  19.157  0.00  0.00    +0.000 A 
ATOM     19  C   UNL     1       1.794   3.851  17.988  0.00  0.00    +0.000 A 
ATOM     20  C   UNL     1       2.338   2.598  17.720  0.00  0.00    +0.000 A 
ATOM     21  C   UNL     1       3.253   2.052  18.612  0.00  0.00    +0.000 A 
ATOM     22  C   UNL     1       3.594   2.790  19.734  0.00  0.00    +0.000 A 
ATOM     23  N   UNL     1       3.080   4.003  20.024  0.00  0.00    +0.000 NA
ENDBRANCH  17  18
ENDBRANCH   8  17
TORSDOF 3
ENDMDL
MODEL 2
REMARK VINA RESULT:      -6.1      2.380      3.485
REMARK  Name = 
REMARK  3 active torsions:
REMARK  status: ('A' for Active; 'I' for Inactive)
REMARK    1  A    between atoms: C_2  and  C_3
REMARK    2  A    between atoms: C_13  and  O_14
REMARK    3  A    between atoms: O_14  and  C_15
REMARK                            x       y       z     vdW  Elec       q    Type
REMARK                         _______ _______ _______ _____ _____    ______ ____
ROOT
ATOM      1  O   UNL     1      -0.310   8.593  21.501  0.00  0.00    +0.000 OA
ATOM      2  C   UNL     1       0.079   9.348  20.615  0.00  0.00    +0.000 C 
ATOM      3  N   UNL     1       1.358   9.245  20.046  0.00  0.00    +0.000 N 
ATOM      4  C   UNL     1       1.918  10.256  19.132  0.00  0.00    +0.000 C 
ATOM      5  C   UNL     1       1.746   9.802  17.670  0.00  0.00    +0.000 C 
ATOM      6  O   UNL     1       2.364   8.519  17.459  0.00  0.00    +0.000 OA
ATOM      7  C   UNL     1       1.822   7.543  18.360  0.00  0.00    +0.000 C 
ATOM      8  C   UNL     1       2.517   6.177  18.311  0.00  0.00    +0.000 C 
ATOM      9  C   UNL     1       2.107   5.539  19.655  0.00  0.00    +0.000 C 
ATOM     10  C   UNL     1       1.644   6.686  20.578  0.00  0.00    +0.000 C 
ATOM     11  C   UNL     1       2.023   7.959  19.830  0.00  0.00    +0.000 C 
ENDROOT
BRANCH   2  12
ATOM     12  C   UNL     1      -0.808  10.421  20.112  0.00  0.00    +0.000 A 
ATOM     13  C   UNL     1      -1.073  11.597  20.796  0.00  0.00    +0.000 A 
ATOM     14  S   UNL     1      -2.130  12.600  19.881  0.00  0.00    +0.000 S 
ATOM     15  C   UNL     1      -2.215  11.394  18.679  0.00  0.00    +0.000 A 
ATOM     16  N   UNL     1      -1.519  10.305  18.914  0.00  0.00    +0.000 NA
ENDBRANCH   2  12
BRANCH   8  17
ATOM     17  O   UNL     1       3.947   6.322  18.321  0.00  0.00    +0.000 OA
BRANCH  17  18
ATOM     18  C   UNL     1       4.569   5.640  17.294  0.00  0.00    +0.000 A 
ATOM     19  C   UNL     1       5.001   6.396  16.215  0.00  0.00    +0.000 A 
ATOM     20  C   UNL     1       5.636   5.741  15.163  0.00  0.00    +0.000 A 
ATOM     21  C   UNL     1       5.837   4.368  15.243  0.00  0.00    +0.000 A 
ATOM     22  C   UNL     1       5.404   3.707  16.381  0.00  0.00    +0.000 A 
ATOM     23  N   UNL     1       4.781   4.313  17.413  0.00  0.00    +0.000 NA
ENDBRANCH  17  18
ENDBRANCH   8  17
TORSDOF 3
ENDMDL
MODEL 3
REMARK VINA RESULT:      -6.1      2.586      3.413
REMARK  Name = 
REMARK  3 active torsions:
REMARK  status: ('A' for Active; 'I' for Inactive)
REMARK    1  A    between atoms: C_2  and  C_3
REMARK    2  A    between atoms: C_13  and  O_14
REMARK    3  A    between atoms: O_14  and  C_15
REMARK                            x       y       z     vdW  Elec       q    Type
REMARK                         _______ _______ _______ _____ _____    ______ ____
ROOT
ATOM      1  O   UNL     1      -0.607   8.600  21.260  0.00  0.00    +0.000 OA
ATOM      2  C   UNL     1      -0.108   9.305  20.388  0.00  0.00    +0.000 C 
ATOM      3  N   UNL     1       1.247   9.217  20.032  0.00  0.00    +0.000 N 
ATOM      4  C   UNL     1       1.910  10.183  19.137  0.00  0.00    +0.000 C 
ATOM      5  C   UNL     1       1.983   9.616  17.707  0.00  0.00    +0.000 C 
ATOM      6  O   UNL     1       2.668   8.350  17.695  0.00  0.00    +0.000 OA
ATOM      7  C   UNL     1       2.023   7.419  18.577  0.00  0.00    +0.000 C 
ATOM      8  C   UNL     1       2.760   6.086  18.743  0.00  0.00    +0.000 C 
ATOM      9  C   UNL     1       2.167   5.529  20.054  0.00  0.00    +0.000 C 
ATOM     10  C   UNL     1       1.528   6.719  20.802  0.00  0.00    +0.000 C 
ATOM     11  C   UNL     1       1.978   7.950  20.022  0.00  0.00    +0.000 C 
ENDROOT
BRANCH   2  12
ATOM     12  C   UNL     1      -0.940  10.298  19.671  0.00  0.00    +0.000 A 
ATOM     13  C   UNL     1      -1.544  10.068  18.445  0.00  0.00    +0.000 A 
ATOM     14  S   UNL     1      -2.441  11.449  17.948  0.00  0.00    +0.000 S 
ATOM     15  C   UNL     1      -1.924  12.274  19.347  0.00  0.00    +0.000 A 
ATOM     16  N   UNL     1      -1.134  11.598  20.148  0.00  0.00    +0.000 NA
ENDBRANCH   2  12
BRANCH   8  17
ATOM     17  O   UNL     1       4.166   6.293  18.960  0.00  0.00    +0.000 OA
BRANCH  17  18
ATOM     18  C   UNL     1       4.962   5.593  18.076  0.00  0.00    +0.000 A 
ATOM     19  C   UNL     1       4.365   5.168  16.900  0.00  0.00    +0.000 A 
ATOM     20  C   UNL     1       5.140   4.461  15.984  0.00  0.00    +0.000 A 
ATOM     21  C   UNL     1       6.482   4.233  16.266  0.00  0.00    +0.000 A 
ATOM     22  C   UNL     1       6.996   4.732  17.452  0.00  0.00    +0.000 A 
ATOM     23  N   UNL     1       6.269   5.414  18.362  0.00  0.00    +0.000 NA
ENDBRANCH  17  18
ENDBRANCH   8  17
TORSDOF 3
ENDMDL
MODEL 4
REMARK VINA RESULT:      -6.1      1.055      1.152
REMARK  Name = 
REMARK  3 active torsions:
REMARK  status: ('A' for Active; 'I' for Inactive)
REMARK    1  A    between atoms: C_2  and  C_3
REMARK    2  A    between atoms: C_13  and  O_14
REMARK    3  A    between atoms: O_14  and  C_15
REMARK                            x       y       z     vdW  Elec       q    Type
REMARK                         _______ _______ _______ _____ _____    ______ ____
ROOT
ATOM      1  O   UNL     1       2.281  11.554  17.825  0.00  0.00    +0.000 OA
ATOM      2  C   UNL     1       1.478  11.412  18.742  0.00  0.00    +0.000 C 
ATOM      3  N   UNL     1       0.765  10.220  18.941  0.00  0.00    +0.000 N 
ATOM      4  C   UNL     1      -0.344  10.094  19.904  0.00  0.00    +0.000 C 
ATOM      5  C   UNL     1       0.162   9.458  21.213  0.00  0.00    +0.000 C 
ATOM      6  O   UNL     1       0.768   8.177  20.956  0.00  0.00    +0.000 OA
ATOM      7  C   UNL     1       1.839   8.307  20.009  0.00  0.00    +0.000 C 
ATOM      8  C   UNL     1       2.455   6.977  19.561  0.00  0.00    +0.000 C 
ATOM      9  C   UNL     1       3.167   7.357  18.246  0.00  0.00    +0.000 C 
ATOM     10  C   UNL     1       2.545   8.685  17.763  0.00  0.00    +0.000 C 
ATOM     11  C   UNL     1       1.344   8.902  18.677  0.00  0.00    +0.000 C 
ENDROOT
BRANCH   2  12
ATOM     12  C   UNL     1       1.227  12.524  19.686  0.00  0.00    +0.000 A 
ATOM     13  C   UNL     1       0.213  13.458  19.538  0.00  0.00    +0.000 A 
ATOM     14  S   UNL     1       0.229  14.577  20.844  0.00  0.00    +0.000 S 
ATOM     15  C   UNL     1       1.604  13.795  21.481  0.00  0.00    +0.000 A 
ATOM     16  N   UNL     1       2.047  12.770  20.791  0.00  0.00    +0.000 NA
ENDBRANCH   2  12
BRANCH   8  17
ATOM     17  O   UNL     1       1.438   6.015  19.238  0.00  0.00    +0.000 OA
BRANCH  17  18
ATOM     18  C   UNL     1       1.560   4.835  19.944  0.00  0.00    +0.000 A 
ATOM     19  C   UNL     1       1.097   3.685  19.324  0.00  0.00    +0.000 A 
ATOM     20  C   UNL     1       1.207   2.477  20.007  0.00  0.00    +0.000 A 
ATOM     21  C   UNL     1       1.798   2.462  21.265  0.00  0.00    +0.000 A 
ATOM     22  C   UNL     1       2.265   3.659  21.784  0.00  0.00    +0.000 A 
ATOM     23  N   UNL     1       2.167   4.845  21.150  0.00  0.00    +0.000 NA
ENDBRANCH  17  18
ENDBRANCH   8  17
TORSDOF 3
ENDMDL
MODEL 5
REMARK VINA RESULT:      -5.9      1.156      1.470
REMARK  Name = 
REMARK  3 active torsions:
REMARK  status: ('A' for Active; 'I' for Inactive)
REMARK    1  A    between atoms: C_2  and  C_3
REMARK    2  A    between atoms: C_13  and  O_14
REMARK    3  A    between atoms: O_14  and  C_15
REMARK                            x       y       z     vdW  Elec       q    Type
REMARK                         _______ _______ _______ _____ _____    ______ ____
ROOT
ATOM      1  O   UNL     1       2.310  11.214  17.472  0.00  0.00    +0.000 OA
ATOM      2  C   UNL     1       1.536  11.067  18.412  0.00  0.00    +0.000 C 
ATOM      3  N   UNL     1       0.906   9.843  18.684  0.00  0.00    +0.000 N 
ATOM      4  C   UNL     1      -0.174   9.694  19.676  0.00  0.00    +0.000 C 
ATOM      5  C   UNL     1       0.396   9.158  21.003  0.00  0.00    +0.000 C 
ATOM      6  O   UNL     1       1.080   7.908  20.795  0.00  0.00    +0.000 OA
ATOM      7  C   UNL     1       2.122   8.058  19.820  0.00  0.00    +0.000 C 
ATOM      8  C   UNL     1       2.815   6.750  19.424  0.00  0.00    +0.000 C 
ATOM      9  C   UNL     1       3.476   7.109  18.077  0.00  0.00    +0.000 C 
ATOM     10  C   UNL     1       2.760   8.368  17.543  0.00  0.00    +0.000 C 
ATOM     11  C   UNL     1       1.564   8.553  18.472  0.00  0.00    +0.000 C 
ENDROOT
BRANCH   2  12
ATOM     12  C   UNL     1       1.230  12.207  19.307  0.00  0.00    +0.000 A 
ATOM     13  C   UNL     1       1.927  12.491  20.470  0.00  0.00    +0.000 A 
ATOM     14  S   UNL     1       1.291  13.901  21.223  0.00  0.00    +0.000 S 
ATOM     15  C   UNL     1       0.106  14.004  20.002  0.00  0.00    +0.000 A 
ATOM     16  N   UNL     1       0.151  13.067  19.084  0.00  0.00    +0.000 NA
ENDBRANCH   2  12
BRANCH   8  17
ATOM     17  O   UNL     1       1.856   5.710  19.170  0.00  0.00    +0.000 OA
BRANCH  17  18
ATOM     18  C   UNL     1       2.100   4.557  19.890  0.00  0.00    +0.000 A 
ATOM     19  C   UNL     1       1.060   4.076  20.670  0.00  0.00    +0.000 A 
ATOM     20  C   UNL     1       1.271   2.914  21.407  0.00  0.00    +0.000 A 
ATOM     21  C   UNL     1       2.497   2.266  21.313  0.00  0.00    +0.000 A 
ATOM     22  C   UNL     1       3.461   2.804  20.475  0.00  0.00    +0.000 A 
ATOM     23  N   UNL     1       3.288   3.931  19.754  0.00  0.00    +0.000 NA
ENDBRANCH  17  18
ENDBRANCH   8  17
TORSDOF 3
ENDMDL
MODEL 6
REMARK VINA RESULT:      -5.9      0.595      1.014
REMARK  Name = 
REMARK  3 active torsions:
REMARK  status: ('A' for Active; 'I' for Inactive)
REMARK    1  A    between atoms: C_2  and  C_3
REMARK    2  A    between atoms: C_13  and  O_14
REMARK    3  A    between atoms: O_14  and  C_15
REMARK                            x       y       z     vdW  Elec       q    Type
REMARK                         _______ _______ _______ _____ _____    ______ ____
ROOT
ATOM      1  O   UNL     1       2.223  11.051  17.638  0.00  0.00    +0.000 OA
ATOM      2  C   UNL     1       1.436  10.965  18.576  0.00  0.00    +0.000 C 
ATOM      3  N   UNL     1       0.764   9.772  18.888  0.00  0.00    +0.000 N 
ATOM      4  C   UNL     1      -0.329   9.696  19.874  0.00  0.00    +0.000 C 
ATOM      5  C   UNL     1       0.213   9.191  21.226  0.00  0.00    +0.000 C 
ATOM      6  O   UNL     1       0.857   7.913  21.071  0.00  0.00    +0.000 OA
ATOM      7  C   UNL     1       1.911   7.993  20.100  0.00  0.00    +0.000 C 
ATOM      8  C   UNL     1       2.565   6.649  19.760  0.00  0.00    +0.000 C 
ATOM      9  C   UNL     1       3.248   6.936  18.407  0.00  0.00    +0.000 C 
ATOM     10  C   UNL     1       2.578   8.197  17.820  0.00  0.00    +0.000 C 
ATOM     11  C   UNL     1       1.382   8.455  18.729  0.00  0.00    +0.000 C 
ENDROOT
BRANCH   2  12
ATOM     12  C   UNL     1       1.160  12.146  19.425  0.00  0.00    +0.000 A 
ATOM     13  C   UNL     1       0.347  13.203  19.047  0.00  0.00    +0.000 A 
ATOM     14  S   UNL     1       0.257  14.372  20.307  0.00  0.00    +0.000 S 
ATOM     15  C   UNL     1       1.340  13.438  21.235  0.00  0.00    +0.000 A 
ATOM     16  N   UNL     1       1.762  12.329  20.673  0.00  0.00    +0.000 NA
ENDBRANCH   2  12
BRANCH   8  17
ATOM     17  O   UNL     1       1.574   5.632  19.535  0.00  0.00    +0.000 OA
BRANCH  17  18
ATOM     18  C   UNL     1       2.118   4.404  19.212  0.00  0.00    +0.000 A 
ATOM     19  C   UNL     1       2.988   3.844  20.134  0.00  0.00    +0.000 A 
ATOM     20  C   UNL     1       3.553   2.606  19.841  0.00  0.00    +0.000 A 
ATOM     21  C   UNL     1       3.206   1.967  18.656  0.00  0.00    +0.000 A 
ATOM     22  C   UNL     1       2.297   2.591  17.817  0.00  0.00    +0.000 A 
ATOM     23  N   UNL     1       1.739   3.793  18.070  0.00  0.00    +0.000 NA
ENDBRANCH  17  18
ENDBRANCH   8  17
TORSDOF 3
ENDMDL
MODEL 7
REMARK VINA RESULT:      -5.7      2.606      3.697
REMARK  Name = 
REMARK  3 active torsions:
REMARK  status: ('A' for Active; 'I' for Inactive)
REMARK    1  A    between atoms: C_2  and  C_3
REMARK    2  A    between atoms: C_13  and  O_14
REMARK    3  A    between atoms: O_14  and  C_15
REMARK                            x       y       z     vdW  Elec       q    Type
REMARK                         _______ _______ _______ _____ _____    ______ ____
ROOT
ATOM      1  O   UNL     1      -0.443   8.479  21.304  0.00  0.00    +0.000 OA
ATOM      2  C   UNL     1      -0.031   9.281  20.472  0.00  0.00    +0.000 C 
ATOM      3  N   UNL     1       1.297   9.280  20.017  0.00  0.00    +0.000 N 
ATOM      4  C   UNL     1       1.864  10.350  19.177  0.00  0.00    +0.000 C 
ATOM      5  C   UNL     1       1.852   9.922  17.697  0.00  0.00    +0.000 C 
ATOM      6  O   UNL     1       2.575   8.690  17.517  0.00  0.00    +0.000 OA
ATOM      7  C   UNL     1       2.024   7.656  18.347  0.00  0.00    +0.000 C 
ATOM      8  C   UNL     1       2.814   6.343  18.334  0.00  0.00    +0.000 C 
ATOM      9  C   UNL     1       2.334   5.644  19.623  0.00  0.00    +0.000 C 
ATOM     10  C   UNL     1       1.713   6.733  20.523  0.00  0.00    +0.000 C 
ATOM     11  C   UNL     1       2.066   8.048  19.837  0.00  0.00    +0.000 C 
ENDROOT
BRANCH   2  12
ATOM     12  C   UNL     1      -0.943  10.304  19.912  0.00  0.00    +0.000 A 
ATOM     13  C   UNL     1      -1.279  11.484  20.557  0.00  0.00    +0.000 A 
ATOM     14  S   UNL     1      -2.343  12.420  19.582  0.00  0.00    +0.000 S 
ATOM     15  C   UNL     1      -2.338  11.183  18.409  0.00  0.00    +0.000 A 
ATOM     16  N   UNL     1      -1.607  10.131  18.695  0.00  0.00    +0.000 NA
ENDBRANCH   2  12
BRANCH   8  17
ATOM     17  O   UNL     1       4.224   6.583  18.474  0.00  0.00    +0.000 OA
BRANCH  17  18
ATOM     18  C   UNL     1       4.983   5.949  17.510  0.00  0.00    +0.000 A 
ATOM     19  C   UNL     1       5.878   4.987  17.952  0.00  0.00    +0.000 A 
ATOM     20  C   UNL     1       6.657   4.327  17.006  0.00  0.00    +0.000 A 
ATOM     21  C   UNL     1       6.491   4.632  15.660  0.00  0.00    +0.000 A 
ATOM     22  C   UNL     1       5.542   5.581  15.315  0.00  0.00    +0.000 A 
ATOM     23  N   UNL     1       4.778   6.242  16.209  0.00  0.00    +0.000 NA
ENDBRANCH  17  18
ENDBRANCH   8  17
TORSDOF 3
ENDMDL
MODEL 8
REMARK VINA RESULT:      -5.7      1.263      1.637
REMARK  Name = 
REMARK  3 active torsions:
REMARK  status: ('A' for Active; 'I' for Inactive)
REMARK    1  A    between atoms: C_2  and  C_3
REMARK    2  A    between atoms: C_13  and  O_14
REMARK    3  A    between atoms: O_14  and  C_15
REMARK                            x       y       z     vdW  Elec       q    Type
REMARK                         _______ _______ _______ _____ _____    ______ ____
ROOT
ATOM      1  O   UNL     1       2.263  10.930  17.664  0.00  0.00    +0.000 OA
ATOM      2  C   UNL     1       1.484  11.070  18.601  0.00  0.00    +0.000 C 
ATOM      3  N   UNL     1       0.691  10.017  19.085  0.00  0.00    +0.000 N 
ATOM      4  C   UNL     1      -0.390  10.208  20.069  0.00  0.00    +0.000 C 
ATOM      5  C   UNL     1       0.112   9.854  21.482  0.00  0.00    +0.000 C 
ATOM      6  O   UNL     1       0.612   8.504  21.521  0.00  0.00    +0.000 OA
ATOM      7  C   UNL     1       1.656   8.324  20.553  0.00  0.00    +0.000 C 
ATOM      8  C   UNL     1       2.156   6.881  20.419  0.00  0.00    +0.000 C 
ATOM      9  C   UNL     1       2.848   6.888  19.041  0.00  0.00    +0.000 C 
ATOM     10  C   UNL     1       2.311   8.113  18.270  0.00  0.00    +0.000 C 
ATOM     11  C   UNL     1       1.161   8.632  19.127  0.00  0.00    +0.000 C 
ENDROOT
BRANCH   2  12
ATOM     12  C   UNL     1       1.349  12.387  19.263  0.00  0.00    +0.000 A 
ATOM     13  C   UNL     1       2.057  12.767  20.392  0.00  0.00    +0.000 A 
ATOM     14  S   UNL     1       1.643  14.373  20.850  0.00  0.00    +0.000 S 
ATOM     15  C   UNL     1       0.518  14.435  19.571  0.00  0.00    +0.000 A 
ATOM     16  N   UNL     1       0.430  13.350  18.837  0.00  0.00    +0.000 NA
ENDBRANCH   2  12
BRANCH   8  17
ATOM     17  O   UNL     1       1.059   5.956  20.346  0.00  0.00    +0.000 OA
BRANCH  17  18
ATOM     18  C   UNL     1       1.463   4.641  20.227  0.00  0.00    +0.000 A 
ATOM     19  C   UNL     1       2.092   4.079  21.327  0.00  0.00    +0.000 A 
ATOM     20  C   UNL     1       2.510   2.754  21.242  0.00  0.00    +0.000 A 
ATOM     21  C   UNL     1       2.259   2.037  20.078  0.00  0.00    +0.000 A 
ATOM     22  C   UNL     1       1.589   2.676  19.047  0.00  0.00    +0.000 A 
ATOM     23  N   UNL     1       1.177   3.960  19.097  0.00  0.00    +0.000 NA
ENDBRANCH  17  18
ENDBRANCH   8  17
TORSDOF 3
ENDMDL
MODEL 9
REMARK VINA RESULT:      -5.6      3.553      5.231
REMARK  Name = 
REMARK  3 active torsions:
REMARK  status: ('A' for Active; 'I' for Inactive)
REMARK    1  A    between atoms: C_2  and  C_3
REMARK    2  A    between atoms: C_13  and  O_14
REMARK    3  A    between atoms: O_14  and  C_15
REMARK                            x       y       z     vdW  Elec       q    Type
REMARK                         _______ _______ _______ _____ _____    ______ ____
ROOT
ATOM      1  O   UNL     1      -3.086  12.391  23.293  0.00  0.00    +0.000 OA
ATOM      2  C   UNL     1      -2.997  12.606  22.088  0.00  0.00    +0.000 C 
ATOM      3  N   UNL     1      -1.807  12.399  21.372  0.00  0.00    +0.000 N 
ATOM      4  C   UNL     1      -1.619  12.837  19.977  0.00  0.00    +0.000 C 
ATOM      5  C   UNL     1      -1.849  11.655  19.016  0.00  0.00    +0.000 C 
ATOM      6  O   UNL     1      -0.971  10.560  19.335  0.00  0.00    +0.000 OA
ATOM      7  C   UNL     1      -1.152  10.147  20.697  0.00  0.00    +0.000 C 
ATOM      8  C   UNL     1      -0.161   9.081  21.175  0.00  0.00    +0.000 C 
ATOM      9  C   UNL     1      -0.243   9.204  22.711  0.00  0.00    +0.000 C 
ATOM     10  C   UNL     1      -0.855  10.586  23.022  0.00  0.00    +0.000 C 
ATOM     11  C   UNL     1      -0.884  11.305  21.677  0.00  0.00    +0.000 C 
ENDROOT
BRANCH   2  12
ATOM     12  C   UNL     1      -4.169  13.107  21.335  0.00  0.00    +0.000 A 
ATOM     13  C   UNL     1      -4.539  14.441  21.269  0.00  0.00    +0.000 A 
ATOM     14  S   UNL     1      -5.937  14.630  20.285  0.00  0.00    +0.000 S 
ATOM     15  C   UNL     1      -5.996  12.940  20.065  0.00  0.00    +0.000 A 
ATOM     16  N   UNL     1      -5.055  12.254  20.672  0.00  0.00    +0.000 NA
ENDBRANCH   2  12
BRANCH   8  17
ATOM     17  O   UNL     1       1.183   9.409  20.788  0.00  0.00    +0.000 OA
BRANCH  17  18
ATOM     18  C   UNL     1       1.733   8.501  19.905  0.00  0.00    +0.000 A 
ATOM     19  C   UNL     1       1.950   7.218  20.384  0.00  0.00    +0.000 A 
ATOM     20  C   UNL     1       2.501   6.276  19.520  0.00  0.00    +0.000 A 
ATOM     21  C   UNL     1       2.785   6.643  18.210  0.00  0.00    +0.000 A 
ATOM     22  C   UNL     1       2.495   7.939  17.815  0.00  0.00    +0.000 A 
ATOM     23  N   UNL     1       1.968   8.876  18.631  0.00  0.00    +0.000 NA
ENDBRANCH  17  18
ENDBRANCH   8  17
TORSDOF 3
ENDMDL
