MODEL 1
REMARK VINA RESULT:      -6.8      0.000      0.000
REMARK  Name = 
REMARK  3 active torsions:
REMARK  status: ('A' for Active; 'I' for Inactive)
REMARK    1  A    between atoms: C_5  and  C_6
REMARK    2  A    between atoms: C_6  and  O_7
REMARK    3  A    between atoms: C_6  and  C_8
REMARK                            x       y       z     vdW  Elec       q    Type
REMARK                         _______ _______ _______ _____ _____    ______ ____
ROOT
ATOM      1  C   UNL     1       3.316   6.252  18.758  0.00  0.00    +0.000 C 
ENDROOT
BRANCH   1   6
ATOM      2  O   UNL     1       7.836   4.615  15.866  0.00  0.00    +0.000 OA
ATOM      3  N   UNL     1       6.820   5.001  16.517  0.00  0.00    +0.000 N 
ATOM      4  C   UNL     1       6.661   4.664  17.846  0.00  0.00    +0.000 A 
ATOM      5  C   UNL     1       5.542   5.072  18.575  0.00  0.00    +0.000 A 
ATOM      6  C   UNL     1       4.544   5.838  17.960  0.00  0.00    +0.000 A 
ATOM      7  C   UNL     1       4.707   6.186  16.611  0.00  0.00    +0.000 A 
ATOM      8  C   UNL     1       5.839   5.765  15.912  0.00  0.00    +0.000 A 
ENDBRANCH   1   6
BRANCH   1   9
ATOM      9  C   UNL     1       2.358   5.130  19.136  0.00  0.00    +0.000 A 
ATOM     10  C   UNL     1       1.831   4.250  18.172  0.00  0.00    +0.000 A 
ATOM     11  C   UNL     1       1.020   3.175  18.544  0.00  0.00    +0.000 A 
ATOM     12  C   UNL     1       0.738   2.945  19.887  0.00  0.00    +0.000 A 
ATOM     13  C   UNL     1       1.265   3.791  20.860  0.00  0.00    +0.000 A 
ATOM     14  C   UNL     1       2.070   4.869  20.487  0.00  0.00    +0.000 A 
ENDBRANCH   1   9
BRANCH   1  15
ATOM     15  O   UNL     1       2.647   7.282  18.031  0.00  0.00    +0.000 OA
ATOM     16  H   UNL     1       3.115   7.392  17.189  0.00  0.00    +0.000 HD
ENDBRANCH   1  15
TORSDOF 3
ENDMDL
MODEL 2
REMARK VINA RESULT:      -6.7      2.018      2.502
REMARK  Name = 
REMARK  3 active torsions:
REMARK  status: ('A' for Active; 'I' for Inactive)
REMARK    1  A    between atoms: C_5  and  C_6
REMARK    2  A    between atoms: C_6  and  O_7
REMARK    3  A    between atoms: C_6  and  C_8
REMARK                            x       y       z     vdW  Elec       q    Type
REMARK                         _______ _______ _______ _____ _____    ______ ____
ROOT
ATOM      1  C   UNL     1       3.635   2.995  17.629  0.00  0.00    +0.000 C 
ENDROOT
BRANCH   1   6
ATOM      2  O   UNL     1       7.620   6.752  16.415  0.00  0.00    +0.000 OA
ATOM      3  N   UNL     1       6.728   5.900  16.704  0.00  0.00    +0.000 N 
ATOM      4  C   UNL     1       6.578   4.749  15.956  0.00  0.00    +0.000 A 
ATOM      5  C   UNL     1       5.593   3.807  16.254  0.00  0.00    +0.000 A 
ATOM      6  C   UNL     1       4.723   4.017  17.331  0.00  0.00    +0.000 A 
ATOM      7  C   UNL     1       4.876   5.182  18.095  0.00  0.00    +0.000 A 
ATOM      8  C   UNL     1       5.874   6.103  17.772  0.00  0.00    +0.000 A 
ENDBRANCH   1   6
BRANCH   1   9
ATOM      9  C   UNL     1       2.881   3.188  18.939  0.00  0.00    +0.000 A 
ATOM     10  C   UNL     1       1.618   3.807  18.981  0.00  0.00    +0.000 A 
ATOM     11  C   UNL     1       0.902   3.902  20.178  0.00  0.00    +0.000 A 
ATOM     12  C   UNL     1       1.424   3.364  21.349  0.00  0.00    +0.000 A 
ATOM     13  C   UNL     1       2.665   2.729  21.326  0.00  0.00    +0.000 A 
ATOM     14  C   UNL     1       3.382   2.640  20.132  0.00  0.00    +0.000 A 
ENDBRANCH   1   9
BRANCH   1  15
ATOM     15  O   UNL     1       4.219   1.695  17.554  0.00  0.00    +0.000 OA
ATOM     16  H   UNL     1       3.725   1.121  18.161  0.00  0.00    +0.000 HD
ENDBRANCH   1  15
TORSDOF 3
ENDMDL
MODEL 3
REMARK VINA RESULT:      -6.7      2.020      2.436
REMARK  Name = 
REMARK  3 active torsions:
REMARK  status: ('A' for Active; 'I' for Inactive)
REMARK    1  A    between atoms: C_5  and  C_6
REMARK    2  A    between atoms: C_6  and  O_7
REMARK    3  A    between atoms: C_6  and  C_8
REMARK                            x       y       z     vdW  Elec       q    Type
REMARK                         _______ _______ _______ _____ _____    ______ ____
ROOT
ATOM      1  C   UNL     1       3.624   2.974  17.605  0.00  0.00    +0.000 C 
ENDROOT
BRANCH   1   6
ATOM      2  O   UNL     1       7.594   6.783  16.511  0.00  0.00    +0.000 OA
ATOM      3  N   UNL     1       6.691   5.926  16.742  0.00  0.00    +0.000 N 
ATOM      4  C   UNL     1       5.781   6.115  17.763  0.00  0.00    +0.000 A 
ATOM      5  C   UNL     1       4.786   5.176  18.039  0.00  0.00    +0.000 A 
ATOM      6  C   UNL     1       4.695   4.004  17.277  0.00  0.00    +0.000 A 
ATOM      7  C   UNL     1       5.615   3.813  16.236  0.00  0.00    +0.000 A 
ATOM      8  C   UNL     1       6.596   4.774  15.984  0.00  0.00    +0.000 A 
ENDBRANCH   1   6
BRANCH   1   9
ATOM      9  C   UNL     1       2.876   3.187  18.916  0.00  0.00    +0.000 A 
ATOM     10  C   UNL     1       1.616   3.811  18.957  0.00  0.00    +0.000 A 
ATOM     11  C   UNL     1       0.906   3.924  20.155  0.00  0.00    +0.000 A 
ATOM     12  C   UNL     1       1.431   3.398  21.330  0.00  0.00    +0.000 A 
ATOM     13  C   UNL     1       2.669   2.758  21.310  0.00  0.00    +0.000 A 
ATOM     14  C   UNL     1       3.380   2.651  20.114  0.00  0.00    +0.000 A 
ENDBRANCH   1   9
BRANCH   1  15
ATOM     15  O   UNL     1       4.226   1.681  17.556  0.00  0.00    +0.000 OA
ATOM     16  H   UNL     1       5.166   1.809  17.352  0.00  0.00    +0.000 HD
ENDBRANCH   1  15
TORSDOF 3
ENDMDL
MODEL 4
REMARK VINA RESULT:      -6.6      0.606      1.355
REMARK  Name = 
REMARK  3 active torsions:
REMARK  status: ('A' for Active; 'I' for Inactive)
REMARK    1  A    between atoms: C_5  and  C_6
REMARK    2  A    between atoms: C_6  and  O_7
REMARK    3  A    between atoms: C_6  and  C_8
REMARK                            x       y       z     vdW  Elec       q    Type
REMARK                         _______ _______ _______ _____ _____    ______ ____
ROOT
ATOM      1  C   UNL     1       3.253   6.188  19.284  0.00  0.00    +0.000 C 
ENDROOT
BRANCH   1   6
ATOM      2  O   UNL     1       7.538   5.684  15.697  0.00  0.00    +0.000 OA
ATOM      3  N   UNL     1       6.567   5.781  16.505  0.00  0.00    +0.000 N 
ATOM      4  C   UNL     1       5.475   6.573  16.209  0.00  0.00    +0.000 A 
ATOM      5  C   UNL     1       4.403   6.700  17.092  0.00  0.00    +0.000 A 
ATOM      6  C   UNL     1       4.417   6.019  18.316  0.00  0.00    +0.000 A 
ATOM      7  C   UNL     1       5.522   5.210  18.617  0.00  0.00    +0.000 A 
ATOM      8  C   UNL     1       6.576   5.102  17.710  0.00  0.00    +0.000 A 
ENDBRANCH   1   6
BRANCH   1   9
ATOM      9  C   UNL     1       2.325   4.988  19.423  0.00  0.00    +0.000 A 
ATOM     10  C   UNL     1       1.903   4.244  18.306  0.00  0.00    +0.000 A 
ATOM     11  C   UNL     1       1.121   3.096  18.458  0.00  0.00    +0.000 A 
ATOM     12  C   UNL     1       0.762   2.658  19.728  0.00  0.00    +0.000 A 
ATOM     13  C   UNL     1       1.185   3.368  20.850  0.00  0.00    +0.000 A 
ATOM     14  C   UNL     1       1.962   4.518  20.697  0.00  0.00    +0.000 A 
ENDBRANCH   1   9
BRANCH   1  15
ATOM     15  O   UNL     1       2.532   7.359  18.905  0.00  0.00    +0.000 OA
ATOM     16  H   UNL     1       3.082   8.124  19.137  0.00  0.00    +0.000 HD
ENDBRANCH   1  15
TORSDOF 3
ENDMDL
MODEL 5
REMARK VINA RESULT:      -6.6      0.454      1.319
REMARK  Name = 
REMARK  3 active torsions:
REMARK  status: ('A' for Active; 'I' for Inactive)
REMARK    1  A    between atoms: C_5  and  C_6
REMARK    2  A    between atoms: C_6  and  O_7
REMARK    3  A    between atoms: C_6  and  C_8
REMARK                            x       y       z     vdW  Elec       q    Type
REMARK                         _______ _______ _______ _____ _____    ______ ____
ROOT
ATOM      1  C   UNL     1       3.417   6.187  19.034  0.00  0.00    +0.000 C 
ENDROOT
BRANCH   1   6
ATOM      2  O   UNL     1       7.604   5.371  15.391  0.00  0.00    +0.000 OA
ATOM      3  N   UNL     1       6.663   5.572  16.214  0.00  0.00    +0.000 N 
ATOM      4  C   UNL     1       6.687   5.003  17.472  0.00  0.00    +0.000 A 
ATOM      5  C   UNL     1       5.653   5.205  18.386  0.00  0.00    +0.000 A 
ATOM      6  C   UNL     1       4.552   5.997  18.038  0.00  0.00    +0.000 A 
ATOM      7  C   UNL     1       4.528   6.581  16.764  0.00  0.00    +0.000 A 
ATOM      8  C   UNL     1       5.580   6.362  15.874  0.00  0.00    +0.000 A 
ENDBRANCH   1   6
BRANCH   1   9
ATOM      9  C   UNL     1       2.532   4.971  19.274  0.00  0.00    +0.000 A 
ATOM     10  C   UNL     1       2.052   4.646  20.557  0.00  0.00    +0.000 A 
ATOM     11  C   UNL     1       1.174   3.576  20.748  0.00  0.00    +0.000 A 
ATOM     12  C   UNL     1       0.742   2.823  19.660  0.00  0.00    +0.000 A 
ATOM     13  C   UNL     1       1.189   3.140  18.379  0.00  0.00    +0.000 A 
ATOM     14  C   UNL     1       2.071   4.205  18.189  0.00  0.00    +0.000 A 
ENDBRANCH   1   9
BRANCH   1  15
ATOM     15  O   UNL     1       2.648   7.314  18.616  0.00  0.00    +0.000 OA
ATOM     16  H   UNL     1       2.131   7.038  17.842  0.00  0.00    +0.000 HD
ENDBRANCH   1  15
TORSDOF 3
ENDMDL
MODEL 6
REMARK VINA RESULT:      -6.6      0.544      1.810
REMARK  Name = 
REMARK  3 active torsions:
REMARK  status: ('A' for Active; 'I' for Inactive)
REMARK    1  A    between atoms: C_5  and  C_6
REMARK    2  A    between atoms: C_6  and  O_7
REMARK    3  A    between atoms: C_6  and  C_8
REMARK                            x       y       z     vdW  Elec       q    Type
REMARK                         _______ _______ _______ _____ _____    ______ ____
ROOT
ATOM      1  C   UNL     1       3.502   6.005  19.224  0.00  0.00    +0.000 C 
ENDROOT
BRANCH   1   6
ATOM      2  O   UNL     1       7.546   5.454  15.374  0.00  0.00    +0.000 OA
ATOM      3  N   UNL     1       6.629   5.562  16.241  0.00  0.00    +0.000 N 
ATOM      4  C   UNL     1       5.530   6.367  16.015  0.00  0.00    +0.000 A 
ATOM      5  C   UNL     1       4.517   6.505  16.964  0.00  0.00    +0.000 A 
ATOM      6  C   UNL     1       4.600   5.823  18.185  0.00  0.00    +0.000 A 
ATOM      7  C   UNL     1       5.712   5.001  18.415  0.00  0.00    +0.000 A 
ATOM      8  C   UNL     1       6.706   4.882  17.443  0.00  0.00    +0.000 A 
ENDBRANCH   1   6
BRANCH   1   9
ATOM      9  C   UNL     1       2.587   4.806  19.441  0.00  0.00    +0.000 A 
ATOM     10  C   UNL     1       2.169   4.416  20.727  0.00  0.00    +0.000 A 
ATOM     11  C   UNL     1       1.264   3.367  20.903  0.00  0.00    +0.000 A 
ATOM     12  C   UNL     1       0.744   2.699  19.799  0.00  0.00    +0.000 A 
ATOM     13  C   UNL     1       1.129   3.081  18.516  0.00  0.00    +0.000 A 
ATOM     14  C   UNL     1       2.038   4.126  18.340  0.00  0.00    +0.000 A 
ENDBRANCH   1   9
BRANCH   1  15
ATOM     15  O   UNL     1       2.756   7.170  18.877  0.00  0.00    +0.000 OA
ATOM     16  H   UNL     1       2.718   7.210  17.908  0.00  0.00    +0.000 HD
ENDBRANCH   1  15
TORSDOF 3
ENDMDL
MODEL 7
REMARK VINA RESULT:      -6.6      1.987      2.535
REMARK  Name = 
REMARK  3 active torsions:
REMARK  status: ('A' for Active; 'I' for Inactive)
REMARK    1  A    between atoms: C_5  and  C_6
REMARK    2  A    between atoms: C_6  and  O_7
REMARK    3  A    between atoms: C_6  and  C_8
REMARK                            x       y       z     vdW  Elec       q    Type
REMARK                         _______ _______ _______ _____ _____    ______ ____
ROOT
ATOM      1  C   UNL     1       3.615   2.775  17.696  0.00  0.00    +0.000 C 
ENDROOT
BRANCH   1   6
ATOM      2  O   UNL     1       7.551   6.606  16.553  0.00  0.00    +0.000 OA
ATOM      3  N   UNL     1       6.650   5.752  16.806  0.00  0.00    +0.000 N 
ATOM      4  C   UNL     1       6.426   5.320  18.098  0.00  0.00    +0.000 A 
ATOM      5  C   UNL     1       5.445   4.372  18.392  0.00  0.00    +0.000 A 
ATOM      6  C   UNL     1       4.662   3.829  17.366  0.00  0.00    +0.000 A 
ATOM      7  C   UNL     1       4.884   4.270  16.053  0.00  0.00    +0.000 A 
ATOM      8  C   UNL     1       5.870   5.223  15.793  0.00  0.00    +0.000 A 
ENDBRANCH   1   6
BRANCH   1   9
ATOM      9  C   UNL     1       2.828   2.999  18.981  0.00  0.00    +0.000 A 
ATOM     10  C   UNL     1       3.239   2.444  20.208  0.00  0.00    +0.000 A 
ATOM     11  C   UNL     1       2.554   2.727  21.392  0.00  0.00    +0.000 A 
ATOM     12  C   UNL     1       1.459   3.585  21.379  0.00  0.00    +0.000 A 
ATOM     13  C   UNL     1       1.047   4.161  20.179  0.00  0.00    +0.000 A 
ATOM     14  C   UNL     1       1.727   3.873  18.995  0.00  0.00    +0.000 A 
ENDBRANCH   1   9
BRANCH   1  15
ATOM     15  O   UNL     1       4.258   1.501  17.697  0.00  0.00    +0.000 OA
ATOM     16  H   UNL     1       3.563   0.828  17.773  0.00  0.00    +0.000 HD
ENDBRANCH   1  15
TORSDOF 3
ENDMDL
MODEL 8
REMARK VINA RESULT:      -6.6      1.848      2.219
REMARK  Name = 
REMARK  3 active torsions:
REMARK  status: ('A' for Active; 'I' for Inactive)
REMARK    1  A    between atoms: C_5  and  C_6
REMARK    2  A    between atoms: C_6  and  O_7
REMARK    3  A    between atoms: C_6  and  C_8
REMARK                            x       y       z     vdW  Elec       q    Type
REMARK                         _______ _______ _______ _____ _____    ______ ____
ROOT
ATOM      1  C   UNL     1       2.571   4.184  17.622  0.00  0.00    +0.000 C 
ENDROOT
BRANCH   1   6
ATOM      2  O   UNL     1       7.547   6.341  16.187  0.00  0.00    +0.000 OA
ATOM      3  N   UNL     1       6.429   5.853  16.528  0.00  0.00    +0.000 N 
ATOM      4  C   UNL     1       6.027   4.614  16.070  0.00  0.00    +0.000 A 
ATOM      5  C   UNL     1       4.793   4.067  16.426  0.00  0.00    +0.000 A 
ATOM      6  C   UNL     1       3.925   4.779  17.264  0.00  0.00    +0.000 A 
ATOM      7  C   UNL     1       4.333   6.035  17.735  0.00  0.00    +0.000 A 
ATOM      8  C   UNL     1       5.575   6.552  17.362  0.00  0.00    +0.000 A 
ENDBRANCH   1   6
BRANCH   1   9
ATOM      9  C   UNL     1       2.446   3.615  19.030  0.00  0.00    +0.000 A 
ATOM     10  C   UNL     1       3.507   2.925  19.646  0.00  0.00    +0.000 A 
ATOM     11  C   UNL     1       3.407   2.482  20.968  0.00  0.00    +0.000 A 
ATOM     12  C   UNL     1       2.255   2.736  21.705  0.00  0.00    +0.000 A 
ATOM     13  C   UNL     1       1.200   3.434  21.121  0.00  0.00    +0.000 A 
ATOM     14  C   UNL     1       1.298   3.872  19.799  0.00  0.00    +0.000 A 
ENDBRANCH   1   9
BRANCH   1  15
ATOM     15  O   UNL     1       2.245   3.205  16.636  0.00  0.00    +0.000 OA
ATOM     16  H   UNL     1       2.808   3.375  15.865  0.00  0.00    +0.000 HD
ENDBRANCH   1  15
TORSDOF 3
ENDMDL
MODEL 9
REMARK VINA RESULT:      -6.6      1.789      2.143
REMARK  Name = 
REMARK  3 active torsions:
REMARK  status: ('A' for Active; 'I' for Inactive)
REMARK    1  A    between atoms: C_5  and  C_6
REMARK    2  A    between atoms: C_6  and  O_7
REMARK    3  A    between atoms: C_6  and  C_8
REMARK                            x       y       z     vdW  Elec       q    Type
REMARK                         _______ _______ _______ _____ _____    ______ ____
ROOT
ATOM      1  C   UNL     1       2.533   4.368  17.695  0.00  0.00    +0.000 C 
ENDROOT
BRANCH   1   6
ATOM      2  O   UNL     1       7.574   6.173  16.022  0.00  0.00    +0.000 OA
ATOM      3  N   UNL     1       6.441   5.767  16.416  0.00  0.00    +0.000 N 
ATOM      4  C   UNL     1       5.994   4.500  16.100  0.00  0.00    +0.000 A 
ATOM      5  C   UNL     1       4.744   4.040  16.516  0.00  0.00    +0.000 A 
ATOM      6  C   UNL     1       3.906   4.871  17.270  0.00  0.00    +0.000 A 
ATOM      7  C   UNL     1       4.360   6.157  17.597  0.00  0.00    +0.000 A 
ATOM      8  C   UNL     1       5.617   6.584  17.168  0.00  0.00    +0.000 A 
ENDBRANCH   1   6
BRANCH   1   9
ATOM      9  C   UNL     1       2.436   3.815  19.111  0.00  0.00    +0.000 A 
ATOM     10  C   UNL     1       1.213   3.769  19.806  0.00  0.00    +0.000 A 
ATOM     11  C   UNL     1       1.125   3.182  21.071  0.00  0.00    +0.000 A 
ATOM     12  C   UNL     1       2.251   2.612  21.657  0.00  0.00    +0.000 A 
ATOM     13  C   UNL     1       3.468   2.629  20.979  0.00  0.00    +0.000 A 
ATOM     14  C   UNL     1       3.557   3.221  19.717  0.00  0.00    +0.000 A 
ENDBRANCH   1   9
BRANCH   1  15
ATOM     15  O   UNL     1       2.098   3.409  16.732  0.00  0.00    +0.000 OA
ATOM     16  H   UNL     1       2.882   2.915  16.443  0.00  0.00    +0.000 HD
ENDBRANCH   1  15
TORSDOF 3
ENDMDL
