MODEL 1
REMARK VINA RESULT:      -7.3      0.000      0.000
REMARK  Name = 
REMARK  3 active torsions:
REMARK  status: ('A' for Active; 'I' for Inactive)
REMARK    1  A    between atoms: C_5  and  S_6
REMARK    2  A    between atoms: S_6  and  C_7
REMARK    3  A    between atoms: C_9  and  C_10
REMARK                            x       y       z     vdW  Elec       q    Type
REMARK                         _______ _______ _______ _____ _____    ______ ____
ROOT
ATOM      1  C   UNL     1       3.417   6.363  18.208  0.00  0.00    +0.000 A 
ATOM      2  N   UNL     1       2.649   5.448  18.839  0.00  0.00    +0.000 NA
ATOM      3  C   UNL     1       3.164   4.256  19.211  0.00  0.00    +0.000 A 
ATOM      4  N   UNL     1       4.439   3.891  18.985  0.00  0.00    +0.000 NA
ATOM      5  C   UNL     1       5.219   4.802  18.359  0.00  0.00    +0.000 A 
ATOM      6  C   UNL     1       6.589   4.599  18.023  0.00  0.00    +0.000 A 
ATOM      7  C   UNL     1       7.144   5.688  17.395  0.00  0.00    +0.000 A 
ATOM      8  S   UNL     1       6.013   6.952  17.202  0.00  0.00    +0.000 S 
ATOM      9  C   UNL     1       4.752   6.050  17.958  0.00  0.00    +0.000 A 
ENDROOT
BRANCH   3  10
ATOM     10  C   UNL     1       2.243   3.236  19.906  0.00  0.00    +0.000 C 
ATOM     11 CL   UNL     1       2.954   2.561  21.417  0.00  0.00    +0.000 Cl
ATOM     12 CL   UNL     1       0.687   4.024  20.352  0.00  0.00    +0.000 Cl
ATOM     13 CL   UNL     1       1.902   1.856  18.804  0.00  0.00    +0.000 Cl
ENDBRANCH   3  10
BRANCH   1  14
ATOM     14  S   UNL     1       2.712   7.906  17.690  0.00  0.00    +0.000 S 
BRANCH  14  19
ATOM     15 CL   UNL     1      -0.619  10.012  22.610  0.00  0.00    +0.000 Cl
ATOM     16  C   UNL     1       0.319   9.444  21.285  0.00  0.00    +0.000 A 
ATOM     17  C   UNL     1       0.281  10.122  20.069  0.00  0.00    +0.000 A 
ATOM     18  C   UNL     1       1.037   9.653  18.988  0.00  0.00    +0.000 A 
ATOM     19  C   UNL     1       1.835   8.510  19.119  0.00  0.00    +0.000 A 
ATOM     20  C   UNL     1       1.852   7.830  20.344  0.00  0.00    +0.000 A 
ATOM     21  C   UNL     1       1.102   8.301  21.428  0.00  0.00    +0.000 A 
ENDBRANCH  14  19
ENDBRANCH   1  14
TORSDOF 3
ENDMDL
MODEL 2
REMARK VINA RESULT:      -7.3      0.046      1.115
REMARK  Name = 
REMARK  3 active torsions:
REMARK  status: ('A' for Active; 'I' for Inactive)
REMARK    1  A    between atoms: C_5  and  S_6
REMARK    2  A    between atoms: S_6  and  C_7
REMARK    3  A    between atoms: C_9  and  C_10
REMARK                            x       y       z     vdW  Elec       q    Type
REMARK                         _______ _______ _______ _____ _____    ______ ____
ROOT
ATOM      1  C   UNL     1       3.410   6.379  18.204  0.00  0.00    +0.000 A 
ATOM      2  N   UNL     1       2.636   5.465  18.830  0.00  0.00    +0.000 NA
ATOM      3  C   UNL     1       3.143   4.268  19.194  0.00  0.00    +0.000 A 
ATOM      4  N   UNL     1       4.417   3.896  18.965  0.00  0.00    +0.000 NA
ATOM      5  C   UNL     1       5.202   4.805  18.343  0.00  0.00    +0.000 A 
ATOM      6  C   UNL     1       6.570   4.595  18.006  0.00  0.00    +0.000 A 
ATOM      7  C   UNL     1       7.132   5.684  17.383  0.00  0.00    +0.000 A 
ATOM      8  S   UNL     1       6.009   6.957  17.199  0.00  0.00    +0.000 S 
ATOM      9  C   UNL     1       4.743   6.059  17.951  0.00  0.00    +0.000 A 
ENDROOT
BRANCH   3  10
ATOM     10  C   UNL     1       2.217   3.249  19.884  0.00  0.00    +0.000 C 
ATOM     11 CL   UNL     1       1.768   1.870  18.817  0.00  0.00    +0.000 Cl
ATOM     12 CL   UNL     1       3.039   2.561  21.331  0.00  0.00    +0.000 Cl
ATOM     13 CL   UNL     1       0.693   4.050  20.405  0.00  0.00    +0.000 Cl
ENDBRANCH   3  10
BRANCH   1  14
ATOM     14  S   UNL     1       2.715   7.930  17.697  0.00  0.00    +0.000 S 
BRANCH  14  19
ATOM     15 CL   UNL     1      -0.630  10.006  22.620  0.00  0.00    +0.000 Cl
ATOM     16  C   UNL     1       0.312   9.446  21.294  0.00  0.00    +0.000 A 
ATOM     17  C   UNL     1       0.274  10.129  20.080  0.00  0.00    +0.000 A 
ATOM     18  C   UNL     1       1.032   9.667  18.999  0.00  0.00    +0.000 A 
ATOM     19  C   UNL     1       1.834   8.526  19.127  0.00  0.00    +0.000 A 
ATOM     20  C   UNL     1       1.851   7.841  20.349  0.00  0.00    +0.000 A 
ATOM     21  C   UNL     1       1.099   8.305  21.434  0.00  0.00    +0.000 A 
ENDBRANCH  14  19
ENDBRANCH   1  14
TORSDOF 3
ENDMDL
MODEL 3
REMARK VINA RESULT:      -7.3      0.079      1.056
REMARK  Name = 
REMARK  3 active torsions:
REMARK  status: ('A' for Active; 'I' for Inactive)
REMARK    1  A    between atoms: C_5  and  S_6
REMARK    2  A    between atoms: S_6  and  C_7
REMARK    3  A    between atoms: C_9  and  C_10
REMARK                            x       y       z     vdW  Elec       q    Type
REMARK                         _______ _______ _______ _____ _____    ______ ____
ROOT
ATOM      1  C   UNL     1       3.458   6.409  18.221  0.00  0.00    +0.000 A 
ATOM      2  N   UNL     1       2.674   5.508  18.852  0.00  0.00    +0.000 NA
ATOM      3  C   UNL     1       3.165   4.303  19.215  0.00  0.00    +0.000 A 
ATOM      4  N   UNL     1       4.431   3.913  18.982  0.00  0.00    +0.000 NA
ATOM      5  C   UNL     1       5.227   4.809  18.356  0.00  0.00    +0.000 A 
ATOM      6  C   UNL     1       6.591   4.579  18.013  0.00  0.00    +0.000 A 
ATOM      7  C   UNL     1       7.166   5.659  17.387  0.00  0.00    +0.000 A 
ATOM      8  S   UNL     1       6.061   6.948  17.205  0.00  0.00    +0.000 S 
ATOM      9  C   UNL     1       4.785   6.069  17.963  0.00  0.00    +0.000 A 
ENDROOT
BRANCH   3  10
ATOM     10  C   UNL     1       2.226   3.299  19.910  0.00  0.00    +0.000 C 
ATOM     11 CL   UNL     1       2.940   2.582  21.400  0.00  0.00    +0.000 Cl
ATOM     12 CL   UNL     1       0.700   4.126  20.392  0.00  0.00    +0.000 Cl
ATOM     13 CL   UNL     1       1.828   1.946  18.794  0.00  0.00    +0.000 Cl
ENDBRANCH   3  10
BRANCH   1  14
ATOM     14  S   UNL     1       2.784   7.969  17.714  0.00  0.00    +0.000 S 
BRANCH  14  19
ATOM     15 CL   UNL     1      -0.559   9.886  22.703  0.00  0.00    +0.000 Cl
ATOM     16  C   UNL     1       0.324   9.355  21.325  0.00  0.00    +0.000 A 
ATOM     17  C   UNL     1       1.154   8.241  21.421  0.00  0.00    +0.000 A 
ATOM     18  C   UNL     1       1.879   7.816  20.303  0.00  0.00    +0.000 A 
ATOM     19  C   UNL     1       1.776   8.499  19.085  0.00  0.00    +0.000 A 
ATOM     20  C   UNL     1       0.948   9.626  19.006  0.00  0.00    +0.000 A 
ATOM     21  C   UNL     1       0.216  10.049  20.121  0.00  0.00    +0.000 A 
ENDBRANCH  14  19
ENDBRANCH   1  14
TORSDOF 3
ENDMDL
MODEL 4
REMARK VINA RESULT:      -7.3      0.044      1.094
REMARK  Name = 
REMARK  3 active torsions:
REMARK  status: ('A' for Active; 'I' for Inactive)
REMARK    1  A    between atoms: C_5  and  S_6
REMARK    2  A    between atoms: S_6  and  C_7
REMARK    3  A    between atoms: C_9  and  C_10
REMARK                            x       y       z     vdW  Elec       q    Type
REMARK                         _______ _______ _______ _____ _____    ______ ____
ROOT
ATOM      1  C   UNL     1       3.425   6.369  18.194  0.00  0.00    +0.000 A 
ATOM      2  N   UNL     1       2.654   5.449  18.813  0.00  0.00    +0.000 NA
ATOM      3  C   UNL     1       3.167   4.254  19.178  0.00  0.00    +0.000 A 
ATOM      4  N   UNL     1       4.445   3.892  18.958  0.00  0.00    +0.000 NA
ATOM      5  C   UNL     1       5.228   4.809  18.344  0.00  0.00    +0.000 A 
ATOM      6  C   UNL     1       6.600   4.610  18.016  0.00  0.00    +0.000 A 
ATOM      7  C   UNL     1       7.159   5.705  17.400  0.00  0.00    +0.000 A 
ATOM      8  S   UNL     1       6.027   6.969  17.210  0.00  0.00    +0.000 S 
ATOM      9  C   UNL     1       4.762   6.060  17.950  0.00  0.00    +0.000 A 
ENDROOT
BRANCH   3  10
ATOM     10  C   UNL     1       2.243   3.227  19.859  0.00  0.00    +0.000 C 
ATOM     11 CL   UNL     1       0.662   3.927  20.363  0.00  0.00    +0.000 Cl
ATOM     12 CL   UNL     1       1.893   1.876  18.722  0.00  0.00    +0.000 Cl
ATOM     13 CL   UNL     1       3.034   2.561  21.331  0.00  0.00    +0.000 Cl
ENDBRANCH   3  10
BRANCH   1  14
ATOM     14  S   UNL     1       2.723   7.916  17.684  0.00  0.00    +0.000 S 
BRANCH  14  19
ATOM     15 CL   UNL     1      -0.620   9.992  22.609  0.00  0.00    +0.000 Cl
ATOM     16  C   UNL     1       0.321   9.432  21.282  0.00  0.00    +0.000 A 
ATOM     17  C   UNL     1       0.282  10.114  20.069  0.00  0.00    +0.000 A 
ATOM     18  C   UNL     1       1.040   9.652  18.988  0.00  0.00    +0.000 A 
ATOM     19  C   UNL     1       1.842   8.512  19.115  0.00  0.00    +0.000 A 
ATOM     20  C   UNL     1       1.861   7.827  20.337  0.00  0.00    +0.000 A 
ATOM     21  C   UNL     1       1.109   8.291  21.422  0.00  0.00    +0.000 A 
ENDBRANCH  14  19
ENDBRANCH   1  14
TORSDOF 3
ENDMDL
MODEL 5
REMARK VINA RESULT:      -7.2      0.101      1.544
REMARK  Name = 
REMARK  3 active torsions:
REMARK  status: ('A' for Active; 'I' for Inactive)
REMARK    1  A    between atoms: C_5  and  S_6
REMARK    2  A    between atoms: S_6  and  C_7
REMARK    3  A    between atoms: C_9  and  C_10
REMARK                            x       y       z     vdW  Elec       q    Type
REMARK                         _______ _______ _______ _____ _____    ______ ____
ROOT
ATOM      1  C   UNL     1       3.442   6.422  18.205  0.00  0.00    +0.000 A 
ATOM      2  N   UNL     1       2.652   5.517  18.824  0.00  0.00    +0.000 NA
ATOM      3  C   UNL     1       3.138   4.308  19.180  0.00  0.00    +0.000 A 
ATOM      4  N   UNL     1       4.405   3.916  18.950  0.00  0.00    +0.000 NA
ATOM      5  C   UNL     1       5.207   4.817  18.336  0.00  0.00    +0.000 A 
ATOM      6  C   UNL     1       6.572   4.586  17.999  0.00  0.00    +0.000 A 
ATOM      7  C   UNL     1       7.153   5.670  17.386  0.00  0.00    +0.000 A 
ATOM      8  S   UNL     1       6.052   6.963  17.209  0.00  0.00    +0.000 S 
ATOM      9  C   UNL     1       4.770   6.081  17.952  0.00  0.00    +0.000 A 
ENDROOT
BRANCH   3  10
ATOM     10  C   UNL     1       2.193   3.301  19.860  0.00  0.00    +0.000 C 
ATOM     11 CL   UNL     1       1.688   1.960  18.770  0.00  0.00    +0.000 Cl
ATOM     12 CL   UNL     1       3.016   2.557  21.279  0.00  0.00    +0.000 Cl
ATOM     13 CL   UNL     1       0.700   4.132  20.423  0.00  0.00    +0.000 Cl
ENDBRANCH   3  10
BRANCH   1  14
ATOM     14  S   UNL     1       2.775   7.988  17.708  0.00  0.00    +0.000 S 
BRANCH  14  19
ATOM     15 CL   UNL     1      -0.569   9.886  22.704  0.00  0.00    +0.000 Cl
ATOM     16  C   UNL     1       0.314   9.360  21.324  0.00  0.00    +0.000 A 
ATOM     17  C   UNL     1       1.151   8.251  21.419  0.00  0.00    +0.000 A 
ATOM     18  C   UNL     1       1.876   7.830  20.299  0.00  0.00    +0.000 A 
ATOM     19  C   UNL     1       1.766   8.512  19.081  0.00  0.00    +0.000 A 
ATOM     20  C   UNL     1       0.932   9.635  19.004  0.00  0.00    +0.000 A 
ATOM     21  C   UNL     1       0.200  10.054  20.121  0.00  0.00    +0.000 A 
ENDBRANCH  14  19
ENDBRANCH   1  14
TORSDOF 3
ENDMDL
MODEL 6
REMARK VINA RESULT:      -7.2      0.108      1.517
REMARK  Name = 
REMARK  3 active torsions:
REMARK  status: ('A' for Active; 'I' for Inactive)
REMARK    1  A    between atoms: C_5  and  S_6
REMARK    2  A    between atoms: S_6  and  C_7
REMARK    3  A    between atoms: C_9  and  C_10
REMARK                            x       y       z     vdW  Elec       q    Type
REMARK                         _______ _______ _______ _____ _____    ______ ____
ROOT
ATOM      1  C   UNL     1       3.471   6.386  18.193  0.00  0.00    +0.000 A 
ATOM      2  N   UNL     1       2.692   5.464  18.800  0.00  0.00    +0.000 NA
ATOM      3  C   UNL     1       3.199   4.265  19.160  0.00  0.00    +0.000 A 
ATOM      4  N   UNL     1       4.477   3.900  18.945  0.00  0.00    +0.000 NA
ATOM      5  C   UNL     1       5.267   4.817  18.342  0.00  0.00    +0.000 A 
ATOM      6  C   UNL     1       6.640   4.616  18.021  0.00  0.00    +0.000 A 
ATOM      7  C   UNL     1       7.206   5.713  17.416  0.00  0.00    +0.000 A 
ATOM      8  S   UNL     1       6.081   6.983  17.228  0.00  0.00    +0.000 S 
ATOM      9  C   UNL     1       4.808   6.074  17.954  0.00  0.00    +0.000 A 
ENDROOT
BRANCH   3  10
ATOM     10  C   UNL     1       2.267   3.237  19.828  0.00  0.00    +0.000 C 
ATOM     11 CL   UNL     1       0.698   3.946  20.355  0.00  0.00    +0.000 Cl
ATOM     12 CL   UNL     1       1.894   1.910  18.669  0.00  0.00    +0.000 Cl
ATOM     13 CL   UNL     1       3.059   2.534  21.282  0.00  0.00    +0.000 Cl
ENDBRANCH   3  10
BRANCH   1  14
ATOM     14  S   UNL     1       2.777   7.939  17.690  0.00  0.00    +0.000 S 
BRANCH  14  19
ATOM     15 CL   UNL     1      -0.464   9.860  22.744  0.00  0.00    +0.000 Cl
ATOM     16  C   UNL     1       0.391   9.330  21.348  0.00  0.00    +0.000 A 
ATOM     17  C   UNL     1       1.176   8.181  21.412  0.00  0.00    +0.000 A 
ATOM     18  C   UNL     1       1.878   7.756  20.279  0.00  0.00    +0.000 A 
ATOM     19  C   UNL     1       1.797   8.473  19.079  0.00  0.00    +0.000 A 
ATOM     20  C   UNL     1       1.016   9.635  19.034  0.00  0.00    +0.000 A 
ATOM     21  C   UNL     1       0.306  10.058  20.164  0.00  0.00    +0.000 A 
ENDBRANCH  14  19
ENDBRANCH   1  14
TORSDOF 3
ENDMDL
MODEL 7
REMARK VINA RESULT:      -7.0      3.187      4.179
REMARK  Name = 
REMARK  3 active torsions:
REMARK  status: ('A' for Active; 'I' for Inactive)
REMARK    1  A    between atoms: C_5  and  S_6
REMARK    2  A    between atoms: S_6  and  C_7
REMARK    3  A    between atoms: C_9  and  C_10
REMARK                            x       y       z     vdW  Elec       q    Type
REMARK                         _______ _______ _______ _____ _____    ______ ____
ROOT
ATOM      1  C   UNL     1       3.203   5.137  19.722  0.00  0.00    +0.000 A 
ATOM      2  N   UNL     1       4.416   5.615  19.369  0.00  0.00    +0.000 NA
ATOM      3  C   UNL     1       5.178   4.959  18.466  0.00  0.00    +0.000 A 
ATOM      4  N   UNL     1       4.806   3.812  17.870  0.00  0.00    +0.000 NA
ATOM      5  C   UNL     1       3.590   3.327  18.213  0.00  0.00    +0.000 A 
ATOM      6  C   UNL     1       3.025   2.124  17.699  0.00  0.00    +0.000 A 
ATOM      7  C   UNL     1       1.776   1.867  18.212  0.00  0.00    +0.000 A 
ATOM      8  S   UNL     1       1.287   3.073  19.318  0.00  0.00    +0.000 S 
ATOM      9  C   UNL     1       2.754   3.959  19.129  0.00  0.00    +0.000 A 
ENDROOT
BRANCH   3  10
ATOM     10  C   UNL     1       6.564   5.530  18.112  0.00  0.00    +0.000 C 
ATOM     11 CL   UNL     1       7.495   4.473  16.990  0.00  0.00    +0.000 Cl
ATOM     12 CL   UNL     1       6.377   7.131  17.309  0.00  0.00    +0.000 Cl
ATOM     13 CL   UNL     1       7.548   5.737  19.603  0.00  0.00    +0.000 Cl
ENDBRANCH   3  10
BRANCH   1  14
ATOM     14  S   UNL     1       2.236   5.990  20.940  0.00  0.00    +0.000 S 
BRANCH  14  19
ATOM     15 CL   UNL     1       0.793  11.573  18.394  0.00  0.00    +0.000 Cl
ATOM     16  C   UNL     1       1.166  10.034  19.066  0.00  0.00    +0.000 A 
ATOM     17  C   UNL     1       0.812   9.750  20.383  0.00  0.00    +0.000 A 
ATOM     18  C   UNL     1       1.124   8.502  20.932  0.00  0.00    +0.000 A 
ATOM     19  C   UNL     1       1.786   7.533  20.169  0.00  0.00    +0.000 A 
ATOM     20  C   UNL     1       2.149   7.837  18.850  0.00  0.00    +0.000 A 
ATOM     21  C   UNL     1       1.832   9.083  18.296  0.00  0.00    +0.000 A 
ENDBRANCH  14  19
ENDBRANCH   1  14
TORSDOF 3
ENDMDL
MODEL 8
REMARK VINA RESULT:      -6.9      0.998      1.599
REMARK  Name = 
REMARK  3 active torsions:
REMARK  status: ('A' for Active; 'I' for Inactive)
REMARK    1  A    between atoms: C_5  and  S_6
REMARK    2  A    between atoms: S_6  and  C_7
REMARK    3  A    between atoms: C_9  and  C_10
REMARK                            x       y       z     vdW  Elec       q    Type
REMARK                         _______ _______ _______ _____ _____    ______ ____
ROOT
ATOM      1  C   UNL     1       4.024   6.057  18.157  0.00  0.00    +0.000 A 
ATOM      2  N   UNL     1       3.470   4.973  18.744  0.00  0.00    +0.000 NA
ATOM      3  C   UNL     1       4.248   4.016  19.295  0.00  0.00    +0.000 A 
ATOM      4  N   UNL     1       5.594   4.059  19.300  0.00  0.00    +0.000 NA
ATOM      5  C   UNL     1       6.158   5.143  18.720  0.00  0.00    +0.000 A 
ATOM      6  C   UNL     1       7.562   5.366  18.617  0.00  0.00    +0.000 A 
ATOM      7  C   UNL     1       7.863   6.549  17.985  0.00  0.00    +0.000 A 
ATOM      8  S   UNL     1       6.454   7.388  17.509  0.00  0.00    +0.000 S 
ATOM      9  C   UNL     1       5.413   6.168  18.142  0.00  0.00    +0.000 A 
ENDROOT
BRANCH   3  10
ATOM     10  C   UNL     1       3.573   2.787  19.931  0.00  0.00    +0.000 C 
ATOM     11 CL   UNL     1       2.642   1.802  18.744  0.00  0.00    +0.000 Cl
ATOM     12 CL   UNL     1       4.823   1.712  20.655  0.00  0.00    +0.000 Cl
ATOM     13 CL   UNL     1       2.431   3.303  21.220  0.00  0.00    +0.000 Cl
ENDBRANCH   3  10
BRANCH   1  14
ATOM     14  S   UNL     1       2.987   7.282  17.402  0.00  0.00    +0.000 S 
BRANCH  14  19
ATOM     15 CL   UNL     1      -0.183  10.090  22.072  0.00  0.00    +0.000 Cl
ATOM     16  C   UNL     1       0.711   9.327  20.815  0.00  0.00    +0.000 A 
ATOM     17  C   UNL     1       0.809   9.936  19.567  0.00  0.00    +0.000 A 
ATOM     18  C   UNL     1       1.528   9.311  18.543  0.00  0.00    +0.000 A 
ATOM     19  C   UNL     1       2.154   8.078  18.763  0.00  0.00    +0.000 A 
ATOM     20  C   UNL     1       2.035   7.469  20.019  0.00  0.00    +0.000 A 
ATOM     21  C   UNL     1       1.322   8.096  21.047  0.00  0.00    +0.000 A 
ENDBRANCH  14  19
ENDBRANCH   1  14
TORSDOF 3
ENDMDL
MODEL 9
REMARK VINA RESULT:      -6.9      3.206      4.166
REMARK  Name = 
REMARK  3 active torsions:
REMARK  status: ('A' for Active; 'I' for Inactive)
REMARK    1  A    between atoms: C_5  and  S_6
REMARK    2  A    between atoms: S_6  and  C_7
REMARK    3  A    between atoms: C_9  and  C_10
REMARK                            x       y       z     vdW  Elec       q    Type
REMARK                         _______ _______ _______ _____ _____    ______ ____
ROOT
ATOM      1  C   UNL     1       3.225   5.077  19.717  0.00  0.00    +0.000 A 
ATOM      2  N   UNL     1       4.427   5.586  19.371  0.00  0.00    +0.000 NA
ATOM      3  C   UNL     1       5.196   4.968  18.448  0.00  0.00    +0.000 A 
ATOM      4  N   UNL     1       4.842   3.829  17.824  0.00  0.00    +0.000 NA
ATOM      5  C   UNL     1       3.637   3.313  18.160  0.00  0.00    +0.000 A 
ATOM      6  C   UNL     1       3.092   2.114  17.618  0.00  0.00    +0.000 A 
ATOM      7  C   UNL     1       1.850   1.822  18.130  0.00  0.00    +0.000 A 
ATOM      8  S   UNL     1       1.344   2.989  19.269  0.00  0.00    +0.000 S 
ATOM      9  C   UNL     1       2.794   3.906  19.096  0.00  0.00    +0.000 A 
ENDROOT
BRANCH   3  10
ATOM     10  C   UNL     1       6.570   5.572  18.103  0.00  0.00    +0.000 C 
ATOM     11 CL   UNL     1       7.618   5.811  19.548  0.00  0.00    +0.000 Cl
ATOM     12 CL   UNL     1       7.451   4.476  16.977  0.00  0.00    +0.000 Cl
ATOM     13 CL   UNL     1       6.363   7.174  17.313  0.00  0.00    +0.000 Cl
ENDBRANCH   3  10
BRANCH   1  14
ATOM     14  S   UNL     1       2.248   5.881  20.961  0.00  0.00    +0.000 S 
BRANCH  14  19
ATOM     15 CL   UNL     1       0.691  11.400  18.343  0.00  0.00    +0.000 Cl
ATOM     16  C   UNL     1       1.138   9.910  19.078  0.00  0.00    +0.000 A 
ATOM     17  C   UNL     1       1.800   8.939  18.330  0.00  0.00    +0.000 A 
ATOM     18  C   UNL     1       2.153   7.724  18.927  0.00  0.00    +0.000 A 
ATOM     19  C   UNL     1       1.852   7.476  20.271  0.00  0.00    +0.000 A 
ATOM     20  C   UNL     1       1.173   8.455  21.008  0.00  0.00    +0.000 A 
ATOM     21  C   UNL     1       0.824   9.674  20.416  0.00  0.00    +0.000 A 
ENDBRANCH  14  19
ENDBRANCH   1  14
TORSDOF 3
ENDMDL
