MODEL 1
REMARK VINA RESULT:      -6.9      0.000      0.000
REMARK  Name = 
REMARK  8 active torsions:
REMARK  status: ('A' for Active; 'I' for Inactive)
REMARK    1  A    between atoms: C_1  and  C_2
REMARK    2  A    between atoms: C_7  and  N_8
REMARK    3  A    between atoms: C_9  and  C_11
REMARK    4  A    between atoms: C_11  and  N_12
REMARK    5  A    between atoms: C_13  and  S_14
REMARK    6  A    between atoms: C_16  and  C_17
REMARK    7  A    between atoms: C_16  and  C_18
REMARK    8  A    between atoms: C_20  and  C_21
REMARK                            x       y       z     vdW  Elec       q    Type
REMARK                         _______ _______ _______ _____ _____    ______ ____
ROOT
ATOM      1  C   UNL     1       2.785   5.984  18.217  0.00  0.00    +0.000 C 
ENDROOT
BRANCH   1   2
ATOM      2  N   UNL     1       4.237   5.770  18.384  0.00  0.00    +0.000 N 
ATOM      3  C   UNL     1       4.820   4.654  18.961  0.00  0.00    +0.000 C 
ATOM      4  N   UNL     1       6.074   4.426  19.065  0.00  0.00    +0.000 NA
ATOM      5  C   UNL     1       7.091   5.309  18.528  0.00  0.00    +0.000 C 
ATOM      6  C   UNL     1       7.844   4.493  17.465  0.00  0.00    +0.000 C 
ATOM      7  C   UNL     1       8.071   5.623  19.673  0.00  0.00    +0.000 C 
ATOM      8  C   UNL     1       6.538   6.630  17.979  0.00  0.00    +0.000 C 
ATOM      9  C   UNL     1       5.080   6.613  17.523  0.00  0.00    +0.000 C 
ATOM     10  C   UNL     1       4.938   6.242  16.046  0.00  0.00    +0.000 C 
BRANCH   3  11
ATOM     11  S   UNL     1       3.891   3.306  19.612  0.00  0.00    +0.000 S 
ATOM     12  H   UNL     1       4.554   3.081  20.750  0.00  0.00    +0.000 HD
ENDBRANCH   3  11
ENDBRANCH   1   2
BRANCH   1  14
ATOM     13  N   UNL     1       1.782   7.992  19.272  0.00  0.00    +0.000 N 
ATOM     14  C   UNL     1       2.090   6.639  19.418  0.00  0.00    +0.000 C 
ATOM     15  O   UNL     1       1.777   5.945  20.381  0.00  0.00    +0.000 OA
ATOM     16  H   UNL     1       1.851   8.393  18.350  0.00  0.00    +0.000 HD
BRANCH  13  23
ATOM     17  C   UNL     1      -0.086  10.154  18.497  0.00  0.00    +0.000 C 
ATOM     18  C   UNL     1       0.266   9.820  19.921  0.00  0.00    +0.000 A 
ATOM     19  C   UNL     1      -0.345  10.584  20.940  0.00  0.00    +0.000 A 
ATOM     20  C   UNL     1      -0.079  10.335  22.285  0.00  0.00    +0.000 A 
ATOM     21  C   UNL     1       0.820   9.337  22.632  0.00  0.00    +0.000 A 
ATOM     22  C   UNL     1       1.439   8.580  21.635  0.00  0.00    +0.000 A 
ATOM     23  C   UNL     1       1.163   8.788  20.274  0.00  0.00    +0.000 A 
ENDBRANCH  13  23
ENDBRANCH   1  14
TORSDOF 4
ENDMDL
MODEL 2
REMARK VINA RESULT:      -6.6      1.822      2.612
REMARK  Name = 
REMARK  8 active torsions:
REMARK  status: ('A' for Active; 'I' for Inactive)
REMARK    1  A    between atoms: C_1  and  C_2
REMARK    2  A    between atoms: C_7  and  N_8
REMARK    3  A    between atoms: C_9  and  C_11
REMARK    4  A    between atoms: C_11  and  N_12
REMARK    5  A    between atoms: C_13  and  S_14
REMARK    6  A    between atoms: C_16  and  C_17
REMARK    7  A    between atoms: C_16  and  C_18
REMARK    8  A    between atoms: C_20  and  C_21
REMARK                            x       y       z     vdW  Elec       q    Type
REMARK                         _______ _______ _______ _____ _____    ______ ____
ROOT
ATOM      1  C   UNL     1       3.717   4.635  19.956  0.00  0.00    +0.000 C 
ENDROOT
BRANCH   1   2
ATOM      2  N   UNL     1       4.288   4.695  18.596  0.00  0.00    +0.000 N 
ATOM      3  C   UNL     1       5.592   5.043  18.288  0.00  0.00    +0.000 C 
ATOM      4  N   UNL     1       6.119   5.047  17.123  0.00  0.00    +0.000 NA
ATOM      5  C   UNL     1       5.413   4.622  15.930  0.00  0.00    +0.000 C 
ATOM      6  C   UNL     1       6.179   3.400  15.396  0.00  0.00    +0.000 C 
ATOM      7  C   UNL     1       5.544   5.756  14.897  0.00  0.00    +0.000 C 
ATOM      8  C   UNL     1       3.924   4.335  16.159  0.00  0.00    +0.000 C 
ATOM      9  C   UNL     1       3.522   3.952  17.582  0.00  0.00    +0.000 C 
ATOM     10  C   UNL     1       3.581   2.442  17.815  0.00  0.00    +0.000 C 
BRANCH   3  11
ATOM     11  S   UNL     1       6.783   5.496  19.505  0.00  0.00    +0.000 S 
ATOM     12  H   UNL     1       6.978   6.779  19.189  0.00  0.00    +0.000 HD
ENDBRANCH   3  11
ENDBRANCH   1   2
BRANCH   1  14
ATOM     13  N   UNL     1       2.747   6.918  19.973  0.00  0.00    +0.000 N 
ATOM     14  C   UNL     1       2.515   5.558  20.189  0.00  0.00    +0.000 C 
ATOM     15  O   UNL     1       1.425   5.065  20.465  0.00  0.00    +0.000 OA
ATOM     16  H   UNL     1       3.600   7.179  19.504  0.00  0.00    +0.000 HD
BRANCH  13  23
ATOM     17  C   UNL     1       2.116   8.776  17.756  0.00  0.00    +0.000 C 
ATOM     18  C   UNL     1       1.460   8.830  19.109  0.00  0.00    +0.000 A 
ATOM     19  C   UNL     1       0.478   9.824  19.318  0.00  0.00    +0.000 A 
ATOM     20  C   UNL     1      -0.183   9.939  20.539  0.00  0.00    +0.000 A 
ATOM     21  C   UNL     1       0.143   9.079  21.578  0.00  0.00    +0.000 A 
ATOM     22  C   UNL     1       1.118   8.097  21.389  0.00  0.00    +0.000 A 
ATOM     23  C   UNL     1       1.775   7.939  20.158  0.00  0.00    +0.000 A 
ENDBRANCH  13  23
ENDBRANCH   1  14
TORSDOF 4
ENDMDL
MODEL 3
REMARK VINA RESULT:      -6.6      1.288      1.608
REMARK  Name = 
REMARK  8 active torsions:
REMARK  status: ('A' for Active; 'I' for Inactive)
REMARK    1  A    between atoms: C_1  and  C_2
REMARK    2  A    between atoms: C_7  and  N_8
REMARK    3  A    between atoms: C_9  and  C_11
REMARK    4  A    between atoms: C_11  and  N_12
REMARK    5  A    between atoms: C_13  and  S_14
REMARK    6  A    between atoms: C_16  and  C_17
REMARK    7  A    between atoms: C_16  and  C_18
REMARK    8  A    between atoms: C_20  and  C_21
REMARK                            x       y       z     vdW  Elec       q    Type
REMARK                         _______ _______ _______ _____ _____    ______ ____
ROOT
ATOM      1  C   UNL     1       2.816   6.846  17.780  0.00  0.00    +0.000 C 
ENDROOT
BRANCH   1   2
ATOM      2  N   UNL     1       4.209   6.429  18.033  0.00  0.00    +0.000 N 
ATOM      3  C   UNL     1       4.592   5.317  18.766  0.00  0.00    +0.000 C 
ATOM      4  N   UNL     1       5.790   4.909  18.948  0.00  0.00    +0.000 NA
ATOM      5  C   UNL     1       6.948   5.545  18.351  0.00  0.00    +0.000 C 
ATOM      6  C   UNL     1       7.582   4.491  17.428  0.00  0.00    +0.000 C 
ATOM      7  C   UNL     1       7.940   5.843  19.489  0.00  0.00    +0.000 C 
ATOM      8  C   UNL     1       6.627   6.856  17.622  0.00  0.00    +0.000 C 
ATOM      9  C   UNL     1       5.197   7.012  17.111  0.00  0.00    +0.000 C 
ATOM     10  C   UNL     1       5.029   6.483  15.686  0.00  0.00    +0.000 C 
BRANCH   3  11
ATOM     11  S   UNL     1       3.443   4.227  19.537  0.00  0.00    +0.000 S 
ATOM     12  H   UNL     1       3.731   4.440  20.824  0.00  0.00    +0.000 HD
ENDBRANCH   3  11
ENDBRANCH   1   2
BRANCH   1  14
ATOM     13  N   UNL     1       1.579   8.941  18.266  0.00  0.00    +0.000 N 
ATOM     14  C   UNL     1       2.248   7.839  18.802  0.00  0.00    +0.000 C 
ATOM     15  O   UNL     1       2.335   7.583  20.000  0.00  0.00    +0.000 OA
ATOM     16  H   UNL     1       1.346   8.917  17.286  0.00  0.00    +0.000 HD
BRANCH  13  23
ATOM     17  C   UNL     1       2.518  11.726  17.912  0.00  0.00    +0.000 C 
ATOM     18  C   UNL     1       1.438  11.321  18.877  0.00  0.00    +0.000 A 
ATOM     19  C   UNL     1       0.838  12.341  19.648  0.00  0.00    +0.000 A 
ATOM     20  C   UNL     1      -0.175  12.053  20.561  0.00  0.00    +0.000 A 
ATOM     21  C   UNL     1      -0.585  10.739  20.737  0.00  0.00    +0.000 A 
ATOM     22  C   UNL     1       0.006   9.719  19.989  0.00  0.00    +0.000 A 
ATOM     23  C   UNL     1       1.005   9.987  19.038  0.00  0.00    +0.000 A 
ENDBRANCH  13  23
ENDBRANCH   1  14
TORSDOF 4
ENDMDL
MODEL 4
REMARK VINA RESULT:      -6.5      1.255      1.968
REMARK  Name = 
REMARK  8 active torsions:
REMARK  status: ('A' for Active; 'I' for Inactive)
REMARK    1  A    between atoms: C_1  and  C_2
REMARK    2  A    between atoms: C_7  and  N_8
REMARK    3  A    between atoms: C_9  and  C_11
REMARK    4  A    between atoms: C_11  and  N_12
REMARK    5  A    between atoms: C_13  and  S_14
REMARK    6  A    between atoms: C_16  and  C_17
REMARK    7  A    between atoms: C_16  and  C_18
REMARK    8  A    between atoms: C_20  and  C_21
REMARK                            x       y       z     vdW  Elec       q    Type
REMARK                         _______ _______ _______ _____ _____    ______ ____
ROOT
ATOM      1  C   UNL     1       2.774   6.327  17.938  0.00  0.00    +0.000 C 
ENDROOT
BRANCH   1   2
ATOM      2  N   UNL     1       4.206   6.054  18.178  0.00  0.00    +0.000 N 
ATOM      3  C   UNL     1       4.707   4.983  18.899  0.00  0.00    +0.000 C 
ATOM      4  N   UNL     1       5.942   4.699  19.070  0.00  0.00    +0.000 NA
ATOM      5  C   UNL     1       7.023   5.456  18.469  0.00  0.00    +0.000 C 
ATOM      6  C   UNL     1       7.755   4.480  17.533  0.00  0.00    +0.000 C 
ATOM      7  C   UNL     1       7.989   5.846  19.603  0.00  0.00    +0.000 C 
ATOM      8  C   UNL     1       6.563   6.732  17.753  0.00  0.00    +0.000 C 
ATOM      9  C   UNL     1       5.120   6.743  17.254  0.00  0.00    +0.000 C 
ATOM     10  C   UNL     1       4.996   6.210  15.825  0.00  0.00    +0.000 C 
BRANCH   3  11
ATOM     11  S   UNL     1       3.683   3.774  19.669  0.00  0.00    +0.000 S 
ATOM     12  H   UNL     1       4.600   2.874  20.034  0.00  0.00    +0.000 HD
ENDBRANCH   3  11
ENDBRANCH   1   2
BRANCH   1  14
ATOM     13  N   UNL     1       1.709   8.127  19.272  0.00  0.00    +0.000 N 
ATOM     14  C   UNL     1       2.369   7.799  18.086  0.00  0.00    +0.000 C 
ATOM     15  O   UNL     1       2.705   8.604  17.222  0.00  0.00    +0.000 OA
ATOM     16  H   UNL     1       1.715   7.446  20.016  0.00  0.00    +0.000 HD
BRANCH  13  23
ATOM     17  C   UNL     1       1.149   8.842  22.090  0.00  0.00    +0.000 C 
ATOM     18  C   UNL     1       0.960   9.783  20.931  0.00  0.00    +0.000 A 
ATOM     19  C   UNL     1       0.497  11.086  21.220  0.00  0.00    +0.000 A 
ATOM     20  C   UNL     1       0.302  12.023  20.206  0.00  0.00    +0.000 A 
ATOM     21  C   UNL     1       0.542  11.664  18.887  0.00  0.00    +0.000 A 
ATOM     22  C   UNL     1       0.991  10.377  18.586  0.00  0.00    +0.000 A 
ATOM     23  C   UNL     1       1.227   9.426  19.592  0.00  0.00    +0.000 A 
ENDBRANCH  13  23
ENDBRANCH   1  14
TORSDOF 4
ENDMDL
MODEL 5
REMARK VINA RESULT:      -6.5      2.677      7.371
REMARK  Name = 
REMARK  8 active torsions:
REMARK  status: ('A' for Active; 'I' for Inactive)
REMARK    1  A    between atoms: C_1  and  C_2
REMARK    2  A    between atoms: C_7  and  N_8
REMARK    3  A    between atoms: C_9  and  C_11
REMARK    4  A    between atoms: C_11  and  N_12
REMARK    5  A    between atoms: C_13  and  S_14
REMARK    6  A    between atoms: C_16  and  C_17
REMARK    7  A    between atoms: C_16  and  C_18
REMARK    8  A    between atoms: C_20  and  C_21
REMARK                            x       y       z     vdW  Elec       q    Type
REMARK                         _______ _______ _______ _____ _____    ______ ____
ROOT
ATOM      1  C   UNL     1       1.843   8.535  20.482  0.00  0.00    +0.000 C 
ENDROOT
BRANCH   1   2
ATOM      2  N   UNL     1       0.734   9.258  19.827  0.00  0.00    +0.000 N 
ATOM      3  C   UNL     1      -0.227  10.012  20.479  0.00  0.00    +0.000 C 
ATOM      4  N   UNL     1      -1.159  10.690  19.927  0.00  0.00    +0.000 NA
ATOM      5  C   UNL     1      -1.313  10.807  18.489  0.00  0.00    +0.000 C 
ATOM      6  C   UNL     1      -1.131  12.298  18.163  0.00  0.00    +0.000 C 
ATOM      7  C   UNL     1      -2.765  10.418  18.155  0.00  0.00    +0.000 C 
ATOM      8  C   UNL     1      -0.366   9.904  17.689  0.00  0.00    +0.000 C 
ATOM      9  C   UNL     1       0.930   9.498  18.388  0.00  0.00    +0.000 C 
ATOM     10  C   UNL     1       2.067  10.485  18.124  0.00  0.00    +0.000 C 
BRANCH   3  11
ATOM     11  S   UNL     1      -0.277  10.206  22.230  0.00  0.00    +0.000 S 
ATOM     12  H   UNL     1       0.636   9.304  22.601  0.00  0.00    +0.000 HD
ENDBRANCH   3  11
ENDBRANCH   1   2
BRANCH   1  14
ATOM     13  N   UNL     1       2.745   6.696  19.083  0.00  0.00    +0.000 N 
ATOM     14  C   UNL     1       1.916   7.039  20.153  0.00  0.00    +0.000 C 
ATOM     15  O   UNL     1       1.328   6.237  20.873  0.00  0.00    +0.000 OA
ATOM     16  H   UNL     1       3.374   7.401  18.733  0.00  0.00    +0.000 HD
BRANCH  13  23
ATOM     17  C   UNL     1       5.395   5.398  19.316  0.00  0.00    +0.000 C 
ATOM     18  C   UNL     1       4.187   4.737  18.711  0.00  0.00    +0.000 A 
ATOM     19  C   UNL     1       4.337   3.414  18.237  0.00  0.00    +0.000 A 
ATOM     20  C   UNL     1       3.267   2.727  17.669  0.00  0.00    +0.000 A 
ATOM     21  C   UNL     1       2.038   3.358  17.540  0.00  0.00    +0.000 A 
ATOM     22  C   UNL     1       1.877   4.668  17.995  0.00  0.00    +0.000 A 
ATOM     23  C   UNL     1       2.931   5.371  18.602  0.00  0.00    +0.000 A 
ENDBRANCH  13  23
ENDBRANCH   1  14
TORSDOF 4
ENDMDL
MODEL 6
REMARK VINA RESULT:      -6.4      1.925      2.092
REMARK  Name = 
REMARK  8 active torsions:
REMARK  status: ('A' for Active; 'I' for Inactive)
REMARK    1  A    between atoms: C_1  and  C_2
REMARK    2  A    between atoms: C_7  and  N_8
REMARK    3  A    between atoms: C_9  and  C_11
REMARK    4  A    between atoms: C_11  and  N_12
REMARK    5  A    between atoms: C_13  and  S_14
REMARK    6  A    between atoms: C_16  and  C_17
REMARK    7  A    between atoms: C_16  and  C_18
REMARK    8  A    between atoms: C_20  and  C_21
REMARK                            x       y       z     vdW  Elec       q    Type
REMARK                         _______ _______ _______ _____ _____    ______ ____
ROOT
ATOM      1  C   UNL     1       2.741   6.724  17.749  0.00  0.00    +0.000 C 
ENDROOT
BRANCH   1   2
ATOM      2  N   UNL     1       4.145   6.356  18.019  0.00  0.00    +0.000 N 
ATOM      3  C   UNL     1       4.558   5.265  18.766  0.00  0.00    +0.000 C 
ATOM      4  N   UNL     1       5.767   4.899  18.963  0.00  0.00    +0.000 NA
ATOM      5  C   UNL     1       6.908   5.568  18.370  0.00  0.00    +0.000 C 
ATOM      6  C   UNL     1       7.586   4.527  17.463  0.00  0.00    +0.000 C 
ATOM      7  C   UNL     1       7.880   5.910  19.514  0.00  0.00    +0.000 C 
ATOM      8  C   UNL     1       6.551   6.861  17.626  0.00  0.00    +0.000 C 
ATOM      9  C   UNL     1       5.121   6.963  17.100  0.00  0.00    +0.000 C 
ATOM     10  C   UNL     1       4.984   6.416  15.679  0.00  0.00    +0.000 C 
BRANCH   3  11
ATOM     11  S   UNL     1       3.439   4.145  19.537  0.00  0.00    +0.000 S 
ATOM     12  H   UNL     1       3.788   4.294  20.818  0.00  0.00    +0.000 HD
ENDBRANCH   3  11
ENDBRANCH   1   2
BRANCH   1  14
ATOM     13  N   UNL     1       1.802   9.019  17.659  0.00  0.00    +0.000 N 
ATOM     14  C   UNL     1       2.256   7.984  18.479  0.00  0.00    +0.000 C 
ATOM     15  O   UNL     1       2.215   7.988  19.705  0.00  0.00    +0.000 OA
ATOM     16  H   UNL     1       1.640   8.810  16.686  0.00  0.00    +0.000 HD
BRANCH  13  23
ATOM     17  C   UNL     1      -1.104   9.563  17.793  0.00  0.00    +0.000 C 
ATOM     18  C   UNL     1      -0.046  10.548  18.209  0.00  0.00    +0.000 A 
ATOM     19  C   UNL     1      -0.478  11.801  18.699  0.00  0.00    +0.000 A 
ATOM     20  C   UNL     1       0.437  12.768  19.112  0.00  0.00    +0.000 A 
ATOM     21  C   UNL     1       1.797  12.509  19.016  0.00  0.00    +0.000 A 
ATOM     22  C   UNL     1       2.239  11.279  18.524  0.00  0.00    +0.000 A 
ATOM     23  C   UNL     1       1.338  10.275  18.134  0.00  0.00    +0.000 A 
ENDBRANCH  13  23
ENDBRANCH   1  14
TORSDOF 4
ENDMDL
MODEL 7
REMARK VINA RESULT:      -6.3      3.291      7.674
REMARK  Name = 
REMARK  8 active torsions:
REMARK  status: ('A' for Active; 'I' for Inactive)
REMARK    1  A    between atoms: C_1  and  C_2
REMARK    2  A    between atoms: C_7  and  N_8
REMARK    3  A    between atoms: C_9  and  C_11
REMARK    4  A    between atoms: C_11  and  N_12
REMARK    5  A    between atoms: C_13  and  S_14
REMARK    6  A    between atoms: C_16  and  C_17
REMARK    7  A    between atoms: C_16  and  C_18
REMARK    8  A    between atoms: C_20  and  C_21
REMARK                            x       y       z     vdW  Elec       q    Type
REMARK                         _______ _______ _______ _____ _____    ______ ____
ROOT
ATOM      1  C   UNL     1       5.053   6.752  17.057  0.00  0.00    +0.000 C 
ENDROOT
BRANCH   1   2
ATOM      2  N   UNL     1       4.302   5.784  17.882  0.00  0.00    +0.000 N 
ATOM      3  C   UNL     1       4.842   5.001  18.889  0.00  0.00    +0.000 C 
ATOM      4  N   UNL     1       4.199   4.199  19.650  0.00  0.00    +0.000 NA
ATOM      5  C   UNL     1       2.760   4.034  19.596  0.00  0.00    +0.000 C 
ATOM      6  C   UNL     1       2.229   4.486  20.966  0.00  0.00    +0.000 C 
ATOM      7  C   UNL     1       2.481   2.526  19.450  0.00  0.00    +0.000 C 
ATOM      8  C   UNL     1       2.094   4.772  18.428  0.00  0.00    +0.000 C 
ATOM      9  C   UNL     1       2.844   5.984  17.881  0.00  0.00    +0.000 C 
ATOM     10  C   UNL     1       2.446   7.281  18.586  0.00  0.00    +0.000 C 
BRANCH   3  11
ATOM     11  S   UNL     1       6.548   5.033  19.327  0.00  0.00    +0.000 S 
ATOM     12  H   UNL     1       6.585   6.135  20.081  0.00  0.00    +0.000 HD
ENDBRANCH   3  11
ENDBRANCH   1   2
BRANCH   1  14
ATOM     13  N   UNL     1       5.658   5.024  15.383  0.00  0.00    +0.000 N 
ATOM     14  C   UNL     1       5.237   6.339  15.592  0.00  0.00    +0.000 C 
ATOM     15  O   UNL     1       4.937   7.131  14.703  0.00  0.00    +0.000 OA
ATOM     16  H   UNL     1       5.625   4.391  16.167  0.00  0.00    +0.000 HD
BRANCH  13  23
ATOM     17  C   UNL     1       8.206   5.600  13.990  0.00  0.00    +0.000 C 
ATOM     18  C   UNL     1       7.125   4.715  13.431  0.00  0.00    +0.000 A 
ATOM     19  C   UNL     1       7.356   4.122  12.170  0.00  0.00    +0.000 A 
ATOM     20  C   UNL     1       6.409   3.283  11.584  0.00  0.00    +0.000 A 
ATOM     21  C   UNL     1       5.208   3.045  12.237  0.00  0.00    +0.000 A 
ATOM     22  C   UNL     1       4.962   3.633  13.479  0.00  0.00    +0.000 A 
ATOM     23  C   UNL     1       5.913   4.454  14.106  0.00  0.00    +0.000 A 
ENDBRANCH  13  23
ENDBRANCH   1  14
TORSDOF 4
ENDMDL
MODEL 8
REMARK VINA RESULT:      -6.3      3.617      7.372
REMARK  Name = 
REMARK  8 active torsions:
REMARK  status: ('A' for Active; 'I' for Inactive)
REMARK    1  A    between atoms: C_1  and  C_2
REMARK    2  A    between atoms: C_7  and  N_8
REMARK    3  A    between atoms: C_9  and  C_11
REMARK    4  A    between atoms: C_11  and  N_12
REMARK    5  A    between atoms: C_13  and  S_14
REMARK    6  A    between atoms: C_16  and  C_17
REMARK    7  A    between atoms: C_16  and  C_18
REMARK    8  A    between atoms: C_20  and  C_21
REMARK                            x       y       z     vdW  Elec       q    Type
REMARK                         _______ _______ _______ _____ _____    ______ ____
ROOT
ATOM      1  C   UNL     1       1.871   8.308  20.409  0.00  0.00    +0.000 C 
ENDROOT
BRANCH   1   2
ATOM      2  N   UNL     1       0.779   9.094  19.800  0.00  0.00    +0.000 N 
ATOM      3  C   UNL     1      -0.183   9.805  20.497  0.00  0.00    +0.000 C 
ATOM      4  N   UNL     1      -1.100  10.535  19.989  0.00  0.00    +0.000 NA
ATOM      5  C   UNL     1      -1.232  10.770  18.563  0.00  0.00    +0.000 C 
ATOM      6  C   UNL     1      -1.030  12.280  18.362  0.00  0.00    +0.000 C 
ATOM      7  C   UNL     1      -2.682  10.426  18.178  0.00  0.00    +0.000 C 
ATOM      8  C   UNL     1      -0.282   9.924  17.706  0.00  0.00    +0.000 C 
ATOM      9  C   UNL     1       0.999   9.447  18.388  0.00  0.00    +0.000 C 
ATOM     10  C   UNL     1       2.150  10.440  18.220  0.00  0.00    +0.000 C 
BRANCH   3  11
ATOM     11  S   UNL     1      -0.257   9.857  22.257  0.00  0.00    +0.000 S 
ATOM     12  H   UNL     1      -0.740   8.639  22.517  0.00  0.00    +0.000 HD
ENDBRANCH   3  11
ENDBRANCH   1   2
BRANCH   1  14
ATOM     13  N   UNL     1       1.667   5.883  19.930  0.00  0.00    +0.000 N 
ATOM     14  C   UNL     1       2.306   7.080  19.601  0.00  0.00    +0.000 C 
ATOM     15  O   UNL     1       3.107   7.220  18.681  0.00  0.00    +0.000 OA
ATOM     16  H   UNL     1       0.849   5.934  20.518  0.00  0.00    +0.000 HD
BRANCH  13  23
ATOM     17  C   UNL     1       2.095   3.484  21.612  0.00  0.00    +0.000 C 
ATOM     18  C   UNL     1       2.145   3.475  20.108  0.00  0.00    +0.000 A 
ATOM     19  C   UNL     1       2.403   2.240  19.473  0.00  0.00    +0.000 A 
ATOM     20  C   UNL     1       2.459   2.143  18.083  0.00  0.00    +0.000 A 
ATOM     21  C   UNL     1       2.285   3.281  17.309  0.00  0.00    +0.000 A 
ATOM     22  C   UNL     1       2.038   4.510  17.924  0.00  0.00    +0.000 A 
ATOM     23  C   UNL     1       1.944   4.629  19.320  0.00  0.00    +0.000 A 
ENDBRANCH  13  23
ENDBRANCH   1  14
TORSDOF 4
ENDMDL
MODEL 9
REMARK VINA RESULT:      -6.2      3.768      7.270
REMARK  Name = 
REMARK  8 active torsions:
REMARK  status: ('A' for Active; 'I' for Inactive)
REMARK    1  A    between atoms: C_1  and  C_2
REMARK    2  A    between atoms: C_7  and  N_8
REMARK    3  A    between atoms: C_9  and  C_11
REMARK    4  A    between atoms: C_11  and  N_12
REMARK    5  A    between atoms: C_13  and  S_14
REMARK    6  A    between atoms: C_16  and  C_17
REMARK    7  A    between atoms: C_16  and  C_18
REMARK    8  A    between atoms: C_20  and  C_21
REMARK                            x       y       z     vdW  Elec       q    Type
REMARK                         _______ _______ _______ _____ _____    ______ ____
ROOT
ATOM      1  C   UNL     1       1.633   8.788  20.533  0.00  0.00    +0.000 C 
ENDROOT
BRANCH   1   2
ATOM      2  N   UNL     1       0.579   9.585  19.873  0.00  0.00    +0.000 N 
ATOM      3  C   UNL     1      -0.285  10.457  20.515  0.00  0.00    +0.000 C 
ATOM      4  N   UNL     1      -1.165  11.196  19.955  0.00  0.00    +0.000 NA
ATOM      5  C   UNL     1      -1.350  11.265  18.518  0.00  0.00    +0.000 C 
ATOM      6  C   UNL     1      -1.036  12.717  18.120  0.00  0.00    +0.000 C 
ATOM      7  C   UNL     1      -2.841  11.005  18.239  0.00  0.00    +0.000 C 
ATOM      8  C   UNL     1      -0.517  10.242  17.737  0.00  0.00    +0.000 C 
ATOM      9  C   UNL     1       0.754   9.742  18.421  0.00  0.00    +0.000 C 
ATOM     10  C   UNL     1       1.972  10.603  18.082  0.00  0.00    +0.000 C 
BRANCH   3  11
ATOM     11  S   UNL     1      -0.264  10.730  22.255  0.00  0.00    +0.000 S 
ATOM     12  H   UNL     1      -1.232   9.895  22.644  0.00  0.00    +0.000 HD
ENDBRANCH   3  11
ENDBRANCH   1   2
BRANCH   1  14
ATOM     13  N   UNL     1       2.267   6.408  20.235  0.00  0.00    +0.000 N 
ATOM     14  C   UNL     1       1.300   7.300  20.702  0.00  0.00    +0.000 C 
ATOM     15  O   UNL     1       0.273   6.978  21.293  0.00  0.00    +0.000 OA
ATOM     16  H   UNL     1       3.176   6.779  20.005  0.00  0.00    +0.000 HD
BRANCH  13  23
ATOM     17  C   UNL     1       1.709   4.906  17.745  0.00  0.00    +0.000 C 
ATOM     18  C   UNL     1       1.880   4.262  19.094  0.00  0.00    +0.000 A 
ATOM     19  C   UNL     1       1.776   2.854  19.161  0.00  0.00    +0.000 A 
ATOM     20  C   UNL     1       1.928   2.178  20.370  0.00  0.00    +0.000 A 
ATOM     21  C   UNL     1       2.162   2.897  21.533  0.00  0.00    +0.000 A 
ATOM     22  C   UNL     1       2.258   4.289  21.483  0.00  0.00    +0.000 A 
ATOM     23  C   UNL     1       2.141   4.993  20.273  0.00  0.00    +0.000 A 
ENDBRANCH  13  23
ENDBRANCH   1  14
TORSDOF 4
ENDMDL
