MODEL 1
REMARK VINA RESULT:      -7.9      0.000      0.000
REMARK  Name = 
REMARK  12 active torsions:
REMARK  status: ('A' for Active; 'I' for Inactive)
REMARK    1  A    between atoms: C_1  and  C_2
REMARK    2  A    between atoms: C_2  and  O_3
REMARK    3  A    between atoms: O_3  and  C_4
REMARK    4  A    between atoms: C_9  and  N_10
REMARK    5  A    between atoms: N_13  and  C_14
REMARK    6  A    between atoms: C_23  and  C_24
REMARK    7  A    between atoms: C_24  and  C_25
REMARK    8  A    between atoms: C_24  and  C_27
REMARK    9  A    between atoms: C_27  and  O_29
REMARK   10  A    between atoms: O_29  and  C_30
REMARK   11  A    between atoms: C_30  and  C_31
REMARK   12  A    between atoms: C_30  and  C_32
REMARK                            x       y       z     vdW  Elec       q    Type
REMARK                         _______ _______ _______ _____ _____    ______ ____
ROOT
ATOM      1  C   UNL     1       2.392   6.458  19.541  0.00  0.00    +0.000 A 
ATOM      2  N   UNL     1       2.150   5.535  20.469  0.00  0.00    +0.000 NA
ATOM      3  C   UNL     1       1.905   4.273  19.993  0.00  0.00    +0.000 A 
ATOM      4  C   UNL     1       2.395   3.051  20.455  0.00  0.00    +0.000 A 
ATOM      5  C   UNL     1       2.063   1.829  19.837  0.00  0.00    +0.000 A 
ATOM      6  C   UNL     1       1.029   1.829  18.916  0.00  0.00    +0.000 A 
ATOM      7  C   UNL     1       0.646   3.054  18.408  0.00  0.00    +0.000 A 
ATOM      8  C   UNL     1       1.458   4.152  18.695  0.00  0.00    +0.000 A 
ATOM      9  N   UNL     1       2.135   4.905  17.811  0.00  0.00    +0.000 NA
ATOM     10  C   UNL     1       2.847   5.924  18.362  0.00  0.00    +0.000 A 
ENDROOT
BRANCH   1  14
ATOM     11  N   UNL     1       0.574  10.177  19.155  0.00  0.00    +0.000 N 
ATOM     12  C   UNL     1       0.899   9.224  18.092  0.00  0.00    +0.000 C 
ATOM     13  C   UNL     1       2.284   8.658  18.413  0.00  0.00    +0.000 C 
ATOM     14  N   UNL     1       2.263   7.843  19.664  0.00  0.00    +0.000 N 
ATOM     15  C   UNL     1       1.559   8.456  20.802  0.00  0.00    +0.000 C 
ATOM     16  C   UNL     1       0.391   9.448  20.442  0.00  0.00    +0.000 C 
BRANCH  11  22
ATOM     17  C   UNL     1      -0.774  12.296  18.951  0.00  0.00    +0.000 A 
ATOM     18  C   UNL     1      -0.782  13.705  18.844  0.00  0.00    +0.000 A 
ATOM     19  C   UNL     1       0.386  14.420  18.633  0.00  0.00    +0.000 A 
ATOM     20  C   UNL     1       1.580  13.731  18.561  0.00  0.00    +0.000 A 
ATOM     21  C   UNL     1       1.605  12.339  18.746  0.00  0.00    +0.000 A 
ATOM     22  C   UNL     1       0.450  11.553  18.961  0.00  0.00    +0.000 A 
BRANCH  17  23
ATOM     23  O   UNL     1      -1.973  11.623  19.044  0.00  0.00    +0.000 OA
BRANCH  23  25
ATOM     24  C   UNL     1      -2.671   9.976  17.480  0.00  0.00    +0.000 C 
ATOM     25  C   UNL     1      -2.735  11.443  17.850  0.00  0.00    +0.000 C 
ENDBRANCH  23  25
ENDBRANCH  17  23
ENDBRANCH  11  22
ENDBRANCH   1  14
BRANCH  10  26
ATOM     26  C   UNL     1       4.335   6.201  18.135  0.00  0.00    +0.000 C 
BRANCH  26  27
ATOM     27  C   UNL     1       5.347   5.285  18.805  0.00  0.00    +0.000 C 
ATOM     28  N   UNL     1       6.186   4.526  19.361  0.00  0.00    +0.000 NA
ENDBRANCH  26  27
BRANCH  26  29
ATOM     29  C   UNL     1       4.707   6.302  16.668  0.00  0.00    +0.000 C 
ATOM     30  O   UNL     1       4.655   7.351  16.032  0.00  0.00    +0.000 OA
BRANCH  29  31
ATOM     31  O   UNL     1       4.998   5.107  16.108  0.00  0.00    +0.000 OA
BRANCH  31  32
ATOM     32  C   UNL     1       6.051   5.056  15.123  0.00  0.00    +0.000 C 
ATOM     33  C   UNL     1       7.354   4.625  15.781  0.00  0.00    +0.000 C 
ATOM     34  C   UNL     1       5.609   4.034  14.083  0.00  0.00    +0.000 C 
ENDBRANCH  31  32
ENDBRANCH  29  31
ENDBRANCH  26  29
ENDBRANCH  10  26
TORSDOF 9
ENDMDL
MODEL 2
REMARK VINA RESULT:      -7.3      1.070      1.126
REMARK  Name = 
REMARK  12 active torsions:
REMARK  status: ('A' for Active; 'I' for Inactive)
REMARK    1  A    between atoms: C_1  and  C_2
REMARK    2  A    between atoms: C_2  and  O_3
REMARK    3  A    between atoms: O_3  and  C_4
REMARK    4  A    between atoms: C_9  and  N_10
REMARK    5  A    between atoms: N_13  and  C_14
REMARK    6  A    between atoms: C_23  and  C_24
REMARK    7  A    between atoms: C_24  and  C_25
REMARK    8  A    between atoms: C_24  and  C_27
REMARK    9  A    between atoms: C_27  and  O_29
REMARK   10  A    between atoms: O_29  and  C_30
REMARK   11  A    between atoms: C_30  and  C_31
REMARK   12  A    between atoms: C_30  and  C_32
REMARK                            x       y       z     vdW  Elec       q    Type
REMARK                         _______ _______ _______ _____ _____    ______ ____
ROOT
ATOM      1  C   UNL     1       3.121   6.312  19.133  0.00  0.00    +0.000 A 
ATOM      2  N   UNL     1       3.060   5.325  20.023  0.00  0.00    +0.000 NA
ATOM      3  C   UNL     1       3.038   4.059  19.497  0.00  0.00    +0.000 A 
ATOM      4  C   UNL     1       3.743   2.927  19.907  0.00  0.00    +0.000 A 
ATOM      5  C   UNL     1       3.627   1.691  19.242  0.00  0.00    +0.000 A 
ATOM      6  C   UNL     1       2.598   1.542  18.328  0.00  0.00    +0.000 A 
ATOM      7  C   UNL     1       1.996   2.698  17.872  0.00  0.00    +0.000 A 
ATOM      8  C   UNL     1       2.603   3.911  18.199  0.00  0.00    +0.000 A 
ATOM      9  N   UNL     1       3.124   4.807  17.342  0.00  0.00    +0.000 NA
ATOM     10  C   UNL     1       3.649   5.914  17.929  0.00  0.00    +0.000 A 
ENDROOT
BRANCH   1  14
ATOM     11  N   UNL     1       0.688   9.672  18.856  0.00  0.00    +0.000 N 
ATOM     12  C   UNL     1       1.198   8.843  17.762  0.00  0.00    +0.000 C 
ATOM     13  C   UNL     1       2.654   8.512  18.100  0.00  0.00    +0.000 C 
ATOM     14  N   UNL     1       2.748   7.646  19.312  0.00  0.00    +0.000 N 
ATOM     15  C   UNL     1       1.923   8.071  20.454  0.00  0.00    +0.000 C 
ATOM     16  C   UNL     1       0.608   8.861  20.103  0.00  0.00    +0.000 C 
BRANCH  11  22
ATOM     17  C   UNL     1      -0.997  11.514  18.519  0.00  0.00    +0.000 A 
ATOM     18  C   UNL     1      -1.266  12.902  18.491  0.00  0.00    +0.000 A 
ATOM     19  C   UNL     1      -0.244  13.837  18.545  0.00  0.00    +0.000 A 
ATOM     20  C   UNL     1       1.056  13.390  18.661  0.00  0.00    +0.000 A 
ATOM     21  C   UNL     1       1.325  12.016  18.769  0.00  0.00    +0.000 A 
ATOM     22  C   UNL     1       0.329  11.013  18.718  0.00  0.00    +0.000 A 
BRANCH  17  23
ATOM     23  O   UNL     1      -2.036  10.626  18.348  0.00  0.00    +0.000 OA
BRANCH  23  25
ATOM     24  C   UNL     1      -3.510  10.742  16.486  0.00  0.00    +0.000 C 
ATOM     25  C   UNL     1      -2.256  10.097  17.039  0.00  0.00    +0.000 C 
ENDBRANCH  23  25
ENDBRANCH  17  23
ENDBRANCH  11  22
ENDBRANCH   1  14
BRANCH  10  26
ATOM     26  C   UNL     1       5.061   6.461  17.706  0.00  0.00    +0.000 C 
BRANCH  26  27
ATOM     27  C   UNL     1       6.222   5.756  18.390  0.00  0.00    +0.000 C 
ATOM     28  N   UNL     1       7.185   5.171  18.956  0.00  0.00    +0.000 NA
ENDBRANCH  26  27
BRANCH  26  29
ATOM     29  C   UNL     1       5.416   6.616  16.239  0.00  0.00    +0.000 C 
ATOM     30  O   UNL     1       4.809   7.362  15.476  0.00  0.00    +0.000 OA
BRANCH  29  31
ATOM     31  O   UNL     1       6.395   5.776  15.836  0.00  0.00    +0.000 OA
BRANCH  31  32
ATOM     32  C   UNL     1       6.096   4.839  14.781  0.00  0.00    +0.000 C 
ATOM     33  C   UNL     1       7.221   4.838  13.756  0.00  0.00    +0.000 C 
ATOM     34  C   UNL     1       5.974   3.475  15.447  0.00  0.00    +0.000 C 
ENDBRANCH  31  32
ENDBRANCH  29  31
ENDBRANCH  26  29
ENDBRANCH  10  26
TORSDOF 9
ENDMDL
MODEL 3
REMARK VINA RESULT:      -7.1      2.002      9.439
REMARK  Name = 
REMARK  12 active torsions:
REMARK  status: ('A' for Active; 'I' for Inactive)
REMARK    1  A    between atoms: C_1  and  C_2
REMARK    2  A    between atoms: C_2  and  O_3
REMARK    3  A    between atoms: O_3  and  C_4
REMARK    4  A    between atoms: C_9  and  N_10
REMARK    5  A    between atoms: N_13  and  C_14
REMARK    6  A    between atoms: C_23  and  C_24
REMARK    7  A    between atoms: C_24  and  C_25
REMARK    8  A    between atoms: C_24  and  C_27
REMARK    9  A    between atoms: C_27  and  O_29
REMARK   10  A    between atoms: O_29  and  C_30
REMARK   11  A    between atoms: C_30  and  C_31
REMARK   12  A    between atoms: C_30  and  C_32
REMARK                            x       y       z     vdW  Elec       q    Type
REMARK                         _______ _______ _______ _____ _____    ______ ____
ROOT
ATOM      1  C   UNL     1       0.552  11.037  19.593  0.00  0.00    +0.000 A 
ATOM      2  N   UNL     1       1.239  11.723  20.504  0.00  0.00    +0.000 NA
ATOM      3  C   UNL     1       1.307  13.076  20.293  0.00  0.00    +0.000 A 
ATOM      4  C   UNL     1       1.149  14.115  21.210  0.00  0.00    +0.000 A 
ATOM      5  C   UNL     1       1.228  15.469  20.828  0.00  0.00    +0.000 A 
ATOM      6  C   UNL     1       1.726  15.759  19.570  0.00  0.00    +0.000 A 
ATOM      7  C   UNL     1       1.768  14.721  18.661  0.00  0.00    +0.000 A 
ATOM      8  C   UNL     1       1.119  13.535  19.008  0.00  0.00    +0.000 A 
ATOM      9  N   UNL     1       0.073  12.975  18.375  0.00  0.00    +0.000 NA
ATOM     10  C   UNL     1      -0.363  11.809  18.921  0.00  0.00    +0.000 A 
ENDROOT
BRANCH   1  14
ATOM     11  N   UNL     1       2.443   7.430  18.760  0.00  0.00    +0.000 N 
ATOM     12  C   UNL     1       2.556   8.691  18.025  0.00  0.00    +0.000 C 
ATOM     13  C   UNL     1       1.147   9.286  17.950  0.00  0.00    +0.000 C 
ATOM     14  N   UNL     1       0.648   9.675  19.301  0.00  0.00    +0.000 N 
ATOM     15  C   UNL     1       0.845   8.670  20.358  0.00  0.00    +0.000 C 
ATOM     16  C   UNL     1       2.078   7.708  20.178  0.00  0.00    +0.000 C 
BRANCH  11  22
ATOM     17  C   UNL     1       3.891   5.706  17.628  0.00  0.00    +0.000 A 
ATOM     18  C   UNL     1       4.035   4.377  17.170  0.00  0.00    +0.000 A 
ATOM     19  C   UNL     1       2.962   3.500  17.148  0.00  0.00    +0.000 A 
ATOM     20  C   UNL     1       1.740   3.938  17.617  0.00  0.00    +0.000 A 
ATOM     21  C   UNL     1       1.608   5.231  18.148  0.00  0.00    +0.000 A 
ATOM     22  C   UNL     1       2.662   6.173  18.196  0.00  0.00    +0.000 A 
BRANCH  17  23
ATOM     23  O   UNL     1       4.957   6.572  17.523  0.00  0.00    +0.000 OA
BRANCH  23  25
ATOM     24  C   UNL     1       7.318   6.687  17.271  0.00  0.00    +0.000 C 
ATOM     25  C   UNL     1       6.185   6.200  18.151  0.00  0.00    +0.000 C 
ENDBRANCH  23  25
ENDBRANCH  17  23
ENDBRANCH  11  22
ENDBRANCH   1  14
BRANCH  10  26
ATOM     26  C   UNL     1      -1.803  11.499  19.336  0.00  0.00    +0.000 C 
BRANCH  26  27
ATOM     27  C   UNL     1      -2.465  12.402  20.364  0.00  0.00    +0.000 C 
ATOM     28  N   UNL     1      -3.015  13.152  21.215  0.00  0.00    +0.000 NA
ENDBRANCH  26  27
BRANCH  26  29
ATOM     29  C   UNL     1      -2.749  11.370  18.158  0.00  0.00    +0.000 C 
ATOM     30  O   UNL     1      -2.406  10.927  17.065  0.00  0.00    +0.000 OA
BRANCH  29  31
ATOM     31  O   UNL     1      -3.975  11.886  18.399  0.00  0.00    +0.000 OA
BRANCH  31  32
ATOM     32  C   UNL     1      -5.098  11.340  17.676  0.00  0.00    +0.000 C 
ATOM     33  C   UNL     1      -6.019  10.601  18.636  0.00  0.00    +0.000 C 
ATOM     34  C   UNL     1      -5.815  12.527  17.048  0.00  0.00    +0.000 C 
ENDBRANCH  31  32
ENDBRANCH  29  31
ENDBRANCH  26  29
ENDBRANCH  10  26
TORSDOF 9
ENDMDL
MODEL 4
REMARK VINA RESULT:      -7.1      1.025      1.304
REMARK  Name = 
REMARK  12 active torsions:
REMARK  status: ('A' for Active; 'I' for Inactive)
REMARK    1  A    between atoms: C_1  and  C_2
REMARK    2  A    between atoms: C_2  and  O_3
REMARK    3  A    between atoms: O_3  and  C_4
REMARK    4  A    between atoms: C_9  and  N_10
REMARK    5  A    between atoms: N_13  and  C_14
REMARK    6  A    between atoms: C_23  and  C_24
REMARK    7  A    between atoms: C_24  and  C_25
REMARK    8  A    between atoms: C_24  and  C_27
REMARK    9  A    between atoms: C_27  and  O_29
REMARK   10  A    between atoms: O_29  and  C_30
REMARK   11  A    between atoms: C_30  and  C_31
REMARK   12  A    between atoms: C_30  and  C_32
REMARK                            x       y       z     vdW  Elec       q    Type
REMARK                         _______ _______ _______ _____ _____    ______ ____
ROOT
ATOM      1  C   UNL     1       2.318   6.641  19.666  0.00  0.00    +0.000 A 
ATOM      2  N   UNL     1       1.979   5.700  20.544  0.00  0.00    +0.000 NA
ATOM      3  C   UNL     1       1.781   4.449  20.018  0.00  0.00    +0.000 A 
ATOM      4  C   UNL     1       2.216   3.215  20.502  0.00  0.00    +0.000 A 
ATOM      5  C   UNL     1       1.946   2.009  19.826  0.00  0.00    +0.000 A 
ATOM      6  C   UNL     1       1.013   2.034  18.804  0.00  0.00    +0.000 A 
ATOM      7  C   UNL     1       0.687   3.271  18.286  0.00  0.00    +0.000 A 
ATOM      8  C   UNL     1       1.469   4.359  18.679  0.00  0.00    +0.000 A 
ATOM      9  N   UNL     1       2.236   5.127  17.886  0.00  0.00    +0.000 NA
ATOM     10  C   UNL     1       2.891   6.130  18.528  0.00  0.00    +0.000 A 
ENDROOT
BRANCH   1  14
ATOM     11  N   UNL     1       0.423  10.336  19.454  0.00  0.00    +0.000 N 
ATOM     12  C   UNL     1       0.666   9.390  18.364  0.00  0.00    +0.000 C 
ATOM     13  C   UNL     1       2.082   8.842  18.560  0.00  0.00    +0.000 C 
ATOM     14  N   UNL     1       2.181   8.024  19.804  0.00  0.00    +0.000 N 
ATOM     15  C   UNL     1       1.572   8.624  21.002  0.00  0.00    +0.000 C 
ATOM     16  C   UNL     1       0.363   9.601  20.749  0.00  0.00    +0.000 C 
BRANCH  11  22
ATOM     17  C   UNL     1      -0.863  12.489  19.694  0.00  0.00    +0.000 A 
ATOM     18  C   UNL     1      -0.882  13.895  19.554  0.00  0.00    +0.000 A 
ATOM     19  C   UNL     1       0.141  14.570  18.907  0.00  0.00    +0.000 A 
ATOM     20  C   UNL     1       1.211  13.844  18.423  0.00  0.00    +0.000 A 
ATOM     21  C   UNL     1       1.275  12.457  18.629  0.00  0.00    +0.000 A 
ATOM     22  C   UNL     1       0.264  11.710  19.277  0.00  0.00    +0.000 A 
BRANCH  17  23
ATOM     23  O   UNL     1      -1.956  11.854  20.242  0.00  0.00    +0.000 OA
BRANCH  23  25
ATOM     24  C   UNL     1      -1.674  11.980  22.599  0.00  0.00    +0.000 C 
ATOM     25  C   UNL     1      -2.530  12.411  21.426  0.00  0.00    +0.000 C 
ENDBRANCH  23  25
ENDBRANCH  17  23
ENDBRANCH  11  22
ENDBRANCH   1  14
BRANCH  10  26
ATOM     26  C   UNL     1       4.395   6.403  18.462  0.00  0.00    +0.000 C 
BRANCH  26  27
ATOM     27  C   UNL     1       5.335   5.426  19.150  0.00  0.00    +0.000 C 
ATOM     28  N   UNL     1       6.114   4.617  19.722  0.00  0.00    +0.000 NA
ENDBRANCH  26  27
BRANCH  26  29
ATOM     29  C   UNL     1       4.902   6.610  17.047  0.00  0.00    +0.000 C 
ATOM     30  O   UNL     1       4.433   7.446  16.280  0.00  0.00    +0.000 OA
BRANCH  29  31
ATOM     31  O   UNL     1       5.847   5.715  16.683  0.00  0.00    +0.000 OA
BRANCH  31  32
ATOM     32  C   UNL     1       5.593   4.888  15.528  0.00  0.00    +0.000 C 
ATOM     33  C   UNL     1       6.894   4.628  14.782  0.00  0.00    +0.000 C 
ATOM     34  C   UNL     1       5.008   3.586  16.060  0.00  0.00    +0.000 C 
ENDBRANCH  31  32
ENDBRANCH  29  31
ENDBRANCH  26  29
ENDBRANCH  10  26
TORSDOF 9
ENDMDL
MODEL 5
REMARK VINA RESULT:      -7.0      1.015      1.414
REMARK  Name = 
REMARK  12 active torsions:
REMARK  status: ('A' for Active; 'I' for Inactive)
REMARK    1  A    between atoms: C_1  and  C_2
REMARK    2  A    between atoms: C_2  and  O_3
REMARK    3  A    between atoms: O_3  and  C_4
REMARK    4  A    between atoms: C_9  and  N_10
REMARK    5  A    between atoms: N_13  and  C_14
REMARK    6  A    between atoms: C_23  and  C_24
REMARK    7  A    between atoms: C_24  and  C_25
REMARK    8  A    between atoms: C_24  and  C_27
REMARK    9  A    between atoms: C_27  and  O_29
REMARK   10  A    between atoms: O_29  and  C_30
REMARK   11  A    between atoms: C_30  and  C_31
REMARK   12  A    between atoms: C_30  and  C_32
REMARK                            x       y       z     vdW  Elec       q    Type
REMARK                         _______ _______ _______ _____ _____    ______ ____
ROOT
ATOM      1  C   UNL     1       2.250   6.488  19.694  0.00  0.00    +0.000 A 
ATOM      2  N   UNL     1       1.831   5.599  20.592  0.00  0.00    +0.000 NA
ATOM      3  C   UNL     1       1.585   4.342  20.104  0.00  0.00    +0.000 A 
ATOM      4  C   UNL     1       1.936   3.106  20.648  0.00  0.00    +0.000 A 
ATOM      5  C   UNL     1       1.626   1.891  20.006  0.00  0.00    +0.000 A 
ATOM      6  C   UNL     1       0.733   1.926  18.950  0.00  0.00    +0.000 A 
ATOM      7  C   UNL     1       0.492   3.158  18.375  0.00  0.00    +0.000 A 
ATOM      8  C   UNL     1       1.316   4.217  18.758  0.00  0.00    +0.000 A 
ATOM      9  N   UNL     1       2.151   4.914  17.967  0.00  0.00    +0.000 NA
ATOM     10  C   UNL     1       2.835   5.905  18.598  0.00  0.00    +0.000 A 
ENDROOT
BRANCH   1  14
ATOM     11  N   UNL     1       0.614  10.274  19.173  0.00  0.00    +0.000 N 
ATOM     12  C   UNL     1       0.915   9.279  18.142  0.00  0.00    +0.000 C 
ATOM     13  C   UNL     1       2.267   8.659  18.508  0.00  0.00    +0.000 C 
ATOM     14  N   UNL     1       2.182   7.880  19.778  0.00  0.00    +0.000 N 
ATOM     15  C   UNL     1       1.484   8.555  20.885  0.00  0.00    +0.000 C 
ATOM     16  C   UNL     1       0.371   9.589  20.474  0.00  0.00    +0.000 C 
BRANCH  11  22
ATOM     17  C   UNL     1      -0.629  12.416  18.710  0.00  0.00    +0.000 A 
ATOM     18  C   UNL     1      -0.586  13.823  18.583  0.00  0.00    +0.000 A 
ATOM     19  C   UNL     1       0.618  14.510  18.565  0.00  0.00    +0.000 A 
ATOM     20  C   UNL     1       1.790  13.795  18.708  0.00  0.00    +0.000 A 
ATOM     21  C   UNL     1       1.750  12.407  18.915  0.00  0.00    +0.000 A 
ATOM     22  C   UNL     1       0.557  11.648  18.940  0.00  0.00    +0.000 A 
BRANCH  17  23
ATOM     23  O   UNL     1      -1.842  11.770  18.607  0.00  0.00    +0.000 OA
BRANCH  23  25
ATOM     24  C   UNL     1      -2.713   9.910  17.411  0.00  0.00    +0.000 C 
ATOM     25  C   UNL     1      -2.272  11.355  17.309  0.00  0.00    +0.000 C 
ENDBRANCH  23  25
ENDBRANCH  17  23
ENDBRANCH  11  22
ENDBRANCH   1  14
BRANCH  10  26
ATOM     26  C   UNL     1       4.353   6.097  18.578  0.00  0.00    +0.000 C 
BRANCH  26  27
ATOM     27  C   UNL     1       5.230   4.950  19.054  0.00  0.00    +0.000 C 
ATOM     28  N   UNL     1       5.956   3.998  19.448  0.00  0.00    +0.000 NA
ENDBRANCH  26  27
BRANCH  26  29
ATOM     29  C   UNL     1       4.880   6.551  17.230  0.00  0.00    +0.000 C 
ATOM     30  O   UNL     1       4.592   5.996  16.173  0.00  0.00    +0.000 OA
BRANCH  29  31
ATOM     31  O   UNL     1       5.777   7.559  17.320  0.00  0.00    +0.000 OA
BRANCH  31  32
ATOM     32  C   UNL     1       7.121   7.238  17.734  0.00  0.00    +0.000 C 
ATOM     33  C   UNL     1       7.709   6.182  16.809  0.00  0.00    +0.000 C 
ATOM     34  C   UNL     1       7.914   8.535  17.642  0.00  0.00    +0.000 C 
ENDBRANCH  31  32
ENDBRANCH  29  31
ENDBRANCH  26  29
ENDBRANCH  10  26
TORSDOF 9
ENDMDL
MODEL 6
REMARK VINA RESULT:      -6.9      1.846      9.184
REMARK  Name = 
REMARK  12 active torsions:
REMARK  status: ('A' for Active; 'I' for Inactive)
REMARK    1  A    between atoms: C_1  and  C_2
REMARK    2  A    between atoms: C_2  and  O_3
REMARK    3  A    between atoms: O_3  and  C_4
REMARK    4  A    between atoms: C_9  and  N_10
REMARK    5  A    between atoms: N_13  and  C_14
REMARK    6  A    between atoms: C_23  and  C_24
REMARK    7  A    between atoms: C_24  and  C_25
REMARK    8  A    between atoms: C_24  and  C_27
REMARK    9  A    between atoms: C_27  and  O_29
REMARK   10  A    between atoms: O_29  and  C_30
REMARK   11  A    between atoms: C_30  and  C_31
REMARK   12  A    between atoms: C_30  and  C_32
REMARK                            x       y       z     vdW  Elec       q    Type
REMARK                         _______ _______ _______ _____ _____    ______ ____
ROOT
ATOM      1  C   UNL     1       0.870  11.014  19.720  0.00  0.00    +0.000 A 
ATOM      2  N   UNL     1       1.789  11.690  20.404  0.00  0.00    +0.000 NA
ATOM      3  C   UNL     1       1.814  13.042  20.179  0.00  0.00    +0.000 A 
ATOM      4  C   UNL     1       1.928  14.082  21.102  0.00  0.00    +0.000 A 
ATOM      5  C   UNL     1       1.916  15.435  20.709  0.00  0.00    +0.000 A 
ATOM      6  C   UNL     1       2.053  15.720  19.362  0.00  0.00    +0.000 A 
ATOM      7  C   UNL     1       1.831  14.682  18.479  0.00  0.00    +0.000 A 
ATOM      8  C   UNL     1       1.286  13.505  18.994  0.00  0.00    +0.000 A 
ATOM      9  N   UNL     1       0.100  12.959  18.674  0.00  0.00    +0.000 NA
ATOM     10  C   UNL     1      -0.184  11.799  19.322  0.00  0.00    +0.000 A 
ENDROOT
BRANCH   1  14
ATOM     11  N   UNL     1       2.486   7.292  18.817  0.00  0.00    +0.000 N 
ATOM     12  C   UNL     1       2.669   8.548  18.089  0.00  0.00    +0.000 C 
ATOM     13  C   UNL     1       1.304   9.240  18.050  0.00  0.00    +0.000 C 
ATOM     14  N   UNL     1       0.864   9.651  19.416  0.00  0.00    +0.000 N 
ATOM     15  C   UNL     1       1.016   8.626  20.461  0.00  0.00    +0.000 C 
ATOM     16  C   UNL     1       2.175   7.583  20.245  0.00  0.00    +0.000 C 
BRANCH  11  22
ATOM     17  C   UNL     1       3.804   5.448  17.716  0.00  0.00    +0.000 A 
ATOM     18  C   UNL     1       3.836   4.118  17.240  0.00  0.00    +0.000 A 
ATOM     19  C   UNL     1       2.683   3.353  17.156  0.00  0.00    +0.000 A 
ATOM     20  C   UNL     1       1.491   3.905  17.580  0.00  0.00    +0.000 A 
ATOM     21  C   UNL     1       1.465   5.197  18.128  0.00  0.00    +0.000 A 
ATOM     22  C   UNL     1       2.604   6.028  18.239  0.00  0.00    +0.000 A 
BRANCH  17  23
ATOM     23  O   UNL     1       4.955   6.204  17.673  0.00  0.00    +0.000 OA
BRANCH  23  25
ATOM     24  C   UNL     1       7.111   5.883  16.724  0.00  0.00    +0.000 C 
ATOM     25  C   UNL     1       5.672   6.262  16.439  0.00  0.00    +0.000 C 
ENDBRANCH  23  25
ENDBRANCH  17  23
ENDBRANCH  11  22
ENDBRANCH   1  14
BRANCH  10  26
ATOM     26  C   UNL     1      -1.459  11.507  20.117  0.00  0.00    +0.000 C 
BRANCH  26  27
ATOM     27  C   UNL     1      -1.463  11.812  21.607  0.00  0.00    +0.000 C 
ATOM     28  N   UNL     1      -1.466  12.064  22.842  0.00  0.00    +0.000 NA
ENDBRANCH  26  27
BRANCH  26  29
ATOM     29  C   UNL     1      -2.697  12.143  19.514  0.00  0.00    +0.000 C 
ATOM     30  O   UNL     1      -3.524  12.765  20.174  0.00  0.00    +0.000 OA
BRANCH  29  31
ATOM     31  O   UNL     1      -2.851  11.866  18.200  0.00  0.00    +0.000 OA
BRANCH  31  32
ATOM     32  C   UNL     1      -3.884  10.934  17.817  0.00  0.00    +0.000 C 
ATOM     33  C   UNL     1      -4.758  11.547  16.733  0.00  0.00    +0.000 C 
ATOM     34  C   UNL     1      -3.165   9.697  17.293  0.00  0.00    +0.000 C 
ENDBRANCH  31  32
ENDBRANCH  29  31
ENDBRANCH  26  29
ENDBRANCH  10  26
TORSDOF 9
ENDMDL
MODEL 7
REMARK VINA RESULT:      -6.8      1.177      2.031
REMARK  Name = 
REMARK  12 active torsions:
REMARK  status: ('A' for Active; 'I' for Inactive)
REMARK    1  A    between atoms: C_1  and  C_2
REMARK    2  A    between atoms: C_2  and  O_3
REMARK    3  A    between atoms: O_3  and  C_4
REMARK    4  A    between atoms: C_9  and  N_10
REMARK    5  A    between atoms: N_13  and  C_14
REMARK    6  A    between atoms: C_23  and  C_24
REMARK    7  A    between atoms: C_24  and  C_25
REMARK    8  A    between atoms: C_24  and  C_27
REMARK    9  A    between atoms: C_27  and  O_29
REMARK   10  A    between atoms: O_29  and  C_30
REMARK   11  A    between atoms: C_30  and  C_31
REMARK   12  A    between atoms: C_30  and  C_32
REMARK                            x       y       z     vdW  Elec       q    Type
REMARK                         _______ _______ _______ _____ _____    ______ ____
ROOT
ATOM      1  C   UNL     1       2.246   6.543  19.767  0.00  0.00    +0.000 A 
ATOM      2  N   UNL     1       2.080   5.553  20.641  0.00  0.00    +0.000 NA
ATOM      3  C   UNL     1       1.905   4.308  20.093  0.00  0.00    +0.000 A 
ATOM      4  C   UNL     1       2.478   3.094  20.474  0.00  0.00    +0.000 A 
ATOM      5  C   UNL     1       2.212   1.893  19.788  0.00  0.00    +0.000 A 
ATOM      6  C   UNL     1       1.164   1.882  18.884  0.00  0.00    +0.000 A 
ATOM      7  C   UNL     1       0.696   3.108  18.456  0.00  0.00    +0.000 A 
ATOM      8  C   UNL     1       1.443   4.236  18.797  0.00  0.00    +0.000 A 
ATOM      9  N   UNL     1       2.056   5.082  17.950  0.00  0.00    +0.000 NA
ATOM     10  C   UNL     1       2.713   6.109  18.551  0.00  0.00    +0.000 A 
ENDROOT
BRANCH   1  14
ATOM     11  N   UNL     1       0.097  10.099  19.906  0.00  0.00    +0.000 N 
ATOM     12  C   UNL     1       0.282   9.208  18.759  0.00  0.00    +0.000 C 
ATOM     13  C   UNL     1       1.744   8.756  18.781  0.00  0.00    +0.000 C 
ATOM     14  N   UNL     1       2.033   7.907  19.974  0.00  0.00    +0.000 N 
ATOM     15  C   UNL     1       1.519   8.423  21.253  0.00  0.00    +0.000 C 
ATOM     16  C   UNL     1       0.228   9.320  21.170  0.00  0.00    +0.000 C 
BRANCH  11  22
ATOM     17  C   UNL     1       0.750  12.474  19.380  0.00  0.00    +0.000 A 
ATOM     18  C   UNL     1       0.347  13.819  19.214  0.00  0.00    +0.000 A 
ATOM     19  C   UNL     1      -0.929  14.238  19.557  0.00  0.00    +0.000 A 
ATOM     20  C   UNL     1      -1.824  13.306  20.040  0.00  0.00    +0.000 A 
ATOM     21  C   UNL     1      -1.457  11.954  20.132  0.00  0.00    +0.000 A 
ATOM     22  C   UNL     1      -0.172  11.463  19.802  0.00  0.00    +0.000 A 
BRANCH  17  23
ATOM     23  O   UNL     1       2.061  12.131  19.133  0.00  0.00    +0.000 OA
BRANCH  23  25
ATOM     24  C   UNL     1       3.573  13.822  18.422  0.00  0.00    +0.000 C 
ATOM     25  C   UNL     1       2.689  12.678  17.972  0.00  0.00    +0.000 C 
ENDBRANCH  23  25
ENDBRANCH  17  23
ENDBRANCH  11  22
ENDBRANCH   1  14
BRANCH  10  26
ATOM     26  C   UNL     1       4.177   6.492  18.320  0.00  0.00    +0.000 C 
BRANCH  26  27
ATOM     27  C   UNL     1       5.249   5.722  19.074  0.00  0.00    +0.000 C 
ATOM     28  N   UNL     1       6.138   5.083  19.699  0.00  0.00    +0.000 NA
ENDBRANCH  26  27
BRANCH  26  29
ATOM     29  C   UNL     1       4.565   6.508  16.854  0.00  0.00    +0.000 C 
ATOM     30  O   UNL     1       4.492   7.511  16.149  0.00  0.00    +0.000 OA
BRANCH  29  31
ATOM     31  O   UNL     1       4.899   5.287  16.378  0.00  0.00    +0.000 OA
BRANCH  31  32
ATOM     32  C   UNL     1       6.034   5.189  15.492  0.00  0.00    +0.000 C 
ATOM     33  C   UNL     1       7.224   4.608  16.241  0.00  0.00    +0.000 C 
ATOM     34  C   UNL     1       5.608   4.266  14.358  0.00  0.00    +0.000 C 
ENDBRANCH  31  32
ENDBRANCH  29  31
ENDBRANCH  26  29
ENDBRANCH  10  26
TORSDOF 9
ENDMDL
MODEL 8
REMARK VINA RESULT:      -6.8      2.112      3.934
REMARK  Name = 
REMARK  12 active torsions:
REMARK  status: ('A' for Active; 'I' for Inactive)
REMARK    1  A    between atoms: C_1  and  C_2
REMARK    2  A    between atoms: C_2  and  O_3
REMARK    3  A    between atoms: O_3  and  C_4
REMARK    4  A    between atoms: C_9  and  N_10
REMARK    5  A    between atoms: N_13  and  C_14
REMARK    6  A    between atoms: C_23  and  C_24
REMARK    7  A    between atoms: C_24  and  C_25
REMARK    8  A    between atoms: C_24  and  C_27
REMARK    9  A    between atoms: C_27  and  O_29
REMARK   10  A    between atoms: O_29  and  C_30
REMARK   11  A    between atoms: C_30  and  C_31
REMARK   12  A    between atoms: C_30  and  C_32
REMARK                            x       y       z     vdW  Elec       q    Type
REMARK                         _______ _______ _______ _____ _____    ______ ____
ROOT
ATOM      1  C   UNL     1       3.361   7.144  18.481  0.00  0.00    +0.000 A 
ATOM      2  N   UNL     1       3.876   7.055  17.257  0.00  0.00    +0.000 NA
ATOM      3  C   UNL     1       4.881   6.136  17.107  0.00  0.00    +0.000 A 
ATOM      4  C   UNL     1       5.077   5.211  16.080  0.00  0.00    +0.000 A 
ATOM      5  C   UNL     1       6.160   4.309  16.082  0.00  0.00    +0.000 A 
ATOM      6  C   UNL     1       7.182   4.526  16.990  0.00  0.00    +0.000 A 
ATOM      7  C   UNL     1       6.909   5.370  18.048  0.00  0.00    +0.000 A 
ATOM      8  C   UNL     1       5.582   5.761  18.232  0.00  0.00    +0.000 A 
ATOM      9  N   UNL     1       4.805   5.494  19.296  0.00  0.00    +0.000 NA
ATOM     10  C   UNL     1       3.547   6.003  19.223  0.00  0.00    +0.000 A 
ENDROOT
BRANCH   1  14
ATOM     11  N   UNL     1       0.084   9.585  19.244  0.00  0.00    +0.000 N 
ATOM     12  C   UNL     1       0.665   9.246  17.944  0.00  0.00    +0.000 C 
ATOM     13  C   UNL     1       2.186   9.290  18.114  0.00  0.00    +0.000 C 
ATOM     14  N   UNL     1       2.661   8.217  19.036  0.00  0.00    +0.000 N 
ATOM     15  C   UNL     1       1.896   8.077  20.286  0.00  0.00    +0.000 C 
ATOM     16  C   UNL     1       0.382   8.501  20.223  0.00  0.00    +0.000 C 
BRANCH  11  22
ATOM     17  C   UNL     1      -1.876  11.124  18.871  0.00  0.00    +0.000 A 
ATOM     18  C   UNL     1      -2.585  12.279  19.272  0.00  0.00    +0.000 A 
ATOM     19  C   UNL     1      -2.065  13.158  20.209  0.00  0.00    +0.000 A 
ATOM     20  C   UNL     1      -0.842  12.869  20.779  0.00  0.00    +0.000 A 
ATOM     21  C   UNL     1      -0.168  11.682  20.446  0.00  0.00    +0.000 A 
ATOM     22  C   UNL     1      -0.644  10.748  19.497  0.00  0.00    +0.000 A 
BRANCH  17  23
ATOM     23  O   UNL     1      -2.382  10.344  17.855  0.00  0.00    +0.000 OA
BRANCH  23  25
ATOM     24  C   UNL     1      -2.979   9.854  15.606  0.00  0.00    +0.000 C 
ATOM     25  C   UNL     1      -2.517  10.936  16.561  0.00  0.00    +0.000 C 
ENDBRANCH  23  25
ENDBRANCH  17  23
ENDBRANCH  11  22
ENDBRANCH   1  14
BRANCH  10  26
ATOM     26  C   UNL     1       2.249   5.213  19.408  0.00  0.00    +0.000 C 
BRANCH  26  27
ATOM     27  C   UNL     1       1.582   4.627  18.175  0.00  0.00    +0.000 C 
ATOM     28  N   UNL     1       1.028   4.141  17.152  0.00  0.00    +0.000 NA
ENDBRANCH  26  27
BRANCH  26  29
ATOM     29  C   UNL     1       2.367   4.105  20.438  0.00  0.00    +0.000 C 
ATOM     30  O   UNL     1       2.415   4.313  21.647  0.00  0.00    +0.000 OA
BRANCH  29  31
ATOM     31  O   UNL     1       2.519   2.880  19.888  0.00  0.00    +0.000 OA
BRANCH  31  32
ATOM     32  C   UNL     1       3.828   2.506  19.410  0.00  0.00    +0.000 C 
ATOM     33  C   UNL     1       4.612   1.830  20.527  0.00  0.00    +0.000 C 
ATOM     34  C   UNL     1       3.598   1.541  18.254  0.00  0.00    +0.000 C 
ENDBRANCH  31  32
ENDBRANCH  29  31
ENDBRANCH  26  29
ENDBRANCH  10  26
TORSDOF 9
ENDMDL
MODEL 9
REMARK VINA RESULT:      -6.7      2.215      8.868
REMARK  Name = 
REMARK  12 active torsions:
REMARK  status: ('A' for Active; 'I' for Inactive)
REMARK    1  A    between atoms: C_1  and  C_2
REMARK    2  A    between atoms: C_2  and  O_3
REMARK    3  A    between atoms: O_3  and  C_4
REMARK    4  A    between atoms: C_9  and  N_10
REMARK    5  A    between atoms: N_13  and  C_14
REMARK    6  A    between atoms: C_23  and  C_24
REMARK    7  A    between atoms: C_24  and  C_25
REMARK    8  A    between atoms: C_24  and  C_27
REMARK    9  A    between atoms: C_27  and  O_29
REMARK   10  A    between atoms: O_29  and  C_30
REMARK   11  A    between atoms: C_30  and  C_31
REMARK   12  A    between atoms: C_30  and  C_32
REMARK                            x       y       z     vdW  Elec       q    Type
REMARK                         _______ _______ _______ _____ _____    ______ ____
ROOT
ATOM      1  C   UNL     1       0.833  10.882  19.670  0.00  0.00    +0.000 A 
ATOM      2  N   UNL     1       1.606  11.566  20.509  0.00  0.00    +0.000 NA
ATOM      3  C   UNL     1       1.677  12.915  20.276  0.00  0.00    +0.000 A 
ATOM      4  C   UNL     1       1.615  13.967  21.191  0.00  0.00    +0.000 A 
ATOM      5  C   UNL     1       1.681  15.315  20.786  0.00  0.00    +0.000 A 
ATOM      6  C   UNL     1       2.073  15.583  19.486  0.00  0.00    +0.000 A 
ATOM      7  C   UNL     1       2.021  14.534  18.590  0.00  0.00    +0.000 A 
ATOM      8  C   UNL     1       1.386  13.363  19.006  0.00  0.00    +0.000 A 
ATOM      9  N   UNL     1       0.281  12.814  18.473  0.00  0.00    +0.000 NA
ATOM     10  C   UNL     1      -0.124  11.661  19.069  0.00  0.00    +0.000 A 
ENDROOT
BRANCH   1  14
ATOM     11  N   UNL     1       2.601   7.192  18.930  0.00  0.00    +0.000 N 
ATOM     12  C   UNL     1       2.797   8.443  18.195  0.00  0.00    +0.000 C 
ATOM     13  C   UNL     1       1.419   9.097  18.059  0.00  0.00    +0.000 C 
ATOM     14  N   UNL     1       0.882   9.515  19.387  0.00  0.00    +0.000 N 
ATOM     15  C   UNL     1       0.993   8.509  20.456  0.00  0.00    +0.000 C 
ATOM     16  C   UNL     1       2.190   7.495  20.330  0.00  0.00    +0.000 C 
BRANCH  11  22
ATOM     17  C   UNL     1       2.048   4.744  18.713  0.00  0.00    +0.000 A 
ATOM     18  C   UNL     1       2.251   3.527  18.023  0.00  0.00    +0.000 A 
ATOM     19  C   UNL     1       3.251   3.393  17.073  0.00  0.00    +0.000 A 
ATOM     20  C   UNL     1       4.036   4.489  16.779  0.00  0.00    +0.000 A 
ATOM     21  C   UNL     1       3.788   5.723  17.401  0.00  0.00    +0.000 A 
ATOM     22  C   UNL     1       2.788   5.924  18.380  0.00  0.00    +0.000 A 
BRANCH  17  23
ATOM     23  O   UNL     1       1.119   4.793  19.729  0.00  0.00    +0.000 OA
BRANCH  23  25
ATOM     24  C   UNL     1       2.152   3.694  21.566  0.00  0.00    +0.000 C 
ATOM     25  C   UNL     1       1.001   3.655  20.583  0.00  0.00    +0.000 C 
ENDBRANCH  23  25
ENDBRANCH  17  23
ENDBRANCH  11  22
ENDBRANCH   1  14
BRANCH  10  26
ATOM     26  C   UNL     1      -1.528  11.379  19.610  0.00  0.00    +0.000 C 
BRANCH  26  27
ATOM     27  C   UNL     1      -1.883  11.899  20.994  0.00  0.00    +0.000 C 
ATOM     28  N   UNL     1      -2.177  12.329  22.142  0.00  0.00    +0.000 NA
ENDBRANCH  26  27
BRANCH  26  29
ATOM     29  C   UNL     1      -2.631  11.808  18.660  0.00  0.00    +0.000 C 
ATOM     30  O   UNL     1      -3.690  12.299  19.038  0.00  0.00    +0.000 OA
BRANCH  29  31
ATOM     31  O   UNL     1      -2.372  11.499  17.370  0.00  0.00    +0.000 OA
BRANCH  31  32
ATOM     32  C   UNL     1      -3.364  10.748  16.638  0.00  0.00    +0.000 C 
ATOM     33  C   UNL     1      -2.920  10.580  15.192  0.00  0.00    +0.000 C 
ATOM     34  C   UNL     1      -3.467   9.396  17.331  0.00  0.00    +0.000 C 
ENDBRANCH  31  32
ENDBRANCH  29  31
ENDBRANCH  26  29
ENDBRANCH  10  26
TORSDOF 9
ENDMDL
