MODEL 1
REMARK VINA RESULT:      -8.3      0.000      0.000
REMARK  Name = 
REMARK  5 active torsions:
REMARK  status: ('A' for Active; 'I' for Inactive)
REMARK    1  A    between atoms: C_1  and  O_2
REMARK    2  A    between atoms: O_2  and  C_3
REMARK    3  A    between atoms: C_8  and  C_9
REMARK    4  A    between atoms: C_11  and  C_12
REMARK    5  A    between atoms: C_21  and  C_22
REMARK                            x       y       z     vdW  Elec       q    Type
REMARK                         _______ _______ _______ _____ _____    ______ ____
ROOT
ATOM      1  C   UNL     1      -0.118  10.509  18.976  0.00  0.00    +0.000 A 
ATOM      2  N   UNL     1      -1.446  10.317  18.667  0.00  0.00    +0.000 NA
ATOM      3  C   UNL     1      -2.017  11.506  18.661  0.00  0.00    +0.000 A 
ATOM      4  N   UNL     1      -1.056  12.459  18.906  0.00  0.00    +0.000 N 
ATOM      5  C   UNL     1       0.177  11.862  19.065  0.00  0.00    +0.000 A 
ATOM      6  H   UNL     1      -1.227  13.454  18.900  0.00  0.00    +0.000 HD
ENDROOT
BRANCH   1  12
ATOM      7  C   UNL     1       4.278   5.737  18.569  0.00  0.00    +0.000 A 
ATOM      8  C   UNL     1       4.227   6.426  17.359  0.00  0.00    +0.000 A 
ATOM      9  C   UNL     1       3.360   7.512  17.204  0.00  0.00    +0.000 A 
ATOM     10  C   UNL     1       2.524   7.921  18.254  0.00  0.00    +0.000 A 
ATOM     11  C   UNL     1       1.633   8.999  18.109  0.00  0.00    +0.000 A 
ATOM     12  C   UNL     1       0.789   9.383  19.157  0.00  0.00    +0.000 A 
ATOM     13  C   UNL     1       0.821   8.655  20.353  0.00  0.00    +0.000 A 
ATOM     14  C   UNL     1       1.727   7.607  20.526  0.00  0.00    +0.000 A 
ATOM     15  C   UNL     1       2.579   7.225  19.482  0.00  0.00    +0.000 A 
ATOM     16  C   UNL     1       3.465   6.148  19.627  0.00  0.00    +0.000 A 
BRANCH   7  18
ATOM     17  C   UNL     1       4.421   3.531  19.434  0.00  0.00    +0.000 C 
ATOM     18  O   UNL     1       5.066   4.652  18.844  0.00  0.00    +0.000 OA
ENDBRANCH   7  18
ENDBRANCH   1  12
BRANCH   3  19
ATOM     19  C   UNL     1      -3.449  11.798  18.446  0.00  0.00    +0.000 A 
ATOM     20  C   UNL     1      -4.259  12.286  19.501  0.00  0.00    +0.000 A 
ATOM     21 CL   UNL     1      -3.649  12.672  21.078  0.00  0.00    +0.000 Cl
ATOM     22  C   UNL     1      -5.624  12.546  19.311  0.00  0.00    +0.000 A 
ATOM     23  C   UNL     1      -6.222  12.334  18.076  0.00  0.00    +0.000 A 
ATOM     24  C   UNL     1      -5.452  11.868  17.020  0.00  0.00    +0.000 A 
ATOM     25  C   UNL     1      -4.084  11.598  17.198  0.00  0.00    +0.000 A 
ATOM     26 CL   UNL     1      -3.260  11.006  15.790  0.00  0.00    +0.000 Cl
ENDBRANCH   3  19
BRANCH   5  27
ATOM     27  C   UNL     1       1.411  12.629  19.258  0.00  0.00    +0.000 A 
ATOM     28  C   UNL     1       2.197  13.015  18.169  0.00  0.00    +0.000 A 
ATOM     29  C   UNL     1       3.332  13.778  18.405  0.00  0.00    +0.000 A 
ATOM     30  N   UNL     1       3.724  14.185  19.629  0.00  0.00    +0.000 NA
ATOM     31  C   UNL     1       2.960  13.796  20.668  0.00  0.00    +0.000 A 
ATOM     32  C   UNL     1       1.827  13.011  20.536  0.00  0.00    +0.000 A 
ENDBRANCH   5  27
TORSDOF 4
ENDMDL
MODEL 2
REMARK VINA RESULT:      -8.2      0.422      1.903
REMARK  Name = 
REMARK  5 active torsions:
REMARK  status: ('A' for Active; 'I' for Inactive)
REMARK    1  A    between atoms: C_1  and  O_2
REMARK    2  A    between atoms: O_2  and  C_3
REMARK    3  A    between atoms: C_8  and  C_9
REMARK    4  A    between atoms: C_11  and  C_12
REMARK    5  A    between atoms: C_21  and  C_22
REMARK                            x       y       z     vdW  Elec       q    Type
REMARK                         _______ _______ _______ _____ _____    ______ ____
ROOT
ATOM      1  C   UNL     1      -0.458  10.671  19.118  0.00  0.00    +0.000 A 
ATOM      2  N   UNL     1      -1.787  10.472  18.819  0.00  0.00    +0.000 NA
ATOM      3  C   UNL     1      -2.356  11.661  18.772  0.00  0.00    +0.000 A 
ATOM      4  N   UNL     1      -1.392  12.620  18.981  0.00  0.00    +0.000 N 
ATOM      5  C   UNL     1      -0.160  12.026  19.159  0.00  0.00    +0.000 A 
ATOM      6  H   UNL     1      -1.562  13.614  18.939  0.00  0.00    +0.000 HD
ENDROOT
BRANCH   1  12
ATOM      7  C   UNL     1       3.950   5.899  18.884  0.00  0.00    +0.000 A 
ATOM      8  C   UNL     1       3.919   6.563  17.660  0.00  0.00    +0.000 A 
ATOM      9  C   UNL     1       3.054   7.645  17.469  0.00  0.00    +0.000 A 
ATOM     10  C   UNL     1       2.200   8.074  18.495  0.00  0.00    +0.000 A 
ATOM     11  C   UNL     1       1.310   9.147  18.313  0.00  0.00    +0.000 A 
ATOM     12  C   UNL     1       0.447   9.551  19.338  0.00  0.00    +0.000 A 
ATOM     13  C   UNL     1       0.459   8.846  20.548  0.00  0.00    +0.000 A 
ATOM     14  C   UNL     1       1.363   7.804  20.758  0.00  0.00    +0.000 A 
ATOM     15  C   UNL     1       2.233   7.403  19.737  0.00  0.00    +0.000 A 
ATOM     16  C   UNL     1       3.118   6.330  19.920  0.00  0.00    +0.000 A 
BRANCH   7  18
ATOM     17  C   UNL     1       4.360   3.576  18.621  0.00  0.00    +0.000 C 
ATOM     18  O   UNL     1       4.735   4.821  19.196  0.00  0.00    +0.000 OA
ENDBRANCH   7  18
ENDBRANCH   1  12
BRANCH   3  19
ATOM     19  C   UNL     1      -3.788  11.947  18.550  0.00  0.00    +0.000 A 
ATOM     20  C   UNL     1      -4.379  11.758  17.276  0.00  0.00    +0.000 A 
ATOM     21 CL   UNL     1      -3.531  11.099  15.914  0.00  0.00    +0.000 Cl
ATOM     22  C   UNL     1      -5.733  12.047  17.051  0.00  0.00    +0.000 A 
ATOM     23  C   UNL     1      -6.536  12.525  18.077  0.00  0.00    +0.000 A 
ATOM     24  C   UNL     1      -5.989  12.709  19.339  0.00  0.00    +0.000 A 
ATOM     25  C   UNL     1      -4.633  12.429  19.577  0.00  0.00    +0.000 A 
ATOM     26 CL   UNL     1      -4.092  12.725  21.199  0.00  0.00    +0.000 Cl
ENDBRANCH   3  19
BRANCH   5  27
ATOM     27  C   UNL     1       1.076  12.797  19.321  0.00  0.00    +0.000 A 
ATOM     28  C   UNL     1       1.580  13.092  20.589  0.00  0.00    +0.000 A 
ATOM     29  C   UNL     1       2.778  13.787  20.684  0.00  0.00    +0.000 A 
ATOM     30  N   UNL     1       3.501  14.190  19.620  0.00  0.00    +0.000 NA
ATOM     31  C   UNL     1       2.995  13.905  18.404  0.00  0.00    +0.000 A 
ATOM     32  C   UNL     1       1.795  13.242  18.208  0.00  0.00    +0.000 A 
ENDBRANCH   5  27
TORSDOF 4
ENDMDL
MODEL 3
REMARK VINA RESULT:      -8.0      2.558      4.911
REMARK  Name = 
REMARK  5 active torsions:
REMARK  status: ('A' for Active; 'I' for Inactive)
REMARK    1  A    between atoms: C_1  and  O_2
REMARK    2  A    between atoms: O_2  and  C_3
REMARK    3  A    between atoms: C_8  and  C_9
REMARK    4  A    between atoms: C_11  and  C_12
REMARK    5  A    between atoms: C_21  and  C_22
REMARK                            x       y       z     vdW  Elec       q    Type
REMARK                         _______ _______ _______ _____ _____    ______ ____
ROOT
ATOM      1  C   UNL     1      -0.105  10.959  19.924  0.00  0.00    +0.000 A 
ATOM      2  N   UNL     1       0.181  11.648  21.082  0.00  0.00    +0.000 NA
ATOM      3  C   UNL     1      -0.724  12.601  21.198  0.00  0.00    +0.000 A 
ATOM      4  N   UNL     1      -1.618  12.490  20.158  0.00  0.00    +0.000 N 
ATOM      5  C   UNL     1      -1.280  11.424  19.352  0.00  0.00    +0.000 A 
ATOM      6  H   UNL     1      -2.437  13.070  20.049  0.00  0.00    +0.000 HD
ENDROOT
BRANCH   1  12
ATOM      7  C   UNL     1       3.431   5.605  18.879  0.00  0.00    +0.000 A 
ATOM      8  C   UNL     1       2.775   5.497  20.104  0.00  0.00    +0.000 A 
ATOM      9  C   UNL     1       1.936   6.525  20.546  0.00  0.00    +0.000 A 
ATOM     10  C   UNL     1       1.748   7.681  19.775  0.00  0.00    +0.000 A 
ATOM     11  C   UNL     1       0.924   8.733  20.213  0.00  0.00    +0.000 A 
ATOM     12  C   UNL     1       0.761   9.891  19.444  0.00  0.00    +0.000 A 
ATOM     13  C   UNL     1       1.461  10.003  18.236  0.00  0.00    +0.000 A 
ATOM     14  C   UNL     1       2.251   8.953  17.769  0.00  0.00    +0.000 A 
ATOM     15  C   UNL     1       2.410   7.789  18.532  0.00  0.00    +0.000 A 
ATOM     16  C   UNL     1       3.234   6.743  18.094  0.00  0.00    +0.000 A 
BRANCH   7  18
ATOM     17  C   UNL     1       4.319   3.406  18.966  0.00  0.00    +0.000 C 
ATOM     18  O   UNL     1       4.287   4.682  18.341  0.00  0.00    +0.000 OA
ENDBRANCH   7  18
ENDBRANCH   1  12
BRANCH   3  19
ATOM     19  C   UNL     1      -0.786  13.637  22.248  0.00  0.00    +0.000 A 
ATOM     20  C   UNL     1      -1.717  13.543  23.312  0.00  0.00    +0.000 A 
ATOM     21 CL   UNL     1      -2.783  12.192  23.534  0.00  0.00    +0.000 Cl
ATOM     22  C   UNL     1      -1.797  14.533  24.302  0.00  0.00    +0.000 A 
ATOM     23  C   UNL     1      -0.957  15.637  24.269  0.00  0.00    +0.000 A 
ATOM     24  C   UNL     1      -0.026  15.753  23.248  0.00  0.00    +0.000 A 
ATOM     25  C   UNL     1       0.061  14.771  22.246  0.00  0.00    +0.000 A 
ATOM     26 CL   UNL     1       1.263  15.063  21.029  0.00  0.00    +0.000 Cl
ENDBRANCH   3  19
BRANCH   5  27
ATOM     27  C   UNL     1      -2.095  11.006  18.207  0.00  0.00    +0.000 A 
ATOM     28  C   UNL     1      -3.356  11.561  17.978  0.00  0.00    +0.000 A 
ATOM     29  C   UNL     1      -4.066  11.161  16.855  0.00  0.00    +0.000 A 
ATOM     30  N   UNL     1      -3.608  10.269  15.954  0.00  0.00    +0.000 NA
ATOM     31  C   UNL     1      -2.394   9.736  16.195  0.00  0.00    +0.000 A 
ATOM     32  C   UNL     1      -1.624  10.051  17.302  0.00  0.00    +0.000 A 
ENDBRANCH   5  27
TORSDOF 4
ENDMDL
MODEL 4
REMARK VINA RESULT:      -7.9      2.599      5.010
REMARK  Name = 
REMARK  5 active torsions:
REMARK  status: ('A' for Active; 'I' for Inactive)
REMARK    1  A    between atoms: C_1  and  O_2
REMARK    2  A    between atoms: O_2  and  C_3
REMARK    3  A    between atoms: C_8  and  C_9
REMARK    4  A    between atoms: C_11  and  C_12
REMARK    5  A    between atoms: C_21  and  C_22
REMARK                            x       y       z     vdW  Elec       q    Type
REMARK                         _______ _______ _______ _____ _____    ______ ____
ROOT
ATOM      1  C   UNL     1      -0.172  10.959  19.927  0.00  0.00    +0.000 A 
ATOM      2  N   UNL     1       0.095  11.638  21.095  0.00  0.00    +0.000 NA
ATOM      3  C   UNL     1      -0.828  12.572  21.221  0.00  0.00    +0.000 A 
ATOM      4  N   UNL     1      -1.715  12.459  20.175  0.00  0.00    +0.000 N 
ATOM      5  C   UNL     1      -1.354  11.411  19.355  0.00  0.00    +0.000 A 
ATOM      6  H   UNL     1      -2.545  13.025  20.071  0.00  0.00    +0.000 HD
ENDROOT
BRANCH   1  12
ATOM      7  C   UNL     1       3.461   5.685  18.819  0.00  0.00    +0.000 A 
ATOM      8  C   UNL     1       2.797   5.544  20.036  0.00  0.00    +0.000 A 
ATOM      9  C   UNL     1       1.938   6.550  20.488  0.00  0.00    +0.000 A 
ATOM     10  C   UNL     1       1.736   7.717  19.736  0.00  0.00    +0.000 A 
ATOM     11  C   UNL     1       0.891   8.746  20.185  0.00  0.00    +0.000 A 
ATOM     12  C   UNL     1       0.715   9.915  19.435  0.00  0.00    +0.000 A 
ATOM     13  C   UNL     1       1.423  10.060  18.236  0.00  0.00    +0.000 A 
ATOM     14  C   UNL     1       2.235   9.032  17.757  0.00  0.00    +0.000 A 
ATOM     15  C   UNL     1       2.407   7.858  18.501  0.00  0.00    +0.000 A 
ATOM     16  C   UNL     1       3.252   6.833  18.053  0.00  0.00    +0.000 A 
BRANCH   7  18
ATOM     17  C   UNL     1       3.787   3.828  17.378  0.00  0.00    +0.000 C 
ATOM     18  O   UNL     1       4.337   4.786  18.272  0.00  0.00    +0.000 OA
ENDBRANCH   7  18
ENDBRANCH   1  12
BRANCH   3  19
ATOM     19  C   UNL     1      -0.914  13.592  22.285  0.00  0.00    +0.000 A 
ATOM     20  C   UNL     1      -0.066  14.727  22.277  0.00  0.00    +0.000 A 
ATOM     21 CL   UNL     1       1.059  15.073  21.002  0.00  0.00    +0.000 Cl
ATOM     22  C   UNL     1      -0.127  15.690  23.295  0.00  0.00    +0.000 A 
ATOM     23  C   UNL     1      -1.028  15.558  24.343  0.00  0.00    +0.000 A 
ATOM     24  C   UNL     1      -1.879  14.464  24.373  0.00  0.00    +0.000 A 
ATOM     25  C   UNL     1      -1.826  13.489  23.362  0.00  0.00    +0.000 A 
ATOM     26 CL   UNL     1      -2.942  12.173  23.547  0.00  0.00    +0.000 Cl
ENDBRANCH   3  19
BRANCH   5  27
ATOM     27  C   UNL     1      -2.156  10.994  18.201  0.00  0.00    +0.000 A 
ATOM     28  C   UNL     1      -3.420  11.539  17.967  0.00  0.00    +0.000 A 
ATOM     29  C   UNL     1      -4.117  11.141  16.836  0.00  0.00    +0.000 A 
ATOM     30  N   UNL     1      -3.644  10.260  15.931  0.00  0.00    +0.000 NA
ATOM     31  C   UNL     1      -2.427   9.737  16.177  0.00  0.00    +0.000 A 
ATOM     32  C   UNL     1      -1.669  10.051  17.293  0.00  0.00    +0.000 A 
ENDBRANCH   5  27
TORSDOF 4
ENDMDL
MODEL 5
REMARK VINA RESULT:      -7.9      0.575      1.390
REMARK  Name = 
REMARK  5 active torsions:
REMARK  status: ('A' for Active; 'I' for Inactive)
REMARK    1  A    between atoms: C_1  and  O_2
REMARK    2  A    between atoms: O_2  and  C_3
REMARK    3  A    between atoms: C_8  and  C_9
REMARK    4  A    between atoms: C_11  and  C_12
REMARK    5  A    between atoms: C_21  and  C_22
REMARK                            x       y       z     vdW  Elec       q    Type
REMARK                         _______ _______ _______ _____ _____    ______ ____
ROOT
ATOM      1  C   UNL     1       0.040  10.590  18.686  0.00  0.00    +0.000 A 
ATOM      2  N   UNL     1      -1.297  10.390  18.426  0.00  0.00    +0.000 NA
ATOM      3  C   UNL     1      -1.908  11.542  18.624  0.00  0.00    +0.000 A 
ATOM      4  N   UNL     1      -0.966  12.490  18.953  0.00  0.00    +0.000 N 
ATOM      5  C   UNL     1       0.293  11.929  18.956  0.00  0.00    +0.000 A 
ATOM      6  H   UNL     1      -1.171  13.467  19.101  0.00  0.00    +0.000 HD
ENDROOT
BRANCH   1  12
ATOM      7  C   UNL     1       3.665   5.269  19.582  0.00  0.00    +0.000 A 
ATOM      8  C   UNL     1       2.689   5.339  20.574  0.00  0.00    +0.000 A 
ATOM      9  C   UNL     1       1.772   6.395  20.585  0.00  0.00    +0.000 A 
ATOM     10  C   UNL     1       1.822   7.402  19.610  0.00  0.00    +0.000 A 
ATOM     11  C   UNL     1       0.920   8.480  19.618  0.00  0.00    +0.000 A 
ATOM     12  C   UNL     1       0.994   9.490  18.652  0.00  0.00    +0.000 A 
ATOM     13  C   UNL     1       2.007   9.429  17.687  0.00  0.00    +0.000 A 
ATOM     14  C   UNL     1       2.885   8.346  17.643  0.00  0.00    +0.000 A 
ATOM     15  C   UNL     1       2.809   7.329  18.603  0.00  0.00    +0.000 A 
ATOM     16  C   UNL     1       3.711   6.256  18.595  0.00  0.00    +0.000 A 
BRANCH   7  18
ATOM     17  C   UNL     1       4.189   2.954  19.577  0.00  0.00    +0.000 C 
ATOM     18  O   UNL     1       4.627   4.302  19.467  0.00  0.00    +0.000 OA
ENDBRANCH   7  18
ENDBRANCH   1  12
BRANCH   3  19
ATOM     19  C   UNL     1      -3.359  11.800  18.532  0.00  0.00    +0.000 A 
ATOM     20  C   UNL     1      -4.088  12.268  19.653  0.00  0.00    +0.000 A 
ATOM     21 CL   UNL     1      -3.356  12.665  21.175  0.00  0.00    +0.000 Cl
ATOM     22  C   UNL     1      -5.470  12.496  19.580  0.00  0.00    +0.000 A 
ATOM     23  C   UNL     1      -6.164  12.273  18.399  0.00  0.00    +0.000 A 
ATOM     24  C   UNL     1      -5.476  11.826  17.280  0.00  0.00    +0.000 A 
ATOM     25  C   UNL     1      -4.092  11.588  17.341  0.00  0.00    +0.000 A 
ATOM     26 CL   UNL     1      -3.377  11.017  15.866  0.00  0.00    +0.000 Cl
ENDBRANCH   3  19
BRANCH   5  27
ATOM     27  C   UNL     1       1.510  12.711  19.190  0.00  0.00    +0.000 A 
ATOM     28  C   UNL     1       2.289  13.169  18.125  0.00  0.00    +0.000 A 
ATOM     29  C   UNL     1       3.407  13.943  18.403  0.00  0.00    +0.000 A 
ATOM     30  N   UNL     1       3.788  14.296  19.647  0.00  0.00    +0.000 NA
ATOM     31  C   UNL     1       3.031  13.838  20.663  0.00  0.00    +0.000 A 
ATOM     32  C   UNL     1       1.915  13.037  20.488  0.00  0.00    +0.000 A 
ENDBRANCH   5  27
TORSDOF 4
ENDMDL
MODEL 6
REMARK VINA RESULT:      -7.9      2.608      5.134
REMARK  Name = 
REMARK  5 active torsions:
REMARK  status: ('A' for Active; 'I' for Inactive)
REMARK    1  A    between atoms: C_1  and  O_2
REMARK    2  A    between atoms: O_2  and  C_3
REMARK    3  A    between atoms: C_8  and  C_9
REMARK    4  A    between atoms: C_11  and  C_12
REMARK    5  A    between atoms: C_21  and  C_22
REMARK                            x       y       z     vdW  Elec       q    Type
REMARK                         _______ _______ _______ _____ _____    ______ ____
ROOT
ATOM      1  C   UNL     1       0.227  11.799  19.390  0.00  0.00    +0.000 A 
ATOM      2  N   UNL     1       0.944  12.896  19.811  0.00  0.00    +0.000 NA
ATOM      3  C   UNL     1       0.356  13.962  19.304  0.00  0.00    +0.000 A 
ATOM      4  N   UNL     1      -0.763  13.560  18.611  0.00  0.00    +0.000 N 
ATOM      5  C   UNL     1      -0.902  12.190  18.684  0.00  0.00    +0.000 A 
ATOM      6  H   UNL     1      -1.418  14.192  18.173  0.00  0.00    +0.000 HD
ENDROOT
BRANCH   1  12
ATOM      7  C   UNL     1       2.656   5.771  19.564  0.00  0.00    +0.000 A 
ATOM      8  C   UNL     1       2.924   6.344  18.323  0.00  0.00    +0.000 A 
ATOM      9  C   UNL     1       2.511   7.652  18.048  0.00  0.00    +0.000 A 
ATOM     10  C   UNL     1       1.815   8.403  19.006  0.00  0.00    +0.000 A 
ATOM     11  C   UNL     1       1.375   9.711  18.740  0.00  0.00    +0.000 A 
ATOM     12  C   UNL     1       0.663  10.443  19.697  0.00  0.00    +0.000 A 
ATOM     13  C   UNL     1       0.363   9.838  20.924  0.00  0.00    +0.000 A 
ATOM     14  C   UNL     1       0.825   8.555  21.218  0.00  0.00    +0.000 A 
ATOM     15  C   UNL     1       1.546   7.824  20.266  0.00  0.00    +0.000 A 
ATOM     16  C   UNL     1       1.981   6.518  20.533  0.00  0.00    +0.000 A 
BRANCH   7  18
ATOM     17  C   UNL     1       2.336   4.001  21.112  0.00  0.00    +0.000 C 
ATOM     18  O   UNL     1       2.990   4.502  19.953  0.00  0.00    +0.000 OA
ENDBRANCH   7  18
ENDBRANCH   1  12
BRANCH   3  19
ATOM     19  C   UNL     1       0.805  15.363  19.428  0.00  0.00    +0.000 A 
ATOM     20  C   UNL     1       0.063  16.302  20.185  0.00  0.00    +0.000 A 
ATOM     21 CL   UNL     1      -1.356  15.892  21.095  0.00  0.00    +0.000 Cl
ATOM     22  C   UNL     1       0.472  17.640  20.291  0.00  0.00    +0.000 A 
ATOM     23  C   UNL     1       1.625  18.081  19.656  0.00  0.00    +0.000 A 
ATOM     24  C   UNL     1       2.380  17.182  18.918  0.00  0.00    +0.000 A 
ATOM     25  C   UNL     1       1.979  15.840  18.798  0.00  0.00    +0.000 A 
ATOM     26 CL   UNL     1       3.018  14.844  17.830  0.00  0.00    +0.000 Cl
ENDBRANCH   3  19
BRANCH   5  27
ATOM     27  C   UNL     1      -2.047  11.477  18.110  0.00  0.00    +0.000 A 
ATOM     28  C   UNL     1      -3.351  11.749  18.531  0.00  0.00    +0.000 A 
ATOM     29  C   UNL     1      -4.401  11.076  17.923  0.00  0.00    +0.000 A 
ATOM     30  N   UNL     1      -4.244  10.176  16.932  0.00  0.00    +0.000 NA
ATOM     31  C   UNL     1      -2.980   9.919  16.545  0.00  0.00    +0.000 A 
ATOM     32  C   UNL     1      -1.867  10.518  17.111  0.00  0.00    +0.000 A 
ENDBRANCH   5  27
TORSDOF 4
ENDMDL
MODEL 7
REMARK VINA RESULT:      -7.9      2.604      5.310
REMARK  Name = 
REMARK  5 active torsions:
REMARK  status: ('A' for Active; 'I' for Inactive)
REMARK    1  A    between atoms: C_1  and  O_2
REMARK    2  A    between atoms: O_2  and  C_3
REMARK    3  A    between atoms: C_8  and  C_9
REMARK    4  A    between atoms: C_11  and  C_12
REMARK    5  A    between atoms: C_21  and  C_22
REMARK                            x       y       z     vdW  Elec       q    Type
REMARK                         _______ _______ _______ _____ _____    ______ ____
ROOT
ATOM      1  C   UNL     1       0.217  11.797  19.394  0.00  0.00    +0.000 A 
ATOM      2  N   UNL     1       0.925  12.898  19.820  0.00  0.00    +0.000 NA
ATOM      3  C   UNL     1       0.339  13.960  19.303  0.00  0.00    +0.000 A 
ATOM      4  N   UNL     1      -0.770  13.553  18.598  0.00  0.00    +0.000 N 
ATOM      5  C   UNL     1      -0.905  12.183  18.673  0.00  0.00    +0.000 A 
ATOM      6  H   UNL     1      -1.421  14.182  18.151  0.00  0.00    +0.000 HD
ENDROOT
BRANCH   1  12
ATOM      7  C   UNL     1       2.655   5.775  19.610  0.00  0.00    +0.000 A 
ATOM      8  C   UNL     1       2.929   6.343  18.368  0.00  0.00    +0.000 A 
ATOM      9  C   UNL     1       2.515   7.648  18.084  0.00  0.00    +0.000 A 
ATOM     10  C   UNL     1       1.813   8.403  19.035  0.00  0.00    +0.000 A 
ATOM     11  C   UNL     1       1.372   9.709  18.760  0.00  0.00    +0.000 A 
ATOM     12  C   UNL     1       0.653  10.444  19.709  0.00  0.00    +0.000 A 
ATOM     13  C   UNL     1       0.348   9.844  20.938  0.00  0.00    +0.000 A 
ATOM     14  C   UNL     1       0.811   8.563  21.241  0.00  0.00    +0.000 A 
ATOM     15  C   UNL     1       1.538   7.829  20.296  0.00  0.00    +0.000 A 
ATOM     16  C   UNL     1       1.974   6.525  20.572  0.00  0.00    +0.000 A 
BRANCH   7  18
ATOM     17  C   UNL     1       2.250   3.968  21.095  0.00  0.00    +0.000 C 
ATOM     18  O   UNL     1       2.989   4.509  20.007  0.00  0.00    +0.000 OA
ENDBRANCH   7  18
ENDBRANCH   1  12
BRANCH   3  19
ATOM     19  C   UNL     1       0.783  15.363  19.429  0.00  0.00    +0.000 A 
ATOM     20  C   UNL     1       1.990  15.802  18.830  0.00  0.00    +0.000 A 
ATOM     21 CL   UNL     1       2.990  14.790  17.838  0.00  0.00    +0.000 Cl
ATOM     22  C   UNL     1       2.429  17.128  18.961  0.00  0.00    +0.000 A 
ATOM     23  C   UNL     1       1.687  18.053  19.683  0.00  0.00    +0.000 A 
ATOM     24  C   UNL     1       0.494  17.656  20.271  0.00  0.00    +0.000 A 
ATOM     25  C   UNL     1       0.045  16.330  20.152  0.00  0.00    +0.000 A 
ATOM     26 CL   UNL     1      -1.454  15.984  20.954  0.00  0.00    +0.000 Cl
ENDBRANCH   3  19
BRANCH   5  27
ATOM     27  C   UNL     1      -2.041  11.465  18.087  0.00  0.00    +0.000 A 
ATOM     28  C   UNL     1      -3.349  11.727  18.499  0.00  0.00    +0.000 A 
ATOM     29  C   UNL     1      -4.390  11.050  17.880  0.00  0.00    +0.000 A 
ATOM     30  N   UNL     1      -4.220  10.153  16.887  0.00  0.00    +0.000 NA
ATOM     31  C   UNL     1      -2.950   9.905  16.510  0.00  0.00    +0.000 A 
ATOM     32  C   UNL     1      -1.846  10.509  17.087  0.00  0.00    +0.000 A 
ENDBRANCH   5  27
TORSDOF 4
ENDMDL
MODEL 8
REMARK VINA RESULT:      -7.8      0.717      2.207
REMARK  Name = 
REMARK  5 active torsions:
REMARK  status: ('A' for Active; 'I' for Inactive)
REMARK    1  A    between atoms: C_1  and  O_2
REMARK    2  A    between atoms: O_2  and  C_3
REMARK    3  A    between atoms: C_8  and  C_9
REMARK    4  A    between atoms: C_11  and  C_12
REMARK    5  A    between atoms: C_21  and  C_22
REMARK                            x       y       z     vdW  Elec       q    Type
REMARK                         _______ _______ _______ _____ _____    ______ ____
ROOT
ATOM      1  C   UNL     1      -0.080  10.715  18.877  0.00  0.00    +0.000 A 
ATOM      2  N   UNL     1      -1.431  10.530  18.685  0.00  0.00    +0.000 NA
ATOM      3  C   UNL     1      -2.017  11.690  18.915  0.00  0.00    +0.000 A 
ATOM      4  N   UNL     1      -1.048  12.626  19.196  0.00  0.00    +0.000 N 
ATOM      5  C   UNL     1       0.203  12.050  19.135  0.00  0.00    +0.000 A 
ATOM      6  H   UNL     1      -1.234  13.605  19.355  0.00  0.00    +0.000 HD
ENDROOT
BRANCH   1  12
ATOM      7  C   UNL     1       3.529   5.355  19.590  0.00  0.00    +0.000 A 
ATOM      8  C   UNL     1       2.613   5.441  20.636  0.00  0.00    +0.000 A 
ATOM      9  C   UNL     1       1.710   6.507  20.695  0.00  0.00    +0.000 A 
ATOM     10  C   UNL     1       1.715   7.510  19.714  0.00  0.00    +0.000 A 
ATOM     11  C   UNL     1       0.828   8.599  19.768  0.00  0.00    +0.000 A 
ATOM     12  C   UNL     1       0.858   9.604  18.795  0.00  0.00    +0.000 A 
ATOM     13  C   UNL     1       1.813   9.527  17.773  0.00  0.00    +0.000 A 
ATOM     14  C   UNL     1       2.675   8.433  17.684  0.00  0.00    +0.000 A 
ATOM     15  C   UNL     1       2.642   7.421  18.652  0.00  0.00    +0.000 A 
ATOM     16  C   UNL     1       3.530   6.338  18.597  0.00  0.00    +0.000 A 
BRANCH   7  18
ATOM     17  C   UNL     1       5.723   4.786  18.888  0.00  0.00    +0.000 C 
ATOM     18  O   UNL     1       4.472   4.377  19.425  0.00  0.00    +0.000 OA
ENDBRANCH   7  18
ENDBRANCH   1  12
BRANCH   3  19
ATOM     19  C   UNL     1      -3.467  11.965  18.897  0.00  0.00    +0.000 A 
ATOM     20  C   UNL     1      -4.231  11.771  17.719  0.00  0.00    +0.000 A 
ATOM     21 CL   UNL     1      -3.579  11.119  16.250  0.00  0.00    +0.000 Cl
ATOM     22  C   UNL     1      -5.605  12.050  17.688  0.00  0.00    +0.000 A 
ATOM     23  C   UNL     1      -6.260  12.523  18.818  0.00  0.00    +0.000 A 
ATOM     24  C   UNL     1      -5.541  12.711  19.989  0.00  0.00    +0.000 A 
ATOM     25  C   UNL     1      -4.163  12.441  20.034  0.00  0.00    +0.000 A 
ATOM     26 CL   UNL     1      -3.401  12.740  21.564  0.00  0.00    +0.000 Cl
ENDBRANCH   3  19
BRANCH   5  27
ATOM     27  C   UNL     1       1.439  12.818  19.307  0.00  0.00    +0.000 A 
ATOM     28  C   UNL     1       2.173  13.261  18.205  0.00  0.00    +0.000 A 
ATOM     29  C   UNL     1       3.312  14.021  18.425  0.00  0.00    +0.000 A 
ATOM     30  N   UNL     1       3.756  14.375  19.648  0.00  0.00    +0.000 NA
ATOM     31  C   UNL     1       3.042  13.931  20.701  0.00  0.00    +0.000 A 
ATOM     32  C   UNL     1       1.909  13.143  20.582  0.00  0.00    +0.000 A 
ENDBRANCH   5  27
TORSDOF 4
ENDMDL
MODEL 9
REMARK VINA RESULT:      -7.8      2.388      5.339
REMARK  Name = 
REMARK  5 active torsions:
REMARK  status: ('A' for Active; 'I' for Inactive)
REMARK    1  A    between atoms: C_1  and  O_2
REMARK    2  A    between atoms: O_2  and  C_3
REMARK    3  A    between atoms: C_8  and  C_9
REMARK    4  A    between atoms: C_11  and  C_12
REMARK    5  A    between atoms: C_21  and  C_22
REMARK                            x       y       z     vdW  Elec       q    Type
REMARK                         _______ _______ _______ _____ _____    ______ ____
ROOT
ATOM      1  C   UNL     1       0.916  11.446  19.178  0.00  0.00    +0.000 A 
ATOM      2  N   UNL     1       1.730  12.424  19.707  0.00  0.00    +0.000 NA
ATOM      3  C   UNL     1       1.053  13.555  19.667  0.00  0.00    +0.000 A 
ATOM      4  N   UNL     1      -0.205  13.299  19.171  0.00  0.00    +0.000 N 
ATOM      5  C   UNL     1      -0.343  11.956  18.893  0.00  0.00    +0.000 A 
ATOM      6  H   UNL     1      -0.935  13.991  19.091  0.00  0.00    +0.000 HD
ENDROOT
BRANCH   1  12
ATOM      7  C   UNL     1       2.564   5.167  19.510  0.00  0.00    +0.000 A 
ATOM      8  C   UNL     1       1.932   5.544  20.693  0.00  0.00    +0.000 A 
ATOM      9  C   UNL     1       1.468   6.854  20.856  0.00  0.00    +0.000 A 
ATOM     10  C   UNL     1       1.639   7.809  19.843  0.00  0.00    +0.000 A 
ATOM     11  C   UNL     1       1.197   9.134  19.998  0.00  0.00    +0.000 A 
ATOM     12  C   UNL     1       1.392  10.083  18.988  0.00  0.00    +0.000 A 
ATOM     13  C   UNL     1       2.068   9.700  17.822  0.00  0.00    +0.000 A 
ATOM     14  C   UNL     1       2.478   8.379  17.637  0.00  0.00    +0.000 A 
ATOM     15  C   UNL     1       2.277   7.425  18.643  0.00  0.00    +0.000 A 
ATOM     16  C   UNL     1       2.721   6.105  18.487  0.00  0.00    +0.000 A 
BRANCH   7  18
ATOM     17  C   UNL     1       4.492   3.822  19.182  0.00  0.00    +0.000 C 
ATOM     18  O   UNL     1       3.075   3.928  19.231  0.00  0.00    +0.000 OA
ENDBRANCH   7  18
ENDBRANCH   1  12
BRANCH   3  19
ATOM     19  C   UNL     1       1.541  14.891  20.065  0.00  0.00    +0.000 A 
ATOM     20  C   UNL     1       1.108  15.495  21.271  0.00  0.00    +0.000 A 
ATOM     21 CL   UNL     1       0.067  14.710  22.416  0.00  0.00    +0.000 Cl
ATOM     22  C   UNL     1       1.550  16.772  21.646  0.00  0.00    +0.000 A 
ATOM     23  C   UNL     1       2.432  17.482  20.844  0.00  0.00    +0.000 A 
ATOM     24  C   UNL     1       2.884  16.912  19.662  0.00  0.00    +0.000 A 
ATOM     25  C   UNL     1       2.445  15.635  19.271  0.00  0.00    +0.000 A 
ATOM     26 CL   UNL     1       3.086  15.065  17.762  0.00  0.00    +0.000 Cl
ENDBRANCH   3  19
BRANCH   5  27
ATOM     27  C   UNL     1      -1.602  11.367  18.428  0.00  0.00    +0.000 A 
ATOM     28  C   UNL     1      -2.834  11.887  18.833  0.00  0.00    +0.000 A 
ATOM     29  C   UNL     1      -3.994  11.319  18.328  0.00  0.00    +0.000 A 
ATOM     30  N   UNL     1      -4.012  10.294  17.453  0.00  0.00    +0.000 NA
ATOM     31  C   UNL     1      -2.815   9.799  17.080  0.00  0.00    +0.000 A 
ATOM     32  C   UNL     1      -1.605  10.280  17.551  0.00  0.00    +0.000 A 
ENDBRANCH   5  27
TORSDOF 4
ENDMDL
