MODEL 1
REMARK VINA RESULT:      -7.3      0.000      0.000
REMARK  Name = 
REMARK  7 active torsions:
REMARK  status: ('A' for Active; 'I' for Inactive)
REMARK    1  A    between atoms: C_1  and  C_2
REMARK    2  A    between atoms: C_2  and  C_3
REMARK    3  A    between atoms: C_3  and  C_4
REMARK    4  A    between atoms: C_4  and  C_5
REMARK    5  A    between atoms: C_14  and  N_15
REMARK    6  A    between atoms: N_15  and  C_16
REMARK    7  A    between atoms: C_16  and  C_17
REMARK                            x       y       z     vdW  Elec       q    Type
REMARK                         _______ _______ _______ _____ _____    ______ ____
ROOT
ATOM      1  C   UNL     1       3.478   5.743  17.747  0.00  0.00    +0.000 A 
ATOM      2  N   UNL     1       4.557   6.597  17.673  0.00  0.00    +0.000 NA
ATOM      3  C   UNL     1       5.432   5.946  16.937  0.00  0.00    +0.000 A 
ATOM      4  C   UNL     1       6.771   6.379  16.583  0.00  0.00    +0.000 A 
ATOM      5  N   UNL     1       7.259   7.607  16.940  0.00  0.00    +0.000 N 
ATOM      6  N   UNL     1       7.573   5.571  15.923  0.00  0.00    +0.000 NA
ATOM      7  C   UNL     1       7.095   4.325  15.567  0.00  0.00    +0.000 A 
ATOM      8  C   UNL     1       5.860   3.874  15.850  0.00  0.00    +0.000 A 
ATOM      9  N   UNL     1       4.992   4.706  16.541  0.00  0.00    +0.000 N 
ATOM     10  C   UNL     1       3.697   4.573  17.022  0.00  0.00    +0.000 A 
ATOM     11  H   UNL     1       6.783   8.022  17.737  0.00  0.00    +0.000 HD
ATOM     12  H   UNL     1       8.269   7.638  16.980  0.00  0.00    +0.000 HD
ENDROOT
BRANCH  10  13
ATOM     13  N   UNL     1       2.893   3.477  16.896  0.00  0.00    +0.000 N 
ATOM     14  H   UNL     1       2.544   3.262  15.963  0.00  0.00    +0.000 HD
BRANCH  13  15
ATOM     15  C   UNL     1       3.045   2.261  17.681  0.00  0.00    +0.000 C 
BRANCH  15  16
ATOM     16  C   UNL     1       2.475   2.437  19.073  0.00  0.00    +0.000 A 
ATOM     17  C   UNL     1       3.335   2.392  20.181  0.00  0.00    +0.000 A 
ATOM     18  C   UNL     1       2.851   2.620  21.472  0.00  0.00    +0.000 A 
ATOM     19  C   UNL     1       1.503   2.901  21.673  0.00  0.00    +0.000 A 
ATOM     20  C   UNL     1       0.633   2.948  20.587  0.00  0.00    +0.000 A 
ATOM     21  C   UNL     1       1.117   2.723  19.295  0.00  0.00    +0.000 A 
ENDBRANCH  15  16
ENDBRANCH  13  15
ENDBRANCH  10  13
BRANCH   1  22
ATOM     22  C   UNL     1       2.289   6.129  18.561  0.00  0.00    +0.000 C 
BRANCH  22  23
ATOM     23  C   UNL     1       2.591   6.071  20.060  0.00  0.00    +0.000 C 
BRANCH  23  25
ATOM     24  C   UNL     1       1.429   8.203  20.712  0.00  0.00    +0.000 C 
ATOM     25  C   UNL     1       1.469   6.693  20.890  0.00  0.00    +0.000 C 
ENDBRANCH  23  25
ENDBRANCH  22  23
ENDBRANCH   1  22
TORSDOF 6
ENDMDL
MODEL 2
REMARK VINA RESULT:      -7.3      0.043      1.029
REMARK  Name = 
REMARK  7 active torsions:
REMARK  status: ('A' for Active; 'I' for Inactive)
REMARK    1  A    between atoms: C_1  and  C_2
REMARK    2  A    between atoms: C_2  and  C_3
REMARK    3  A    between atoms: C_3  and  C_4
REMARK    4  A    between atoms: C_4  and  C_5
REMARK    5  A    between atoms: C_14  and  N_15
REMARK    6  A    between atoms: N_15  and  C_16
REMARK    7  A    between atoms: C_16  and  C_17
REMARK                            x       y       z     vdW  Elec       q    Type
REMARK                         _______ _______ _______ _____ _____    ______ ____
ROOT
ATOM      1  C   UNL     1       3.474   5.731  17.733  0.00  0.00    +0.000 A 
ATOM      2  N   UNL     1       4.552   6.587  17.673  0.00  0.00    +0.000 NA
ATOM      3  C   UNL     1       5.430   5.946  16.932  0.00  0.00    +0.000 A 
ATOM      4  C   UNL     1       6.770   6.384  16.588  0.00  0.00    +0.000 A 
ATOM      5  N   UNL     1       7.256   7.609  16.962  0.00  0.00    +0.000 N 
ATOM      6  N   UNL     1       7.576   5.585  15.921  0.00  0.00    +0.000 NA
ATOM      7  C   UNL     1       7.100   4.343  15.548  0.00  0.00    +0.000 A 
ATOM      8  C   UNL     1       5.864   3.888  15.821  0.00  0.00    +0.000 A 
ATOM      9  N   UNL     1       4.993   4.710  16.519  0.00  0.00    +0.000 N 
ATOM     10  C   UNL     1       3.696   4.570  16.995  0.00  0.00    +0.000 A 
ATOM     11  H   UNL     1       6.776   8.013  17.762  0.00  0.00    +0.000 HD
ATOM     12  H   UNL     1       8.265   7.640  17.006  0.00  0.00    +0.000 HD
ENDROOT
BRANCH  10  13
ATOM     13  N   UNL     1       2.894   3.475  16.852  0.00  0.00    +0.000 N 
ATOM     14  H   UNL     1       2.590   3.242  15.908  0.00  0.00    +0.000 HD
BRANCH  13  15
ATOM     15  C   UNL     1       3.001   2.275  17.670  0.00  0.00    +0.000 C 
BRANCH  15  16
ATOM     16  C   UNL     1       2.497   2.527  19.075  0.00  0.00    +0.000 A 
ATOM     17  C   UNL     1       1.130   2.761  19.285  0.00  0.00    +0.000 A 
ATOM     18  C   UNL     1       0.622   2.926  20.577  0.00  0.00    +0.000 A 
ATOM     19  C   UNL     1       1.474   2.856  21.676  0.00  0.00    +0.000 A 
ATOM     20  C   UNL     1       2.834   2.626  21.488  0.00  0.00    +0.000 A 
ATOM     21  C   UNL     1       3.342   2.457  20.197  0.00  0.00    +0.000 A 
ENDBRANCH  15  16
ENDBRANCH  13  15
ENDBRANCH  10  13
BRANCH   1  22
ATOM     22  C   UNL     1       2.282   6.106  18.548  0.00  0.00    +0.000 C 
BRANCH  22  23
ATOM     23  C   UNL     1       2.599   6.099  20.045  0.00  0.00    +0.000 C 
BRANCH  23  25
ATOM     24  C   UNL     1       1.406   8.234  20.626  0.00  0.00    +0.000 C 
ATOM     25  C   UNL     1       1.477   6.734  20.866  0.00  0.00    +0.000 C 
ENDBRANCH  23  25
ENDBRANCH  22  23
ENDBRANCH   1  22
TORSDOF 6
ENDMDL
MODEL 3
REMARK VINA RESULT:      -7.0      2.045      3.597
REMARK  Name = 
REMARK  7 active torsions:
REMARK  status: ('A' for Active; 'I' for Inactive)
REMARK    1  A    between atoms: C_1  and  C_2
REMARK    2  A    between atoms: C_2  and  C_3
REMARK    3  A    between atoms: C_3  and  C_4
REMARK    4  A    between atoms: C_4  and  C_5
REMARK    5  A    between atoms: C_14  and  N_15
REMARK    6  A    between atoms: N_15  and  C_16
REMARK    7  A    between atoms: C_16  and  C_17
REMARK                            x       y       z     vdW  Elec       q    Type
REMARK                         _______ _______ _______ _____ _____    ______ ____
ROOT
ATOM      1  C   UNL     1       6.377   5.593  16.566  0.00  0.00    +0.000 A 
ATOM      2  N   UNL     1       7.364   5.877  15.648  0.00  0.00    +0.000 NA
ATOM      3  C   UNL     1       6.998   5.221  14.569  0.00  0.00    +0.000 A 
ATOM      4  C   UNL     1       7.714   5.140  13.309  0.00  0.00    +0.000 A 
ATOM      5  N   UNL     1       8.871   5.836  13.082  0.00  0.00    +0.000 N 
ATOM      6  N   UNL     1       7.274   4.356  12.348  0.00  0.00    +0.000 NA
ATOM      7  C   UNL     1       6.113   3.641  12.571  0.00  0.00    +0.000 A 
ATOM      8  C   UNL     1       5.397   3.687  13.707  0.00  0.00    +0.000 A 
ATOM      9  N   UNL     1       5.835   4.507  14.735  0.00  0.00    +0.000 N 
ATOM     10  C   UNL     1       5.388   4.776  16.022  0.00  0.00    +0.000 A 
ATOM     11  H   UNL     1       9.361   6.106  13.931  0.00  0.00    +0.000 HD
ATOM     12  H   UNL     1       9.451   5.421  12.365  0.00  0.00    +0.000 HD
ENDROOT
BRANCH  10  13
ATOM     13  N   UNL     1       4.285   4.243  16.624  0.00  0.00    +0.000 N 
ATOM     14  H   UNL     1       3.476   4.058  16.033  0.00  0.00    +0.000 HD
BRANCH  13  15
ATOM     15  C   UNL     1       4.338   3.302  17.734  0.00  0.00    +0.000 C 
BRANCH  15  16
ATOM     16  C   UNL     1       3.198   3.537  18.703  0.00  0.00    +0.000 A 
ATOM     17  C   UNL     1       3.282   4.594  19.621  0.00  0.00    +0.000 A 
ATOM     18  C   UNL     1       2.219   4.881  20.481  0.00  0.00    +0.000 A 
ATOM     19  C   UNL     1       1.055   4.118  20.431  0.00  0.00    +0.000 A 
ATOM     20  C   UNL     1       0.953   3.064  19.528  0.00  0.00    +0.000 A 
ATOM     21  C   UNL     1       2.015   2.778  18.665  0.00  0.00    +0.000 A 
ENDBRANCH  15  16
ENDBRANCH  13  15
ENDBRANCH  10  13
BRANCH   1  22
ATOM     22  C   UNL     1       6.483   6.134  17.952  0.00  0.00    +0.000 C 
BRANCH  22  23
ATOM     23  C   UNL     1       7.761   6.956  18.139  0.00  0.00    +0.000 C 
BRANCH  23  25
ATOM     24  C   UNL     1       8.565   9.331  18.332  0.00  0.00    +0.000 C 
ATOM     25  C   UNL     1       7.592   8.389  17.637  0.00  0.00    +0.000 C 
ENDBRANCH  23  25
ENDBRANCH  22  23
ENDBRANCH   1  22
TORSDOF 6
ENDMDL
MODEL 4
REMARK VINA RESULT:      -7.0      2.226      4.055
REMARK  Name = 
REMARK  7 active torsions:
REMARK  status: ('A' for Active; 'I' for Inactive)
REMARK    1  A    between atoms: C_1  and  C_2
REMARK    2  A    between atoms: C_2  and  C_3
REMARK    3  A    between atoms: C_3  and  C_4
REMARK    4  A    between atoms: C_4  and  C_5
REMARK    5  A    between atoms: C_14  and  N_15
REMARK    6  A    between atoms: N_15  and  C_16
REMARK    7  A    between atoms: C_16  and  C_17
REMARK                            x       y       z     vdW  Elec       q    Type
REMARK                         _______ _______ _______ _____ _____    ______ ____
ROOT
ATOM      1  C   UNL     1       7.277   6.406  17.574  0.00  0.00    +0.000 A 
ATOM      2  N   UNL     1       7.726   6.348  16.273  0.00  0.00    +0.000 NA
ATOM      3  C   UNL     1       6.967   5.432  15.712  0.00  0.00    +0.000 A 
ATOM      4  C   UNL     1       7.050   4.944  14.348  0.00  0.00    +0.000 A 
ATOM      5  N   UNL     1       7.927   5.470  13.436  0.00  0.00    +0.000 N 
ATOM      6  N   UNL     1       6.289   3.945  13.956  0.00  0.00    +0.000 NA
ATOM      7  C   UNL     1       5.408   3.399  14.870  0.00  0.00    +0.000 A 
ATOM      8  C   UNL     1       5.273   3.819  16.141  0.00  0.00    +0.000 A 
ATOM      9  N   UNL     1       6.060   4.872  16.579  0.00  0.00    +0.000 N 
ATOM     10  C   UNL     1       6.215   5.531  17.792  0.00  0.00    +0.000 A 
ATOM     11  H   UNL     1       8.722   5.943  13.859  0.00  0.00    +0.000 HD
ATOM     12  H   UNL     1       8.156   4.829  12.689  0.00  0.00    +0.000 HD
ENDROOT
BRANCH  10  13
ATOM     13  N   UNL     1       5.541   5.266  18.949  0.00  0.00    +0.000 N 
ATOM     14  H   UNL     1       6.100   5.053  19.774  0.00  0.00    +0.000 HD
BRANCH  13  15
ATOM     15  C   UNL     1       4.290   5.907  19.327  0.00  0.00    +0.000 C 
BRANCH  15  16
ATOM     16  C   UNL     1       3.150   4.910  19.344  0.00  0.00    +0.000 A 
ATOM     17  C   UNL     1       2.715   4.380  20.567  0.00  0.00    +0.000 A 
ATOM     18  C   UNL     1       1.621   3.513  20.624  0.00  0.00    +0.000 A 
ATOM     19  C   UNL     1       0.944   3.166  19.458  0.00  0.00    +0.000 A 
ATOM     20  C   UNL     1       1.362   3.680  18.233  0.00  0.00    +0.000 A 
ATOM     21  C   UNL     1       2.454   4.550  18.176  0.00  0.00    +0.000 A 
ENDBRANCH  15  16
ENDBRANCH  13  15
ENDBRANCH  10  13
BRANCH   1  22
ATOM     22  C   UNL     1       7.949   7.318  18.545  0.00  0.00    +0.000 C 
BRANCH  22  23
ATOM     23  C   UNL     1       8.135   8.721  17.963  0.00  0.00    +0.000 C 
BRANCH  23  25
ATOM     24  C   UNL     1       9.311  10.930  18.211  0.00  0.00    +0.000 C 
ATOM     25  C   UNL     1       8.953   9.618  18.892  0.00  0.00    +0.000 C 
ENDBRANCH  23  25
ENDBRANCH  22  23
ENDBRANCH   1  22
TORSDOF 6
ENDMDL
MODEL 5
REMARK VINA RESULT:      -7.0      2.236      4.147
REMARK  Name = 
REMARK  7 active torsions:
REMARK  status: ('A' for Active; 'I' for Inactive)
REMARK    1  A    between atoms: C_1  and  C_2
REMARK    2  A    between atoms: C_2  and  C_3
REMARK    3  A    between atoms: C_3  and  C_4
REMARK    4  A    between atoms: C_4  and  C_5
REMARK    5  A    between atoms: C_14  and  N_15
REMARK    6  A    between atoms: N_15  and  C_16
REMARK    7  A    between atoms: C_16  and  C_17
REMARK                            x       y       z     vdW  Elec       q    Type
REMARK                         _______ _______ _______ _____ _____    ______ ____
ROOT
ATOM      1  C   UNL     1       7.281   6.430  17.560  0.00  0.00    +0.000 A 
ATOM      2  N   UNL     1       7.741   6.381  16.262  0.00  0.00    +0.000 NA
ATOM      3  C   UNL     1       6.990   5.465  15.690  0.00  0.00    +0.000 A 
ATOM      4  C   UNL     1       7.085   4.985  14.325  0.00  0.00    +0.000 A 
ATOM      5  N   UNL     1       7.968   5.519  13.423  0.00  0.00    +0.000 N 
ATOM      6  N   UNL     1       6.331   3.985  13.921  0.00  0.00    +0.000 NA
ATOM      7  C   UNL     1       5.444   3.432  14.825  0.00  0.00    +0.000 A 
ATOM      8  C   UNL     1       5.298   3.844  16.097  0.00  0.00    +0.000 A 
ATOM      9  N   UNL     1       6.077   4.898  16.547  0.00  0.00    +0.000 N 
ATOM     10  C   UNL     1       6.221   5.550  17.765  0.00  0.00    +0.000 A 
ATOM     11  H   UNL     1       8.758   5.992  13.854  0.00  0.00    +0.000 HD
ATOM     12  H   UNL     1       8.205   4.883  12.674  0.00  0.00    +0.000 HD
ENDROOT
BRANCH  10  13
ATOM     13  N   UNL     1       5.539   5.277  18.915  0.00  0.00    +0.000 N 
ATOM     14  H   UNL     1       6.090   5.017  19.732  0.00  0.00    +0.000 HD
BRANCH  13  15
ATOM     15  C   UNL     1       4.313   5.954  19.316  0.00  0.00    +0.000 C 
BRANCH  15  16
ATOM     16  C   UNL     1       3.132   5.007  19.283  0.00  0.00    +0.000 A 
ATOM     17  C   UNL     1       2.504   4.731  18.061  0.00  0.00    +0.000 A 
ATOM     18  C   UNL     1       1.457   3.808  17.986  0.00  0.00    +0.000 A 
ATOM     19  C   UNL     1       1.026   3.146  19.133  0.00  0.00    +0.000 A 
ATOM     20  C   UNL     1       1.636   3.409  20.357  0.00  0.00    +0.000 A 
ATOM     21  C   UNL     1       2.686   4.329  20.431  0.00  0.00    +0.000 A 
ENDBRANCH  15  16
ENDBRANCH  13  15
ENDBRANCH  10  13
BRANCH   1  22
ATOM     22  C   UNL     1       7.942   7.339  18.542  0.00  0.00    +0.000 C 
BRANCH  22  23
ATOM     23  C   UNL     1       8.186   8.728  17.946  0.00  0.00    +0.000 C 
BRANCH  23  25
ATOM     24  C   UNL     1       9.343  10.941  18.238  0.00  0.00    +0.000 C 
ATOM     25  C   UNL     1       8.961   9.629  18.907  0.00  0.00    +0.000 C 
ENDBRANCH  23  25
ENDBRANCH  22  23
ENDBRANCH   1  22
TORSDOF 6
ENDMDL
MODEL 6
REMARK VINA RESULT:      -7.0      2.060      3.675
REMARK  Name = 
REMARK  7 active torsions:
REMARK  status: ('A' for Active; 'I' for Inactive)
REMARK    1  A    between atoms: C_1  and  C_2
REMARK    2  A    between atoms: C_2  and  C_3
REMARK    3  A    between atoms: C_3  and  C_4
REMARK    4  A    between atoms: C_4  and  C_5
REMARK    5  A    between atoms: C_14  and  N_15
REMARK    6  A    between atoms: N_15  and  C_16
REMARK    7  A    between atoms: C_16  and  C_17
REMARK                            x       y       z     vdW  Elec       q    Type
REMARK                         _______ _______ _______ _____ _____    ______ ____
ROOT
ATOM      1  C   UNL     1       6.397   5.598  16.558  0.00  0.00    +0.000 A 
ATOM      2  N   UNL     1       7.374   5.903  15.635  0.00  0.00    +0.000 NA
ATOM      3  C   UNL     1       7.027   5.223  14.564  0.00  0.00    +0.000 A 
ATOM      4  C   UNL     1       7.744   5.151  13.305  0.00  0.00    +0.000 A 
ATOM      5  N   UNL     1       8.879   5.881  13.068  0.00  0.00    +0.000 N 
ATOM      6  N   UNL     1       7.328   4.343  12.353  0.00  0.00    +0.000 NA
ATOM      7  C   UNL     1       6.190   3.594  12.585  0.00  0.00    +0.000 A 
ATOM      8  C   UNL     1       5.474   3.631  13.722  0.00  0.00    +0.000 A 
ATOM      9  N   UNL     1       5.888   4.476  14.740  0.00  0.00    +0.000 N 
ATOM     10  C   UNL     1       5.434   4.744  16.024  0.00  0.00    +0.000 A 
ATOM     11  H   UNL     1       9.361   6.175  13.913  0.00  0.00    +0.000 HD
ATOM     12  H   UNL     1       9.471   5.476  12.354  0.00  0.00    +0.000 HD
ENDROOT
BRANCH  10  13
ATOM     13  N   UNL     1       4.349   4.184  16.634  0.00  0.00    +0.000 N 
ATOM     14  H   UNL     1       3.585   3.877  16.034  0.00  0.00    +0.000 HD
BRANCH  13  15
ATOM     15  C   UNL     1       4.423   3.361  17.833  0.00  0.00    +0.000 C 
BRANCH  15  16
ATOM     16  C   UNL     1       3.143   3.453  18.637  0.00  0.00    +0.000 A 
ATOM     17  C   UNL     1       2.024   2.707  18.240  0.00  0.00    +0.000 A 
ATOM     18  C   UNL     1       0.851   2.715  19.000  0.00  0.00    +0.000 A 
ATOM     19  C   UNL     1       0.783   3.467  20.170  0.00  0.00    +0.000 A 
ATOM     20  C   UNL     1       1.883   4.216  20.580  0.00  0.00    +0.000 A 
ATOM     21  C   UNL     1       3.057   4.205  19.822  0.00  0.00    +0.000 A 
ENDBRANCH  15  16
ENDBRANCH  13  15
ENDBRANCH  10  13
BRANCH   1  22
ATOM     22  C   UNL     1       6.488   6.157  17.938  0.00  0.00    +0.000 C 
BRANCH  22  23
ATOM     23  C   UNL     1       7.791   6.933  18.146  0.00  0.00    +0.000 C 
BRANCH  23  25
ATOM     24  C   UNL     1       8.574   9.306  18.432  0.00  0.00    +0.000 C 
ATOM     25  C   UNL     1       7.685   8.368  17.629  0.00  0.00    +0.000 C 
ENDBRANCH  23  25
ENDBRANCH  22  23
ENDBRANCH   1  22
TORSDOF 6
ENDMDL
MODEL 7
REMARK VINA RESULT:      -6.9      2.694      5.554
REMARK  Name = 
REMARK  7 active torsions:
REMARK  status: ('A' for Active; 'I' for Inactive)
REMARK    1  A    between atoms: C_1  and  C_2
REMARK    2  A    between atoms: C_2  and  C_3
REMARK    3  A    between atoms: C_3  and  C_4
REMARK    4  A    between atoms: C_4  and  C_5
REMARK    5  A    between atoms: C_14  and  N_15
REMARK    6  A    between atoms: N_15  and  C_16
REMARK    7  A    between atoms: C_16  and  C_17
REMARK                            x       y       z     vdW  Elec       q    Type
REMARK                         _______ _______ _______ _____ _____    ______ ____
ROOT
ATOM      1  C   UNL     1       2.577   7.281  18.539  0.00  0.00    +0.000 A 
ATOM      2  N   UNL     1       2.196   8.536  18.118  0.00  0.00    +0.000 NA
ATOM      3  C   UNL     1       1.601   9.061  19.167  0.00  0.00    +0.000 A 
ATOM      4  C   UNL     1       0.970  10.364  19.253  0.00  0.00    +0.000 A 
ATOM      5  N   UNL     1       0.993  11.257  18.214  0.00  0.00    +0.000 N 
ATOM      6  N   UNL     1       0.319  10.712  20.342  0.00  0.00    +0.000 NA
ATOM      7  C   UNL     1       0.279   9.815  21.392  0.00  0.00    +0.000 A 
ATOM      8  C   UNL     1       0.859   8.603  21.380  0.00  0.00    +0.000 A 
ATOM      9  N   UNL     1       1.554   8.211  20.246  0.00  0.00    +0.000 N 
ATOM     10  C   UNL     1       2.229   7.057  19.870  0.00  0.00    +0.000 A 
ATOM     11  H   UNL     1       1.154  10.826  17.307  0.00  0.00    +0.000 HD
ATOM     12  H   UNL     1       0.234  11.923  18.245  0.00  0.00    +0.000 HD
ENDROOT
BRANCH  10  13
ATOM     13  N   UNL     1       2.389   5.930  20.623  0.00  0.00    +0.000 N 
ATOM     14  H   UNL     1       2.740   6.051  21.572  0.00  0.00    +0.000 HD
BRANCH  13  15
ATOM     15  C   UNL     1       1.520   4.765  20.541  0.00  0.00    +0.000 C 
BRANCH  15  16
ATOM     16  C   UNL     1       2.189   3.638  19.784  0.00  0.00    +0.000 A 
ATOM     17  C   UNL     1       1.659   3.223  18.554  0.00  0.00    +0.000 A 
ATOM     18  C   UNL     1       2.293   2.234  17.797  0.00  0.00    +0.000 A 
ATOM     19  C   UNL     1       3.470   1.649  18.258  0.00  0.00    +0.000 A 
ATOM     20  C   UNL     1       4.011   2.046  19.478  0.00  0.00    +0.000 A 
ATOM     21  C   UNL     1       3.379   3.038  20.233  0.00  0.00    +0.000 A 
ENDBRANCH  15  16
ENDBRANCH  13  15
ENDBRANCH  10  13
BRANCH   1  22
ATOM     22  C   UNL     1       3.248   6.355  17.581  0.00  0.00    +0.000 C 
BRANCH  22  23
ATOM     23  C   UNL     1       4.760   6.304  17.815  0.00  0.00    +0.000 C 
BRANCH  23  25
ATOM     24  C   UNL     1       4.951   4.368  16.222  0.00  0.00    +0.000 C 
ATOM     25  C   UNL     1       5.322   4.900  17.598  0.00  0.00    +0.000 C 
ENDBRANCH  23  25
ENDBRANCH  22  23
ENDBRANCH   1  22
TORSDOF 6
ENDMDL
MODEL 8
REMARK VINA RESULT:      -6.9      1.539      4.419
REMARK  Name = 
REMARK  7 active torsions:
REMARK  status: ('A' for Active; 'I' for Inactive)
REMARK    1  A    between atoms: C_1  and  C_2
REMARK    2  A    between atoms: C_2  and  C_3
REMARK    3  A    between atoms: C_3  and  C_4
REMARK    4  A    between atoms: C_4  and  C_5
REMARK    5  A    between atoms: C_14  and  N_15
REMARK    6  A    between atoms: N_15  and  C_16
REMARK    7  A    between atoms: C_16  and  C_17
REMARK                            x       y       z     vdW  Elec       q    Type
REMARK                         _______ _______ _______ _____ _____    ______ ____
ROOT
ATOM      1  C   UNL     1       3.366   4.236  17.833  0.00  0.00    +0.000 A 
ATOM      2  N   UNL     1       4.070   3.812  16.728  0.00  0.00    +0.000 NA
ATOM      3  C   UNL     1       5.170   4.532  16.752  0.00  0.00    +0.000 A 
ATOM      4  C   UNL     1       6.248   4.514  15.781  0.00  0.00    +0.000 A 
ATOM      5  N   UNL     1       6.262   3.647  14.721  0.00  0.00    +0.000 N 
ATOM      6  N   UNL     1       7.242   5.370  15.882  0.00  0.00    +0.000 NA
ATOM      7  C   UNL     1       7.234   6.257  16.941  0.00  0.00    +0.000 A 
ATOM      8  C   UNL     1       6.275   6.310  17.882  0.00  0.00    +0.000 A 
ATOM      9  N   UNL     1       5.217   5.418  17.802  0.00  0.00    +0.000 N 
ATOM     10  C   UNL     1       4.065   5.206  18.548  0.00  0.00    +0.000 A 
ATOM     11  H   UNL     1       5.342   3.293  14.470  0.00  0.00    +0.000 HD
ATOM     12  H   UNL     1       6.822   3.974  13.946  0.00  0.00    +0.000 HD
ENDROOT
BRANCH  10  13
ATOM     13  N   UNL     1       3.681   5.899  19.660  0.00  0.00    +0.000 N 
ATOM     14  H   UNL     1       4.310   6.629  19.993  0.00  0.00    +0.000 HD
BRANCH  13  15
ATOM     15  C   UNL     1       2.299   6.226  19.979  0.00  0.00    +0.000 C 
BRANCH  15  16
ATOM     16  C   UNL     1       1.966   7.645  19.570  0.00  0.00    +0.000 A 
ATOM     17  C   UNL     1       2.277   8.080  18.273  0.00  0.00    +0.000 A 
ATOM     18  C   UNL     1       1.920   9.360  17.842  0.00  0.00    +0.000 A 
ATOM     19  C   UNL     1       1.243  10.223  18.701  0.00  0.00    +0.000 A 
ATOM     20  C   UNL     1       0.927   9.810  19.993  0.00  0.00    +0.000 A 
ATOM     21  C   UNL     1       1.281   8.528  20.423  0.00  0.00    +0.000 A 
ENDBRANCH  15  16
ENDBRANCH  13  15
ENDBRANCH  10  13
BRANCH   1  22
ATOM     22  C   UNL     1       2.014   3.668  18.108  0.00  0.00    +0.000 C 
BRANCH  22  23
ATOM     23  C   UNL     1       2.078   2.537  19.138  0.00  0.00    +0.000 C 
BRANCH  23  25
ATOM     24  C   UNL     1       1.917   2.945  21.614  0.00  0.00    +0.000 C 
ATOM     25  C   UNL     1       1.138   2.789  20.316  0.00  0.00    +0.000 C 
ENDBRANCH  23  25
ENDBRANCH  22  23
ENDBRANCH   1  22
TORSDOF 6
ENDMDL
MODEL 9
REMARK VINA RESULT:      -6.9      2.691      5.457
REMARK  Name = 
REMARK  7 active torsions:
REMARK  status: ('A' for Active; 'I' for Inactive)
REMARK    1  A    between atoms: C_1  and  C_2
REMARK    2  A    between atoms: C_2  and  C_3
REMARK    3  A    between atoms: C_3  and  C_4
REMARK    4  A    between atoms: C_4  and  C_5
REMARK    5  A    between atoms: C_14  and  N_15
REMARK    6  A    between atoms: N_15  and  C_16
REMARK    7  A    between atoms: C_16  and  C_17
REMARK                            x       y       z     vdW  Elec       q    Type
REMARK                         _______ _______ _______ _____ _____    ______ ____
ROOT
ATOM      1  C   UNL     1       2.646   7.269  18.580  0.00  0.00    +0.000 A 
ATOM      2  N   UNL     1       2.259   8.508  18.119  0.00  0.00    +0.000 NA
ATOM      3  C   UNL     1       1.590   9.030  19.124  0.00  0.00    +0.000 A 
ATOM      4  C   UNL     1       0.921  10.317  19.154  0.00  0.00    +0.000 A 
ATOM      5  N   UNL     1       0.982  11.196  18.105  0.00  0.00    +0.000 N 
ATOM      6  N   UNL     1       0.200  10.663  20.199  0.00  0.00    +0.000 NA
ATOM      7  C   UNL     1       0.123   9.779  21.258  0.00  0.00    +0.000 A 
ATOM      8  C   UNL     1       0.734   8.582  21.297  0.00  0.00    +0.000 A 
ATOM      9  N   UNL     1       1.503   8.194  20.211  0.00  0.00    +0.000 N 
ATOM     10  C   UNL     1       2.228   7.054  19.892  0.00  0.00    +0.000 A 
ATOM     11  H   UNL     1       1.206  10.758  17.216  0.00  0.00    +0.000 HD
ATOM     12  H   UNL     1       0.205  11.843  18.082  0.00  0.00    +0.000 HD
ENDROOT
BRANCH  10  13
ATOM     13  N   UNL     1       2.374   5.942  20.670  0.00  0.00    +0.000 N 
ATOM     14  H   UNL     1       2.661   6.085  21.637  0.00  0.00    +0.000 HD
BRANCH  13  15
ATOM     15  C   UNL     1       1.545   4.750  20.551  0.00  0.00    +0.000 C 
BRANCH  15  16
ATOM     16  C   UNL     1       2.227   3.695  19.705  0.00  0.00    +0.000 A 
ATOM     17  C   UNL     1       3.353   3.029  20.209  0.00  0.00    +0.000 A 
ATOM     18  C   UNL     1       3.962   2.002  19.483  0.00  0.00    +0.000 A 
ATOM     19  C   UNL     1       3.450   1.623  18.245  0.00  0.00    +0.000 A 
ATOM     20  C   UNL     1       2.333   2.274  17.727  0.00  0.00    +0.000 A 
ATOM     21  C   UNL     1       1.722   3.299  18.454  0.00  0.00    +0.000 A 
ENDBRANCH  15  16
ENDBRANCH  13  15
ENDBRANCH  10  13
BRANCH   1  22
ATOM     22  C   UNL     1       3.396   6.348  17.677  0.00  0.00    +0.000 C 
BRANCH  22  23
ATOM     23  C   UNL     1       4.821   6.105  18.180  0.00  0.00    +0.000 C 
BRANCH  23  25
ATOM     24  C   UNL     1       4.876   4.537  16.215  0.00  0.00    +0.000 C 
ATOM     25  C   UNL     1       5.411   4.814  17.612  0.00  0.00    +0.000 C 
ENDBRANCH  23  25
ENDBRANCH  22  23
ENDBRANCH   1  22
TORSDOF 6
ENDMDL
