MODEL 1
REMARK VINA RESULT:      -7.5      0.000      0.000
REMARK  Name = 
REMARK  3 active torsions:
REMARK  status: ('A' for Active; 'I' for Inactive)
REMARK    1  A    between atoms: C_4  and  C_5
REMARK    2  A    between atoms: N_18  and  C_19
REMARK    3  A    between atoms: C_19  and  C_20
REMARK                            x       y       z     vdW  Elec       q    Type
REMARK                         _______ _______ _______ _____ _____    ______ ____
ROOT
ATOM      1  O   UNL     1       0.534   9.954  22.668  0.00  0.00    +0.000 OA
ATOM      2  C   UNL     1       0.555  10.243  21.477  0.00  0.00    +0.000 C 
ATOM      3  C   UNL     1       1.040   9.321  20.424  0.00  0.00    +0.000 C 
ATOM      4  C   UNL     1       1.660   8.159  20.684  0.00  0.00    +0.000 C 
ATOM      5  S   UNL     1       0.788  10.017  18.870  0.00  0.00    +0.000 S 
ATOM      6  C   UNL     1       0.423  11.592  19.564  0.00  0.00    +0.000 C 
ATOM      7  S   UNL     1       0.431  12.966  18.619  0.00  0.00    +0.000 S 
ATOM      8  N   UNL     1       0.220  11.470  20.922  0.00  0.00    +0.000 N 
ENDROOT
BRANCH   4   9
ATOM      9  C   UNL     1       2.200   7.259  19.705  0.00  0.00    +0.000 A 
ATOM     10  C   UNL     1       2.793   7.717  18.552  0.00  0.00    +0.000 A 
ATOM     11  S   UNL     1       3.312   6.441  17.548  0.00  0.00    +0.000 S 
ATOM     12  C   UNL     1       2.756   5.241  18.654  0.00  0.00    +0.000 A 
ATOM     13  C   UNL     1       2.833   3.845  18.486  0.00  0.00    +0.000 A 
ATOM     14  C   UNL     1       2.349   3.012  19.498  0.00  0.00    +0.000 A 
ATOM     15  C   UNL     1       1.807   3.560  20.650  0.00  0.00    +0.000 A 
ATOM     16 CL   UNL     1       1.227   2.521  21.894  0.00  0.00    +0.000 Cl
ATOM     17  C   UNL     1       1.720   4.946  20.813  0.00  0.00    +0.000 A 
ATOM     18  C   UNL     1       2.191   5.819  19.798  0.00  0.00    +0.000 A 
ENDBRANCH   4   9
BRANCH   8  19
ATOM     19  C   UNL     1      -0.230  12.557  21.804  0.00  0.00    +0.000 C 
BRANCH  19  20
ATOM     20  C   UNL     1      -1.730  12.550  22.012  0.00  0.00    +0.000 A 
ATOM     21  C   UNL     1      -2.600  12.868  20.959  0.00  0.00    +0.000 A 
ATOM     22  C   UNL     1      -3.976  12.980  21.181  0.00  0.00    +0.000 A 
ATOM     23  C   UNL     1      -4.499  12.771  22.455  0.00  0.00    +0.000 A 
ATOM     24  C   UNL     1      -3.654  12.397  23.497  0.00  0.00    +0.000 A 
ATOM     25  C   UNL     1      -2.281  12.278  23.274  0.00  0.00    +0.000 A 
ENDBRANCH  19  20
ENDBRANCH   8  19
TORSDOF 3
ENDMDL
MODEL 2
REMARK VINA RESULT:      -7.4      3.342      4.229
REMARK  Name = 
REMARK  3 active torsions:
REMARK  status: ('A' for Active; 'I' for Inactive)
REMARK    1  A    between atoms: C_4  and  C_5
REMARK    2  A    between atoms: N_18  and  C_19
REMARK    3  A    between atoms: C_19  and  C_20
REMARK                            x       y       z     vdW  Elec       q    Type
REMARK                         _______ _______ _______ _____ _____    ______ ____
ROOT
ATOM      1  O   UNL     1       1.433  10.344  17.483  0.00  0.00    +0.000 OA
ATOM      2  C   UNL     1       1.334   9.713  18.529  0.00  0.00    +0.000 C 
ATOM      3  C   UNL     1       1.956   8.385  18.740  0.00  0.00    +0.000 C 
ATOM      4  C   UNL     1       2.535   7.673  17.760  0.00  0.00    +0.000 C 
ATOM      5  S   UNL     1       1.719   7.876  20.367  0.00  0.00    +0.000 S 
ATOM      6  C   UNL     1       0.538   9.147  20.660  0.00  0.00    +0.000 C 
ATOM      7  S   UNL     1      -0.477   9.084  21.981  0.00  0.00    +0.000 S 
ATOM      8  N   UNL     1       0.581  10.071  19.637  0.00  0.00    +0.000 N 
ENDROOT
BRANCH   4   9
ATOM      9  C   UNL     1       3.099   6.360  17.898  0.00  0.00    +0.000 A 
ATOM     10  C   UNL     1       2.312   5.233  17.911  0.00  0.00    +0.000 A 
ATOM     11  S   UNL     1       3.230   3.813  18.125  0.00  0.00    +0.000 S 
ATOM     12  C   UNL     1       4.713   4.690  18.196  0.00  0.00    +0.000 A 
ATOM     13  C   UNL     1       5.998   4.148  18.387  0.00  0.00    +0.000 A 
ATOM     14  C   UNL     1       7.101   5.006  18.398  0.00  0.00    +0.000 A 
ATOM     15  C   UNL     1       6.924   6.368  18.218  0.00  0.00    +0.000 A 
ATOM     16 CL   UNL     1       8.293   7.413  18.221  0.00  0.00    +0.000 Cl
ATOM     17  C   UNL     1       5.646   6.909  18.041  0.00  0.00    +0.000 A 
ATOM     18  C   UNL     1       4.505   6.065  18.036  0.00  0.00    +0.000 A 
ENDBRANCH   4   9
BRANCH   8  19
ATOM     19  C   UNL     1      -0.175  11.331  19.614  0.00  0.00    +0.000 C 
BRANCH  19  20
ATOM     20  C   UNL     1      -1.536  11.178  18.968  0.00  0.00    +0.000 A 
ATOM     21  C   UNL     1      -2.583  12.055  19.288  0.00  0.00    +0.000 A 
ATOM     22  C   UNL     1      -3.871  11.841  18.786  0.00  0.00    +0.000 A 
ATOM     23  C   UNL     1      -4.126  10.751  17.956  0.00  0.00    +0.000 A 
ATOM     24  C   UNL     1      -3.084   9.905  17.584  0.00  0.00    +0.000 A 
ATOM     25  C   UNL     1      -1.797  10.124  18.078  0.00  0.00    +0.000 A 
ENDBRANCH  19  20
ENDBRANCH   8  19
TORSDOF 3
ENDMDL
MODEL 3
REMARK VINA RESULT:      -7.4      3.005      3.752
REMARK  Name = 
REMARK  3 active torsions:
REMARK  status: ('A' for Active; 'I' for Inactive)
REMARK    1  A    between atoms: C_4  and  C_5
REMARK    2  A    between atoms: N_18  and  C_19
REMARK    3  A    between atoms: C_19  and  C_20
REMARK                            x       y       z     vdW  Elec       q    Type
REMARK                         _______ _______ _______ _____ _____    ______ ____
ROOT
ATOM      1  O   UNL     1       2.017  10.196  17.274  0.00  0.00    +0.000 OA
ATOM      2  C   UNL     1       1.880   9.502  18.276  0.00  0.00    +0.000 C 
ATOM      3  C   UNL     1       2.607   8.229  18.490  0.00  0.00    +0.000 C 
ATOM      4  C   UNL     1       3.345   7.628  17.543  0.00  0.00    +0.000 C 
ATOM      5  S   UNL     1       2.265   7.614  20.060  0.00  0.00    +0.000 S 
ATOM      6  C   UNL     1       0.942   8.751  20.288  0.00  0.00    +0.000 C 
ATOM      7  S   UNL     1      -0.185   8.522  21.496  0.00  0.00    +0.000 S 
ATOM      8  N   UNL     1       0.992   9.729  19.317  0.00  0.00    +0.000 N 
ENDROOT
BRANCH   4   9
ATOM      9  C   UNL     1       4.019   6.369  17.680  0.00  0.00    +0.000 A 
ATOM     10  C   UNL     1       5.383   6.262  17.551  0.00  0.00    +0.000 A 
ATOM     11  S   UNL     1       5.919   4.652  17.721  0.00  0.00    +0.000 S 
ATOM     12  C   UNL     1       4.318   4.066  17.982  0.00  0.00    +0.000 A 
ATOM     13  C   UNL     1       3.942   2.727  18.199  0.00  0.00    +0.000 A 
ATOM     14  C   UNL     1       2.594   2.428  18.415  0.00  0.00    +0.000 A 
ATOM     15  C   UNL     1       1.649   3.441  18.419  0.00  0.00    +0.000 A 
ATOM     16 CL   UNL     1      -0.007   3.060  18.700  0.00  0.00    +0.000 Cl
ATOM     17  C   UNL     1       2.021   4.770  18.192  0.00  0.00    +0.000 A 
ATOM     18  C   UNL     1       3.380   5.105  17.958  0.00  0.00    +0.000 A 
ENDBRANCH   4   9
BRANCH   8  19
ATOM     19  C   UNL     1       0.122  10.912  19.273  0.00  0.00    +0.000 C 
BRANCH  19  20
ATOM     20  C   UNL     1      -1.179  10.647  18.544  0.00  0.00    +0.000 A 
ATOM     21  C   UNL     1      -1.222   9.766  17.454  0.00  0.00    +0.000 A 
ATOM     22  C   UNL     1      -2.393   9.614  16.706  0.00  0.00    +0.000 A 
ATOM     23  C   UNL     1      -3.537  10.336  17.042  0.00  0.00    +0.000 A 
ATOM     24  C   UNL     1      -3.526  11.170  18.157  0.00  0.00    +0.000 A 
ATOM     25  C   UNL     1      -2.359  11.316  18.908  0.00  0.00    +0.000 A 
ENDBRANCH  19  20
ENDBRANCH   8  19
TORSDOF 3
ENDMDL
MODEL 4
REMARK VINA RESULT:      -7.3      3.191      3.796
REMARK  Name = 
REMARK  3 active torsions:
REMARK  status: ('A' for Active; 'I' for Inactive)
REMARK    1  A    between atoms: C_4  and  C_5
REMARK    2  A    between atoms: N_18  and  C_19
REMARK    3  A    between atoms: C_19  and  C_20
REMARK                            x       y       z     vdW  Elec       q    Type
REMARK                         _______ _______ _______ _____ _____    ______ ____
ROOT
ATOM      1  O   UNL     1       1.511   9.758  17.297  0.00  0.00    +0.000 OA
ATOM      2  C   UNL     1       1.507   9.195  18.387  0.00  0.00    +0.000 C 
ATOM      3  C   UNL     1       2.358   8.024  18.700  0.00  0.00    +0.000 C 
ATOM      4  C   UNL     1       3.077   7.362  17.780  0.00  0.00    +0.000 C 
ATOM      5  S   UNL     1       2.184   7.598  20.359  0.00  0.00    +0.000 S 
ATOM      6  C   UNL     1       0.785   8.648  20.549  0.00  0.00    +0.000 C 
ATOM      7  S   UNL     1      -0.228   8.494  21.864  0.00  0.00    +0.000 S 
ATOM      8  N   UNL     1       0.679   9.488  19.460  0.00  0.00    +0.000 N 
ENDROOT
BRANCH   4   9
ATOM      9  C   UNL     1       3.869   6.189  18.020  0.00  0.00    +0.000 A 
ATOM     10  C   UNL     1       5.243   6.233  18.024  0.00  0.00    +0.000 A 
ATOM     11  S   UNL     1       5.932   4.697  18.295  0.00  0.00    +0.000 S 
ATOM     12  C   UNL     1       4.388   3.941  18.423  0.00  0.00    +0.000 A 
ATOM     13  C   UNL     1       4.141   2.573  18.646  0.00  0.00    +0.000 A 
ATOM     14  C   UNL     1       2.819   2.129  18.743  0.00  0.00    +0.000 A 
ATOM     15  C   UNL     1       1.773   3.031  18.627  0.00  0.00    +0.000 A 
ATOM     16 CL   UNL     1       0.150   2.472  18.762  0.00  0.00    +0.000 Cl
ATOM     17  C   UNL     1       2.018   4.388  18.393  0.00  0.00    +0.000 A 
ATOM     18  C   UNL     1       3.348   4.867  18.277  0.00  0.00    +0.000 A 
ENDBRANCH   4   9
BRANCH   8  19
ATOM     19  C   UNL     1      -0.294  10.583  19.338  0.00  0.00    +0.000 C 
BRANCH  19  20
ATOM     20  C   UNL     1       0.346  11.946  19.497  0.00  0.00    +0.000 A 
ATOM     21  C   UNL     1       1.178  12.223  20.593  0.00  0.00    +0.000 A 
ATOM     22  C   UNL     1       1.670  13.514  20.805  0.00  0.00    +0.000 A 
ATOM     23  C   UNL     1       1.342  14.542  19.923  0.00  0.00    +0.000 A 
ATOM     24  C   UNL     1       0.566  14.269  18.800  0.00  0.00    +0.000 A 
ATOM     25  C   UNL     1       0.081  12.978  18.583  0.00  0.00    +0.000 A 
ENDBRANCH  19  20
ENDBRANCH   8  19
TORSDOF 3
ENDMDL
MODEL 5
REMARK VINA RESULT:      -7.3      3.072      3.845
REMARK  Name = 
REMARK  3 active torsions:
REMARK  status: ('A' for Active; 'I' for Inactive)
REMARK    1  A    between atoms: C_4  and  C_5
REMARK    2  A    between atoms: N_18  and  C_19
REMARK    3  A    between atoms: C_19  and  C_20
REMARK                            x       y       z     vdW  Elec       q    Type
REMARK                         _______ _______ _______ _____ _____    ______ ____
ROOT
ATOM      1  O   UNL     1       1.493  10.464  17.495  0.00  0.00    +0.000 OA
ATOM      2  C   UNL     1       1.381   9.872  18.562  0.00  0.00    +0.000 C 
ATOM      3  C   UNL     1       1.875   8.493  18.784  0.00  0.00    +0.000 C 
ATOM      4  C   UNL     1       2.331   7.702  17.800  0.00  0.00    +0.000 C 
ATOM      5  S   UNL     1       1.666   8.051  20.434  0.00  0.00    +0.000 S 
ATOM      6  C   UNL     1       0.636   9.443  20.743  0.00  0.00    +0.000 C 
ATOM      7  S   UNL     1      -0.316   9.516  22.111  0.00  0.00    +0.000 S 
ATOM      8  N   UNL     1       0.722  10.332  19.693  0.00  0.00    +0.000 N 
ENDROOT
BRANCH   4   9
ATOM      9  C   UNL     1       2.765   6.342  17.951  0.00  0.00    +0.000 A 
ATOM     10  C   UNL     1       1.870   5.300  18.010  0.00  0.00    +0.000 A 
ATOM     11  S   UNL     1       2.648   3.799  18.229  0.00  0.00    +0.000 S 
ATOM     12  C   UNL     1       4.213   4.524  18.239  0.00  0.00    +0.000 A 
ATOM     13  C   UNL     1       5.443   3.859  18.404  0.00  0.00    +0.000 A 
ATOM     14  C   UNL     1       6.626   4.603  18.365  0.00  0.00    +0.000 A 
ATOM     15  C   UNL     1       6.580   5.973  18.160  0.00  0.00    +0.000 A 
ATOM     16 CL   UNL     1       8.046   6.874  18.101  0.00  0.00    +0.000 Cl
ATOM     17  C   UNL     1       5.357   6.635  18.008  0.00  0.00    +0.000 A 
ATOM     18  C   UNL     1       4.138   5.910  18.055  0.00  0.00    +0.000 A 
ENDBRANCH   4   9
BRANCH   8  19
ATOM     19  C   UNL     1       0.098  11.663  19.668  0.00  0.00    +0.000 C 
BRANCH  19  20
ATOM     20  C   UNL     1      -1.381  11.601  19.345  0.00  0.00    +0.000 A 
ATOM     21  C   UNL     1      -1.847  10.834  18.267  0.00  0.00    +0.000 A 
ATOM     22  C   UNL     1      -3.194  10.873  17.894  0.00  0.00    +0.000 A 
ATOM     23  C   UNL     1      -4.092  11.674  18.596  0.00  0.00    +0.000 A 
ATOM     24  C   UNL     1      -3.655  12.396  19.704  0.00  0.00    +0.000 A 
ATOM     25  C   UNL     1      -2.311  12.351  20.081  0.00  0.00    +0.000 A 
ENDBRANCH  19  20
ENDBRANCH   8  19
TORSDOF 3
ENDMDL
MODEL 6
REMARK VINA RESULT:      -7.3      3.703      8.163
REMARK  Name = 
REMARK  3 active torsions:
REMARK  status: ('A' for Active; 'I' for Inactive)
REMARK    1  A    between atoms: C_4  and  C_5
REMARK    2  A    between atoms: N_18  and  C_19
REMARK    3  A    between atoms: C_19  and  C_20
REMARK                            x       y       z     vdW  Elec       q    Type
REMARK                         _______ _______ _______ _____ _____    ______ ____
ROOT
ATOM      1  O   UNL     1       1.543   7.017  21.166  0.00  0.00    +0.000 OA
ATOM      2  C   UNL     1       1.977   7.464  20.110  0.00  0.00    +0.000 C 
ATOM      3  C   UNL     1       1.440   8.682  19.460  0.00  0.00    +0.000 C 
ATOM      4  C   UNL     1       0.325   9.309  19.867  0.00  0.00    +0.000 C 
ATOM      5  S   UNL     1       2.386   9.077  18.077  0.00  0.00    +0.000 S 
ATOM      6  C   UNL     1       3.207   7.521  18.115  0.00  0.00    +0.000 C 
ATOM      7  S   UNL     1       4.065   6.975  16.794  0.00  0.00    +0.000 S 
ATOM      8  N   UNL     1       2.957   6.889  19.315  0.00  0.00    +0.000 N 
ENDROOT
BRANCH   4   9
ATOM      9  C   UNL     1      -0.269  10.455  19.239  0.00  0.00    +0.000 A 
ATOM     10  C   UNL     1      -1.373  10.343  18.427  0.00  0.00    +0.000 A 
ATOM     11  S   UNL     1      -1.849  11.848  17.782  0.00  0.00    +0.000 S 
ATOM     12  C   UNL     1      -0.577  12.685  18.593  0.00  0.00    +0.000 A 
ATOM     13  C   UNL     1      -0.304  14.064  18.522  0.00  0.00    +0.000 A 
ATOM     14  C   UNL     1       0.760  14.583  19.265  0.00  0.00    +0.000 A 
ATOM     15  C   UNL     1       1.526  13.747  20.061  0.00  0.00    +0.000 A 
ATOM     16 CL   UNL     1       2.825  14.402  20.981  0.00  0.00    +0.000 Cl
ATOM     17  C   UNL     1       1.262  12.375  20.123  0.00  0.00    +0.000 A 
ATOM     18  C   UNL     1       0.196  11.815  19.371  0.00  0.00    +0.000 A 
ENDBRANCH   4   9
BRANCH   8  19
ATOM     19  C   UNL     1       3.583   5.630  19.745  0.00  0.00    +0.000 C 
BRANCH  19  20
ATOM     20  C   UNL     1       2.641   4.449  19.638  0.00  0.00    +0.000 A 
ATOM     21  C   UNL     1       2.123   4.057  18.395  0.00  0.00    +0.000 A 
ATOM     22  C   UNL     1       1.161   3.046  18.311  0.00  0.00    +0.000 A 
ATOM     23  C   UNL     1       0.708   2.413  19.467  0.00  0.00    +0.000 A 
ATOM     24  C   UNL     1       1.255   2.752  20.701  0.00  0.00    +0.000 A 
ATOM     25  C   UNL     1       2.222   3.756  20.785  0.00  0.00    +0.000 A 
ENDBRANCH  19  20
ENDBRANCH   8  19
TORSDOF 3
ENDMDL
MODEL 7
REMARK VINA RESULT:      -7.3      1.490      1.851
REMARK  Name = 
REMARK  3 active torsions:
REMARK  status: ('A' for Active; 'I' for Inactive)
REMARK    1  A    between atoms: C_4  and  C_5
REMARK    2  A    between atoms: N_18  and  C_19
REMARK    3  A    between atoms: C_19  and  C_20
REMARK                            x       y       z     vdW  Elec       q    Type
REMARK                         _______ _______ _______ _____ _____    ______ ____
ROOT
ATOM      1  O   UNL     1       0.143   9.140  21.280  0.00  0.00    +0.000 OA
ATOM      2  C   UNL     1       0.665   9.656  20.299  0.00  0.00    +0.000 C 
ATOM      3  C   UNL     1       1.503   8.907  19.334  0.00  0.00    +0.000 C 
ATOM      4  C   UNL     1       1.913   7.644  19.532  0.00  0.00    +0.000 C 
ATOM      5  S   UNL     1       1.943   9.929  18.020  0.00  0.00    +0.000 S 
ATOM      6  C   UNL     1       1.388  11.367  18.869  0.00  0.00    +0.000 C 
ATOM      7  S   UNL     1       1.841  12.888  18.359  0.00  0.00    +0.000 S 
ATOM      8  N   UNL     1       0.638  11.003  19.967  0.00  0.00    +0.000 N 
ENDROOT
BRANCH   4   9
ATOM      9  C   UNL     1       2.772   6.895  18.659  0.00  0.00    +0.000 A 
ATOM     10  C   UNL     1       3.841   7.479  18.021  0.00  0.00    +0.000 A 
ATOM     11  S   UNL     1       4.668   6.377  17.018  0.00  0.00    +0.000 S 
ATOM     12  C   UNL     1       3.605   5.084  17.431  0.00  0.00    +0.000 A 
ATOM     13  C   UNL     1       3.661   3.765  16.942  0.00  0.00    +0.000 A 
ATOM     14  C   UNL     1       2.728   2.832  17.401  0.00  0.00    +0.000 A 
ATOM     15  C   UNL     1       1.769   3.205  18.329  0.00  0.00    +0.000 A 
ATOM     16 CL   UNL     1       0.633   2.042  18.895  0.00  0.00    +0.000 Cl
ATOM     17  C   UNL     1       1.706   4.519  18.806  0.00  0.00    +0.000 A 
ATOM     18  C   UNL     1       2.632   5.493  18.351  0.00  0.00    +0.000 A 
ENDBRANCH   4   9
BRANCH   8  19
ATOM     19  C   UNL     1      -0.091  11.941  20.832  0.00  0.00    +0.000 C 
BRANCH  19  20
ATOM     20  C   UNL     1      -1.556  12.048  20.465  0.00  0.00    +0.000 A 
ATOM     21  C   UNL     1      -2.008  11.644  19.200  0.00  0.00    +0.000 A 
ATOM     22  C   UNL     1      -3.337  11.854  18.818  0.00  0.00    +0.000 A 
ATOM     23  C   UNL     1      -4.229  12.467  19.695  0.00  0.00    +0.000 A 
ATOM     24  C   UNL     1      -3.809  12.820  20.975  0.00  0.00    +0.000 A 
ATOM     25  C   UNL     1      -2.485  12.602  21.360  0.00  0.00    +0.000 A 
ENDBRANCH  19  20
ENDBRANCH   8  19
TORSDOF 3
ENDMDL
MODEL 8
REMARK VINA RESULT:      -7.3      3.481      4.536
REMARK  Name = 
REMARK  3 active torsions:
REMARK  status: ('A' for Active; 'I' for Inactive)
REMARK    1  A    between atoms: C_4  and  C_5
REMARK    2  A    between atoms: N_18  and  C_19
REMARK    3  A    between atoms: C_19  and  C_20
REMARK                            x       y       z     vdW  Elec       q    Type
REMARK                         _______ _______ _______ _____ _____    ______ ____
ROOT
ATOM      1  O   UNL     1       0.804  10.138  17.624  0.00  0.00    +0.000 OA
ATOM      2  C   UNL     1       0.930   9.603  18.720  0.00  0.00    +0.000 C 
ATOM      3  C   UNL     1       1.704   8.359  18.934  0.00  0.00    +0.000 C 
ATOM      4  C   UNL     1       2.192   7.607  17.934  0.00  0.00    +0.000 C 
ATOM      5  S   UNL     1       1.773   7.990  20.614  0.00  0.00    +0.000 S 
ATOM      6  C   UNL     1       0.533   9.180  20.991  0.00  0.00    +0.000 C 
ATOM      7  S   UNL     1      -0.254   9.159  22.461  0.00  0.00    +0.000 S 
ATOM      8  N   UNL     1       0.326  10.002  19.903  0.00  0.00    +0.000 N 
ENDROOT
BRANCH   4   9
ATOM      9  C   UNL     1       2.896   6.366  18.085  0.00  0.00    +0.000 A 
ATOM     10  C   UNL     1       2.237   5.189  18.351  0.00  0.00    +0.000 A 
ATOM     11  S   UNL     1       3.312   3.876  18.519  0.00  0.00    +0.000 S 
ATOM     12  C   UNL     1       4.691   4.869  18.227  0.00  0.00    +0.000 A 
ATOM     13  C   UNL     1       6.036   4.453  18.220  0.00  0.00    +0.000 A 
ATOM     14  C   UNL     1       7.035   5.391  17.942  0.00  0.00    +0.000 A 
ATOM     15  C   UNL     1       6.697   6.707  17.673  0.00  0.00    +0.000 A 
ATOM     16 CL   UNL     1       7.936   7.849  17.320  0.00  0.00    +0.000 Cl
ATOM     17  C   UNL     1       5.361   7.123  17.691  0.00  0.00    +0.000 A 
ATOM     18  C   UNL     1       4.325   6.198  17.981  0.00  0.00    +0.000 A 
ENDBRANCH   4   9
BRANCH   8  19
ATOM     19  C   UNL     1      -0.544  11.187  19.901  0.00  0.00    +0.000 C 
BRANCH  19  20
ATOM     20  C   UNL     1       0.240  12.479  19.797  0.00  0.00    +0.000 A 
ATOM     21  C   UNL     1       1.353  12.710  20.619  0.00  0.00    +0.000 A 
ATOM     22  C   UNL     1       2.001  13.948  20.609  0.00  0.00    +0.000 A 
ATOM     23  C   UNL     1       1.549  14.969  19.775  0.00  0.00    +0.000 A 
ATOM     24  C   UNL     1       0.482  14.735  18.912  0.00  0.00    +0.000 A 
ATOM     25  C   UNL     1      -0.161  13.496  18.916  0.00  0.00    +0.000 A 
ENDBRANCH  19  20
ENDBRANCH   8  19
TORSDOF 3
ENDMDL
MODEL 9
REMARK VINA RESULT:      -7.2      3.828      8.763
REMARK  Name = 
REMARK  3 active torsions:
REMARK  status: ('A' for Active; 'I' for Inactive)
REMARK    1  A    between atoms: C_4  and  C_5
REMARK    2  A    between atoms: N_18  and  C_19
REMARK    3  A    between atoms: C_19  and  C_20
REMARK                            x       y       z     vdW  Elec       q    Type
REMARK                         _______ _______ _______ _____ _____    ______ ____
ROOT
ATOM      1  O   UNL     1       3.176   8.178  16.704  0.00  0.00    +0.000 OA
ATOM      2  C   UNL     1       2.689   7.787  17.759  0.00  0.00    +0.000 C 
ATOM      3  C   UNL     1       1.824   8.629  18.618  0.00  0.00    +0.000 C 
ATOM      4  C   UNL     1       1.634   9.943  18.417  0.00  0.00    +0.000 C 
ATOM      5  S   UNL     1       1.220   7.700  19.935  0.00  0.00    +0.000 S 
ATOM      6  C   UNL     1       2.340   6.385  19.604  0.00  0.00    +0.000 C 
ATOM      7  S   UNL     1       2.631   5.202  20.744  0.00  0.00    +0.000 S 
ATOM      8  N   UNL     1       2.916   6.560  18.364  0.00  0.00    +0.000 N 
ENDROOT
BRANCH   4   9
ATOM      9  C   UNL     1       0.855  10.814  19.251  0.00  0.00    +0.000 A 
ATOM     10  C   UNL     1       1.402  11.450  20.341  0.00  0.00    +0.000 A 
ATOM     11  S   UNL     1       0.252  12.392  21.176  0.00  0.00    +0.000 S 
ATOM     12  C   UNL     1      -1.007  11.968  20.077  0.00  0.00    +0.000 A 
ATOM     13  C   UNL     1      -2.350  12.388  20.139  0.00  0.00    +0.000 A 
ATOM     14  C   UNL     1      -3.240  11.964  19.149  0.00  0.00    +0.000 A 
ATOM     15  C   UNL     1      -2.798  11.146  18.121  0.00  0.00    +0.000 A 
ATOM     16 CL   UNL     1      -3.902  10.641  16.900  0.00  0.00    +0.000 Cl
ATOM     17  C   UNL     1      -1.467  10.719  18.065  0.00  0.00    +0.000 A 
ATOM     18  C   UNL     1      -0.542  11.123  19.063  0.00  0.00    +0.000 A 
ENDBRANCH   4   9
BRANCH   8  19
ATOM     19  C   UNL     1       3.802   5.589  17.706  0.00  0.00    +0.000 C 
BRANCH  19  20
ATOM     20  C   UNL     1       5.266   5.857  17.992  0.00  0.00    +0.000 A 
ATOM     21  C   UNL     1       5.892   5.290  19.112  0.00  0.00    +0.000 A 
ATOM     22  C   UNL     1       7.207   5.633  19.442  0.00  0.00    +0.000 A 
ATOM     23  C   UNL     1       7.912   6.542  18.656  0.00  0.00    +0.000 A 
ATOM     24  C   UNL     1       7.323   7.067  17.509  0.00  0.00    +0.000 A 
ATOM     25  C   UNL     1       6.013   6.719  17.174  0.00  0.00    +0.000 A 
ENDBRANCH  19  20
ENDBRANCH   8  19
TORSDOF 3
ENDMDL
