MODEL 1
REMARK VINA RESULT:      -7.8      0.000      0.000
REMARK  Name = 
REMARK  7 active torsions:
REMARK  status: ('A' for Active; 'I' for Inactive)
REMARK    1  A    between atoms: C_1  and  C_2
REMARK    2  A    between atoms: C_2  and  C_3
REMARK    3  A    between atoms: C_2  and  C_4
REMARK    4  A    between atoms: C_4  and  C_5
REMARK    5  A    between atoms: C_5  and  N_6
REMARK    6  A    between atoms: C_13  and  C_14
REMARK    7  A    between atoms: C_14  and  C_15
REMARK                            x       y       z     vdW  Elec       q    Type
REMARK                         _______ _______ _______ _____ _____    ______ ____
ROOT
ATOM      1  N   UNL     1       1.804   7.139  19.421  0.00  0.00    +0.000 NA
ATOM      2  C   UNL     1       2.444   7.553  18.139  0.00  0.00    +0.000 C 
ATOM      3  C   UNL     1       2.073   8.938  17.558  0.00  0.00    +0.000 C 
ATOM      4  C   UNL     1       2.113   9.972  18.679  0.00  0.00    +0.000 C 
ATOM      5  C   UNL     1       1.964  11.458  18.213  0.00  0.00    +0.000 C 
ATOM      6  C   UNL     1       0.718  12.192  18.726  0.00  0.00    +0.000 C 
ATOM      7  O   UNL     1       0.634  13.413  18.726  0.00  0.00    +0.000 OA
ATOM      8  C   UNL     1      -0.338  11.254  19.251  0.00  0.00    +0.000 C 
ATOM      9  C   UNL     1       0.383  10.550  20.437  0.00  0.00    +0.000 C 
ATOM     10  C   UNL     1      -0.427  10.072  21.636  0.00  0.00    +0.000 C 
ATOM     11  C   UNL     1       0.404   9.085  22.464  0.00  0.00    +0.000 C 
ATOM     12  C   UNL     1       0.788   7.860  21.637  0.00  0.00    +0.000 C 
ATOM     13  C   UNL     1       1.689   8.225  20.441  0.00  0.00    +0.000 C 
ATOM     14  C   UNL     1       1.083   9.414  19.700  0.00  0.00    +0.000 C 
ENDROOT
BRANCH   1  15
ATOM     15  C   UNL     1       2.451   5.926  19.961  0.00  0.00    +0.000 C 
BRANCH  15  16
ATOM     16  C   UNL     1       2.101   4.663  19.155  0.00  0.00    +0.000 C 
BRANCH  16  18
ATOM     17  C   UNL     1       0.832   2.517  18.961  0.00  0.00    +0.000 C 
ATOM     18  C   UNL     1       1.082   3.740  19.848  0.00  0.00    +0.000 C 
ATOM     19  C   UNL     1       1.549   3.285  21.232  0.00  0.00    +0.000 C 
ENDBRANCH  16  18
ENDBRANCH  15  16
ENDBRANCH   1  15
BRANCH   8  20
ATOM     20  C   UNL     1      -1.832  11.476  19.170  0.00  0.00    +0.000 C 
BRANCH  20  21
ATOM     21  C   UNL     1      -2.591  11.073  17.956  0.00  0.00    +0.000 A 
ATOM     22  C   UNL     1      -3.848  11.623  17.689  0.00  0.00    +0.000 A 
ATOM     23  C   UNL     1      -4.516  11.312  16.524  0.00  0.00    +0.000 A 
ATOM     24  C   UNL     1      -3.934  10.451  15.596  0.00  0.00    +0.000 A 
ATOM     25  C   UNL     1      -2.668   9.920  15.830  0.00  0.00    +0.000 A 
ATOM     26  C   UNL     1      -1.995  10.233  17.004  0.00  0.00    +0.000 A 
ENDBRANCH  20  21
ENDBRANCH   8  20
TORSDOF 5
ENDMDL
MODEL 2
REMARK VINA RESULT:      -7.4      0.406      1.233
REMARK  Name = 
REMARK  7 active torsions:
REMARK  status: ('A' for Active; 'I' for Inactive)
REMARK    1  A    between atoms: C_1  and  C_2
REMARK    2  A    between atoms: C_2  and  C_3
REMARK    3  A    between atoms: C_2  and  C_4
REMARK    4  A    between atoms: C_4  and  C_5
REMARK    5  A    between atoms: C_5  and  N_6
REMARK    6  A    between atoms: C_13  and  C_14
REMARK    7  A    between atoms: C_14  and  C_15
REMARK                            x       y       z     vdW  Elec       q    Type
REMARK                         _______ _______ _______ _____ _____    ______ ____
ROOT
ATOM      1  N   UNL     1       1.814   7.113  19.528  0.00  0.00    +0.000 NA
ATOM      2  C   UNL     1       2.468   7.471  18.237  0.00  0.00    +0.000 C 
ATOM      3  C   UNL     1       2.122   8.840  17.604  0.00  0.00    +0.000 C 
ATOM      4  C   UNL     1       2.172   9.913  18.689  0.00  0.00    +0.000 C 
ATOM      5  C   UNL     1       2.049  11.384  18.169  0.00  0.00    +0.000 C 
ATOM      6  C   UNL     1       0.812  12.154  18.648  0.00  0.00    +0.000 C 
ATOM      7  O   UNL     1       0.747  13.375  18.605  0.00  0.00    +0.000 OA
ATOM      8  C   UNL     1      -0.262  11.252  19.198  0.00  0.00    +0.000 C 
ATOM      9  C   UNL     1       0.441  10.579  20.414  0.00  0.00    +0.000 C 
ATOM     10  C   UNL     1      -0.385  10.156  21.623  0.00  0.00    +0.000 C 
ATOM     11  C   UNL     1       0.426   9.187  22.492  0.00  0.00    +0.000 C 
ATOM     12  C   UNL     1       0.795   7.928  21.710  0.00  0.00    +0.000 C 
ATOM     13  C   UNL     1       1.709   8.236  20.508  0.00  0.00    +0.000 C 
ATOM     14  C   UNL     1       1.127   9.407  19.722  0.00  0.00    +0.000 C 
ENDROOT
BRANCH   1  15
ATOM     15  C   UNL     1       2.439   5.910  20.115  0.00  0.00    +0.000 C 
BRANCH  15  16
ATOM     16  C   UNL     1       1.414   4.804  20.422  0.00  0.00    +0.000 C 
BRANCH  16  18
ATOM     17  C   UNL     1       2.139   2.685  21.534  0.00  0.00    +0.000 C 
ATOM     18  C   UNL     1       1.941   3.377  20.183  0.00  0.00    +0.000 C 
ATOM     19  C   UNL     1       1.000   2.543  19.311  0.00  0.00    +0.000 C 
ENDBRANCH  16  18
ENDBRANCH  15  16
ENDBRANCH   1  15
BRANCH   8  20
ATOM     20  C   UNL     1      -1.751  11.495  19.100  0.00  0.00    +0.000 C 
BRANCH  20  21
ATOM     21  C   UNL     1      -2.490  11.164  17.852  0.00  0.00    +0.000 A 
ATOM     22  C   UNL     1      -1.929  10.305  16.901  0.00  0.00    +0.000 A 
ATOM     23  C   UNL     1      -2.646   9.934  15.784  0.00  0.00    +0.000 A 
ATOM     24  C   UNL     1      -3.944  10.405  15.600  0.00  0.00    +0.000 A 
ATOM     25  C   UNL     1      -4.530  11.235  16.553  0.00  0.00    +0.000 A 
ATOM     26  C   UNL     1      -3.808  11.610  17.679  0.00  0.00    +0.000 A 
ENDBRANCH  20  21
ENDBRANCH   8  20
TORSDOF 5
ENDMDL
MODEL 3
REMARK VINA RESULT:      -7.4      0.957      1.242
REMARK  Name = 
REMARK  7 active torsions:
REMARK  status: ('A' for Active; 'I' for Inactive)
REMARK    1  A    between atoms: C_1  and  C_2
REMARK    2  A    between atoms: C_2  and  C_3
REMARK    3  A    between atoms: C_2  and  C_4
REMARK    4  A    between atoms: C_4  and  C_5
REMARK    5  A    between atoms: C_5  and  N_6
REMARK    6  A    between atoms: C_13  and  C_14
REMARK    7  A    between atoms: C_14  and  C_15
REMARK                            x       y       z     vdW  Elec       q    Type
REMARK                         _______ _______ _______ _____ _____    ______ ____
ROOT
ATOM      1  N   UNL     1       1.916   7.301  19.291  0.00  0.00    +0.000 NA
ATOM      2  C   UNL     1       2.539   7.789  18.027  0.00  0.00    +0.000 C 
ATOM      3  C   UNL     1       2.121   9.185  17.505  0.00  0.00    +0.000 C 
ATOM      4  C   UNL     1       2.130  10.172  18.670  0.00  0.00    +0.000 C 
ATOM      5  C   UNL     1       1.932  11.670  18.266  0.00  0.00    +0.000 C 
ATOM      6  C   UNL     1       0.664  12.341  18.811  0.00  0.00    +0.000 C 
ATOM      7  O   UNL     1       0.540  13.557  18.863  0.00  0.00    +0.000 OA
ATOM      8  C   UNL     1      -0.360  11.347  19.297  0.00  0.00    +0.000 C 
ATOM      9  C   UNL     1       0.386  10.618  20.452  0.00  0.00    +0.000 C 
ATOM     10  C   UNL     1      -0.405  10.063  21.630  0.00  0.00    +0.000 C 
ATOM     11  C   UNL     1       0.459   9.070  22.415  0.00  0.00    +0.000 C 
ATOM     12  C   UNL     1       0.881   7.894  21.536  0.00  0.00    +0.000 C 
ATOM     13  C   UNL     1       1.767   8.339  20.356  0.00  0.00    +0.000 C 
ATOM     14  C   UNL     1       1.122   9.537  19.666  0.00  0.00    +0.000 C 
ENDROOT
BRANCH   1  15
ATOM     15  C   UNL     1       2.604   6.088  19.779  0.00  0.00    +0.000 C 
BRANCH  15  16
ATOM     16  C   UNL     1       3.607   5.528  18.755  0.00  0.00    +0.000 C 
BRANCH  16  18
ATOM     17  C   UNL     1       1.809   4.095  17.771  0.00  0.00    +0.000 C 
ATOM     18  C   UNL     1       3.263   4.115  18.250  0.00  0.00    +0.000 C 
ATOM     19  C   UNL     1       4.184   3.658  17.116  0.00  0.00    +0.000 C 
ENDBRANCH  16  18
ENDBRANCH  15  16
ENDBRANCH   1  15
BRANCH   8  20
ATOM     20  C   UNL     1      -1.860  11.524  19.227  0.00  0.00    +0.000 C 
BRANCH  20  21
ATOM     21  C   UNL     1      -2.614  11.112  18.012  0.00  0.00    +0.000 A 
ATOM     22  C   UNL     1      -3.893  11.619  17.763  0.00  0.00    +0.000 A 
ATOM     23  C   UNL     1      -4.557  11.302  16.598  0.00  0.00    +0.000 A 
ATOM     24  C   UNL     1      -3.951  10.479  15.652  0.00  0.00    +0.000 A 
ATOM     25  C   UNL     1      -2.664   9.991  15.868  0.00  0.00    +0.000 A 
ATOM     26  C   UNL     1      -1.994  10.310  17.042  0.00  0.00    +0.000 A 
ENDBRANCH  20  21
ENDBRANCH   8  20
TORSDOF 5
ENDMDL
MODEL 4
REMARK VINA RESULT:      -7.2      1.179      1.686
REMARK  Name = 
REMARK  7 active torsions:
REMARK  status: ('A' for Active; 'I' for Inactive)
REMARK    1  A    between atoms: C_1  and  C_2
REMARK    2  A    between atoms: C_2  and  C_3
REMARK    3  A    between atoms: C_2  and  C_4
REMARK    4  A    between atoms: C_4  and  C_5
REMARK    5  A    between atoms: C_5  and  N_6
REMARK    6  A    between atoms: C_13  and  C_14
REMARK    7  A    between atoms: C_14  and  C_15
REMARK                            x       y       z     vdW  Elec       q    Type
REMARK                         _______ _______ _______ _____ _____    ______ ____
ROOT
ATOM      1  N   UNL     1       1.683   7.710  19.332  0.00  0.00    +0.000 NA
ATOM      2  C   UNL     1       2.310   8.275  18.103  0.00  0.00    +0.000 C 
ATOM      3  C   UNL     1       1.904   9.704  17.672  0.00  0.00    +0.000 C 
ATOM      4  C   UNL     1       1.919  10.613  18.897  0.00  0.00    +0.000 C 
ATOM      5  C   UNL     1       1.732  12.136  18.592  0.00  0.00    +0.000 C 
ATOM      6  C   UNL     1       0.469  12.780  19.179  0.00  0.00    +0.000 C 
ATOM      7  O   UNL     1       0.355  13.991  19.310  0.00  0.00    +0.000 OA
ATOM      8  C   UNL     1      -0.562  11.765  19.600  0.00  0.00    +0.000 C 
ATOM      9  C   UNL     1       0.179  10.957  20.705  0.00  0.00    +0.000 C 
ATOM     10  C   UNL     1      -0.618  10.333  21.845  0.00  0.00    +0.000 C 
ATOM     11  C   UNL     1       0.239   9.285  22.565  0.00  0.00    +0.000 C 
ATOM     12  C   UNL     1       0.652   8.165  21.611  0.00  0.00    +0.000 C 
ATOM     13  C   UNL     1       1.542   8.678  20.462  0.00  0.00    +0.000 C 
ATOM     14  C   UNL     1       0.906   9.923  19.852  0.00  0.00    +0.000 C 
ENDROOT
BRANCH   1  15
ATOM     15  C   UNL     1       2.362   6.463  19.740  0.00  0.00    +0.000 C 
BRANCH  15  16
ATOM     16  C   UNL     1       3.403   5.994  18.709  0.00  0.00    +0.000 C 
BRANCH  16  18
ATOM     17  C   UNL     1       1.715   4.403  17.773  0.00  0.00    +0.000 C 
ATOM     18  C   UNL     1       3.177   4.559  18.199  0.00  0.00    +0.000 C 
ATOM     19  C   UNL     1       4.095   4.202  17.028  0.00  0.00    +0.000 C 
ENDBRANCH  16  18
ENDBRANCH  15  16
ENDBRANCH   1  15
BRANCH   8  20
ATOM     20  C   UNL     1      -2.061  11.957  19.542  0.00  0.00    +0.000 C 
BRANCH  20  21
ATOM     21  C   UNL     1      -2.814  11.653  18.295  0.00  0.00    +0.000 A 
ATOM     22  C   UNL     1      -2.148  11.174  17.162  0.00  0.00    +0.000 A 
ATOM     23  C   UNL     1      -2.855  10.815  16.035  0.00  0.00    +0.000 A 
ATOM     24  C   UNL     1      -4.244  10.918  16.020  0.00  0.00    +0.000 A 
ATOM     25  C   UNL     1      -4.926  11.362  17.151  0.00  0.00    +0.000 A 
ATOM     26  C   UNL     1      -4.214  11.724  18.288  0.00  0.00    +0.000 A 
ENDBRANCH  20  21
ENDBRANCH   8  20
TORSDOF 5
ENDMDL
MODEL 5
REMARK VINA RESULT:      -7.2      0.953      1.161
REMARK  Name = 
REMARK  7 active torsions:
REMARK  status: ('A' for Active; 'I' for Inactive)
REMARK    1  A    between atoms: C_1  and  C_2
REMARK    2  A    between atoms: C_2  and  C_3
REMARK    3  A    between atoms: C_2  and  C_4
REMARK    4  A    between atoms: C_4  and  C_5
REMARK    5  A    between atoms: C_5  and  N_6
REMARK    6  A    between atoms: C_13  and  C_14
REMARK    7  A    between atoms: C_14  and  C_15
REMARK                            x       y       z     vdW  Elec       q    Type
REMARK                         _______ _______ _______ _____ _____    ______ ____
ROOT
ATOM      1  N   UNL     1       1.675   8.007  19.319  0.00  0.00    +0.000 NA
ATOM      2  C   UNL     1       2.321   8.656  18.143  0.00  0.00    +0.000 C 
ATOM      3  C   UNL     1       1.884  10.094  17.776  0.00  0.00    +0.000 C 
ATOM      4  C   UNL     1       1.833  10.935  19.049  0.00  0.00    +0.000 C 
ATOM      5  C   UNL     1       1.609  12.466  18.820  0.00  0.00    +0.000 C 
ATOM      6  C   UNL     1       0.308  13.039  19.399  0.00  0.00    +0.000 C 
ATOM      7  O   UNL     1       0.152  14.237  19.590  0.00  0.00    +0.000 OA
ATOM      8  C   UNL     1      -0.704  11.973  19.730  0.00  0.00    +0.000 C 
ATOM      9  C   UNL     1       0.028  11.128  20.814  0.00  0.00    +0.000 C 
ATOM     10  C   UNL     1      -0.784  10.420  21.893  0.00  0.00    +0.000 C 
ATOM     11  C   UNL     1       0.083   9.359  22.583  0.00  0.00    +0.000 C 
ATOM     12  C   UNL     1       0.560   8.306  21.585  0.00  0.00    +0.000 C 
ATOM     13  C   UNL     1       1.468   8.907  20.494  0.00  0.00    +0.000 C 
ATOM     14  C   UNL     1       0.813  10.165  19.931  0.00  0.00    +0.000 C 
ENDROOT
BRANCH   1  15
ATOM     15  C   UNL     1       2.379   6.760  19.682  0.00  0.00    +0.000 C 
BRANCH  15  16
ATOM     16  C   UNL     1       2.753   5.916  18.452  0.00  0.00    +0.000 C 
BRANCH  16  18
ATOM     17  C   UNL     1       2.718   3.583  17.550  0.00  0.00    +0.000 C 
ATOM     18  C   UNL     1       1.893   4.651  18.274  0.00  0.00    +0.000 C 
ATOM     19  C   UNL     1       1.387   4.094  19.606  0.00  0.00    +0.000 C 
ENDBRANCH  16  18
ENDBRANCH  15  16
ENDBRANCH   1  15
BRANCH   8  20
ATOM     20  C   UNL     1      -2.205  12.123  19.634  0.00  0.00    +0.000 C 
BRANCH  20  21
ATOM     21  C   UNL     1      -2.936  11.646  18.430  0.00  0.00    +0.000 A 
ATOM     22  C   UNL     1      -4.323  11.802  18.332  0.00  0.00    +0.000 A 
ATOM     23  C   UNL     1      -4.989  11.435  17.182  0.00  0.00    +0.000 A 
ATOM     24  C   UNL     1      -4.281  10.914  16.102  0.00  0.00    +0.000 A 
ATOM     25  C   UNL     1      -2.895  10.783  16.170  0.00  0.00    +0.000 A 
ATOM     26  C   UNL     1      -2.223  11.152  17.328  0.00  0.00    +0.000 A 
ENDBRANCH  20  21
ENDBRANCH   8  20
TORSDOF 5
ENDMDL
MODEL 6
REMARK VINA RESULT:      -6.9      1.554      2.310
REMARK  Name = 
REMARK  7 active torsions:
REMARK  status: ('A' for Active; 'I' for Inactive)
REMARK    1  A    between atoms: C_1  and  C_2
REMARK    2  A    between atoms: C_2  and  C_3
REMARK    3  A    between atoms: C_2  and  C_4
REMARK    4  A    between atoms: C_4  and  C_5
REMARK    5  A    between atoms: C_5  and  N_6
REMARK    6  A    between atoms: C_13  and  C_14
REMARK    7  A    between atoms: C_14  and  C_15
REMARK                            x       y       z     vdW  Elec       q    Type
REMARK                         _______ _______ _______ _____ _____    ______ ____
ROOT
ATOM      1  N   UNL     1       1.159   8.923  19.908  0.00  0.00    +0.000 NA
ATOM      2  C   UNL     1       1.748   9.674  18.762  0.00  0.00    +0.000 C 
ATOM      3  C   UNL     1       1.251  11.118  18.511  0.00  0.00    +0.000 C 
ATOM      4  C   UNL     1       1.212  11.866  19.841  0.00  0.00    +0.000 C 
ATOM      5  C   UNL     1       0.929  13.401  19.727  0.00  0.00    +0.000 C 
ATOM      6  C   UNL     1      -0.371  13.885  20.382  0.00  0.00    +0.000 C 
ATOM      7  O   UNL     1      -0.562  15.061  20.662  0.00  0.00    +0.000 OA
ATOM      8  C   UNL     1      -1.336  12.763  20.665  0.00  0.00    +0.000 C 
ATOM      9  C   UNL     1      -0.545  11.871  21.666  0.00  0.00    +0.000 C 
ATOM     10  C   UNL     1      -1.298  11.060  22.714  0.00  0.00    +0.000 C 
ATOM     11  C   UNL     1      -0.376   9.986  23.302  0.00  0.00    +0.000 C 
ATOM     12  C   UNL     1       0.105   9.023  22.219  0.00  0.00    +0.000 C 
ATOM     13  C   UNL     1       0.959   9.730  21.149  0.00  0.00    +0.000 C 
ATOM     14  C   UNL     1       0.245  11.000  20.694  0.00  0.00    +0.000 C 
ENDROOT
BRANCH   1  15
ATOM     15  C   UNL     1       1.915   7.679  20.161  0.00  0.00    +0.000 C 
BRANCH  15  16
ATOM     16  C   UNL     1       2.342   6.973  18.862  0.00  0.00    +0.000 C 
BRANCH  16  18
ATOM     17  C   UNL     1       1.826   4.998  20.306  0.00  0.00    +0.000 C 
ATOM     18  C   UNL     1       2.472   5.445  18.992  0.00  0.00    +0.000 C 
ATOM     19  C   UNL     1       1.824   4.700  17.823  0.00  0.00    +0.000 C 
ENDBRANCH  16  18
ENDBRANCH  15  16
ENDBRANCH   1  15
BRANCH   8  20
ATOM     20  C   UNL     1      -2.844  12.866  20.623  0.00  0.00    +0.000 C 
BRANCH  20  21
ATOM     21  C   UNL     1      -3.610  12.271  19.495  0.00  0.00    +0.000 A 
ATOM     22  C   UNL     1      -4.996  12.440  19.410  0.00  0.00    +0.000 A 
ATOM     23  C   UNL     1      -5.694  11.958  18.323  0.00  0.00    +0.000 A 
ATOM     24  C   UNL     1      -5.019  11.308  17.292  0.00  0.00    +0.000 A 
ATOM     25  C   UNL     1      -3.635  11.161  17.345  0.00  0.00    +0.000 A 
ATOM     26  C   UNL     1      -2.930  11.645  18.440  0.00  0.00    +0.000 A 
ENDBRANCH  20  21
ENDBRANCH   8  20
TORSDOF 5
ENDMDL
MODEL 7
REMARK VINA RESULT:      -6.9      3.653      6.046
REMARK  Name = 
REMARK  7 active torsions:
REMARK  status: ('A' for Active; 'I' for Inactive)
REMARK    1  A    between atoms: C_1  and  C_2
REMARK    2  A    between atoms: C_2  and  C_3
REMARK    3  A    between atoms: C_2  and  C_4
REMARK    4  A    between atoms: C_4  and  C_5
REMARK    5  A    between atoms: C_5  and  N_6
REMARK    6  A    between atoms: C_13  and  C_14
REMARK    7  A    between atoms: C_14  and  C_15
REMARK                            x       y       z     vdW  Elec       q    Type
REMARK                         _______ _______ _______ _____ _____    ______ ____
ROOT
ATOM      1  N   UNL     1      -0.977  11.433  18.980  0.00  0.00    +0.000 NA
ATOM      2  C   UNL     1      -0.870  12.855  18.545  0.00  0.00    +0.000 C 
ATOM      3  C   UNL     1      -1.080  13.957  19.611  0.00  0.00    +0.000 C 
ATOM      4  C   UNL     1      -0.292  13.589  20.865  0.00  0.00    +0.000 C 
ATOM      5  C   UNL     1      -0.234  14.705  21.960  0.00  0.00    +0.000 C 
ATOM      6  C   UNL     1      -0.898  14.356  23.298  0.00  0.00    +0.000 C 
ATOM      7  O   UNL     1      -0.652  14.969  24.328  0.00  0.00    +0.000 OA
ATOM      8  C   UNL     1      -1.828  13.174  23.199  0.00  0.00    +0.000 C 
ATOM      9  C   UNL     1      -0.877  12.020  22.766  0.00  0.00    +0.000 C 
ATOM     10  C   UNL     1      -1.184  10.589  23.191  0.00  0.00    +0.000 C 
ATOM     11  C   UNL     1      -0.367   9.608  22.343  0.00  0.00    +0.000 C 
ATOM     12  C   UNL     1      -0.711   9.744  20.861  0.00  0.00    +0.000 C 
ATOM     13  C   UNL     1      -0.354  11.136  20.305  0.00  0.00    +0.000 C 
ATOM     14  C   UNL     1      -0.886  12.207  21.252  0.00  0.00    +0.000 C 
ENDROOT
BRANCH   1  15
ATOM     15  C   UNL     1      -0.501  10.524  17.917  0.00  0.00    +0.000 C 
BRANCH  15  16
ATOM     16  C   UNL     1      -1.654   9.791  17.210  0.00  0.00    +0.000 C 
BRANCH  16  18
ATOM     17  C   UNL     1      -2.852  10.060  15.031  0.00  0.00    +0.000 C 
ATOM     18  C   UNL     1      -2.573  10.713  16.387  0.00  0.00    +0.000 C 
ATOM     19  C   UNL     1      -3.896  11.007  17.098  0.00  0.00    +0.000 C 
ENDBRANCH  16  18
ENDBRANCH  15  16
ENDBRANCH   1  15
BRANCH   8  20
ATOM     20  C   UNL     1      -3.094  12.981  24.002  0.00  0.00    +0.000 C 
BRANCH  20  21
ATOM     21  C   UNL     1      -4.415  12.902  23.321  0.00  0.00    +0.000 A 
ATOM     22  C   UNL     1      -4.491  12.754  21.932  0.00  0.00    +0.000 A 
ATOM     23  C   UNL     1      -5.712  12.599  21.311  0.00  0.00    +0.000 A 
ATOM     24  C   UNL     1      -6.882  12.577  22.067  0.00  0.00    +0.000 A 
ATOM     25  C   UNL     1      -6.822  12.689  23.455  0.00  0.00    +0.000 A 
ATOM     26  C   UNL     1      -5.592  12.846  24.082  0.00  0.00    +0.000 A 
ENDBRANCH  20  21
ENDBRANCH   8  20
TORSDOF 5
ENDMDL
MODEL 8
REMARK VINA RESULT:      -6.8      3.619      5.811
REMARK  Name = 
REMARK  7 active torsions:
REMARK  status: ('A' for Active; 'I' for Inactive)
REMARK    1  A    between atoms: C_1  and  C_2
REMARK    2  A    between atoms: C_2  and  C_3
REMARK    3  A    between atoms: C_2  and  C_4
REMARK    4  A    between atoms: C_4  and  C_5
REMARK    5  A    between atoms: C_5  and  N_6
REMARK    6  A    between atoms: C_13  and  C_14
REMARK    7  A    between atoms: C_14  and  C_15
REMARK                            x       y       z     vdW  Elec       q    Type
REMARK                         _______ _______ _______ _____ _____    ______ ____
ROOT
ATOM      1  N   UNL     1      -0.668  11.482  19.065  0.00  0.00    +0.000 NA
ATOM      2  C   UNL     1      -0.514  12.900  18.631  0.00  0.00    +0.000 C 
ATOM      3  C   UNL     1      -0.797  14.011  19.670  0.00  0.00    +0.000 C 
ATOM      4  C   UNL     1      -0.114  13.646  20.985  0.00  0.00    +0.000 C 
ATOM      5  C   UNL     1      -0.132  14.769  22.074  0.00  0.00    +0.000 C 
ATOM      6  C   UNL     1      -0.902  14.434  23.358  0.00  0.00    +0.000 C 
ATOM      7  O   UNL     1      -0.733  15.052  24.400  0.00  0.00    +0.000 OA
ATOM      8  C   UNL     1      -1.833  13.260  23.192  0.00  0.00    +0.000 C 
ATOM      9  C   UNL     1      -0.861  12.095  22.843  0.00  0.00    +0.000 C 
ATOM     10  C   UNL     1      -1.214  10.670  23.252  0.00  0.00    +0.000 C 
ATOM     11  C   UNL     1      -0.340   9.676  22.477  0.00  0.00    +0.000 C 
ATOM     12  C   UNL     1      -0.566   9.804  20.972  0.00  0.00    +0.000 C 
ATOM     13  C   UNL     1      -0.153  11.189  20.437  0.00  0.00    +0.000 C 
ATOM     14  C   UNL     1      -0.749  12.271  21.333  0.00  0.00    +0.000 C 
ENDROOT
BRANCH   1  15
ATOM     15  C   UNL     1      -0.118  10.561  18.049  0.00  0.00    +0.000 C 
BRANCH  15  16
ATOM     16  C   UNL     1      -1.214   9.753  17.332  0.00  0.00    +0.000 C 
BRANCH  16  18
ATOM     17  C   UNL     1      -2.720  10.482  15.474  0.00  0.00    +0.000 C 
ATOM     18  C   UNL     1      -2.469  10.572  16.981  0.00  0.00    +0.000 C 
ATOM     19  C   UNL     1      -3.710  10.095  17.738  0.00  0.00    +0.000 C 
ENDBRANCH  16  18
ENDBRANCH  15  16
ENDBRANCH   1  15
BRANCH   8  20
ATOM     20  C   UNL     1      -3.160  13.083  23.894  0.00  0.00    +0.000 C 
BRANCH  20  21
ATOM     21  C   UNL     1      -4.404  12.856  23.110  0.00  0.00    +0.000 A 
ATOM     22  C   UNL     1      -5.655  12.899  23.735  0.00  0.00    +0.000 A 
ATOM     23  C   UNL     1      -6.811  12.770  22.995  0.00  0.00    +0.000 A 
ATOM     24  C   UNL     1      -6.741  12.607  21.614  0.00  0.00    +0.000 A 
ATOM     25  C   UNL     1      -5.505  12.596  20.972  0.00  0.00    +0.000 A 
ATOM     26  C   UNL     1      -4.339  12.725  21.716  0.00  0.00    +0.000 A 
ENDBRANCH  20  21
ENDBRANCH   8  20
TORSDOF 5
ENDMDL
MODEL 9
REMARK VINA RESULT:      -6.7      3.009      6.205
REMARK  Name = 
REMARK  7 active torsions:
REMARK  status: ('A' for Active; 'I' for Inactive)
REMARK    1  A    between atoms: C_1  and  C_2
REMARK    2  A    between atoms: C_2  and  C_3
REMARK    3  A    between atoms: C_2  and  C_4
REMARK    4  A    between atoms: C_4  and  C_5
REMARK    5  A    between atoms: C_5  and  N_6
REMARK    6  A    between atoms: C_13  and  C_14
REMARK    7  A    between atoms: C_14  and  C_15
REMARK                            x       y       z     vdW  Elec       q    Type
REMARK                         _______ _______ _______ _____ _____    ______ ____
ROOT
ATOM      1  N   UNL     1      -1.222  12.456  22.514  0.00  0.00    +0.000 NA
ATOM      2  C   UNL     1      -1.206  11.158  23.247  0.00  0.00    +0.000 C 
ATOM      3  C   UNL     1      -0.760   9.894  22.475  0.00  0.00    +0.000 C 
ATOM      4  C   UNL     1       0.503  10.219  21.682  0.00  0.00    +0.000 C 
ATOM      5  C   UNL     1       1.198   8.988  21.012  0.00  0.00    +0.000 C 
ATOM      6  C   UNL     1       1.247   9.008  19.479  0.00  0.00    +0.000 C 
ATOM      7  O   UNL     1       2.024   8.310  18.842  0.00  0.00    +0.000 OA
ATOM      8  C   UNL     1       0.279   9.994  18.876  0.00  0.00    +0.000 C 
ATOM      9  C   UNL     1       0.780  11.357  19.436  0.00  0.00    +0.000 C 
ATOM     10  C   UNL     1       0.585  12.627  18.616  0.00  0.00    +0.000 C 
ATOM     11  C   UNL     1       0.783  13.857  19.509  0.00  0.00    +0.000 C 
ATOM     12  C   UNL     1      -0.230  13.875  20.652  0.00  0.00    +0.000 C 
ATOM     13  C   UNL     1      -0.060  12.671  21.599  0.00  0.00    +0.000 C 
ATOM     14  C   UNL     1       0.046  11.393  20.772  0.00  0.00    +0.000 C 
ENDROOT
BRANCH   1  15
ATOM     15  C   UNL     1      -1.419  13.583  23.448  0.00  0.00    +0.000 C 
BRANCH  15  16
ATOM     16  C   UNL     1      -2.786  14.266  23.268  0.00  0.00    +0.000 C 
BRANCH  16  18
ATOM     17  C   UNL     1      -5.075  13.259  23.285  0.00  0.00    +0.000 C 
ATOM     18  C   UNL     1      -3.799  13.437  22.458  0.00  0.00    +0.000 C 
ATOM     19  C   UNL     1      -4.144  14.082  21.114  0.00  0.00    +0.000 C 
ENDBRANCH  16  18
ENDBRANCH  15  16
ENDBRANCH   1  15
BRANCH   8  20
ATOM     20  C   UNL     1      -0.442   9.826  17.557  0.00  0.00    +0.000 C 
BRANCH  20  21
ATOM     21  C   UNL     1      -1.842  10.301  17.396  0.00  0.00    +0.000 A 
ATOM     22  C   UNL     1      -2.506  10.927  18.456  0.00  0.00    +0.000 A 
ATOM     23  C   UNL     1      -3.773  11.441  18.283  0.00  0.00    +0.000 A 
ATOM     24  C   UNL     1      -4.399  11.349  17.042  0.00  0.00    +0.000 A 
ATOM     25  C   UNL     1      -3.739  10.758  15.966  0.00  0.00    +0.000 A 
ATOM     26  C   UNL     1      -2.463  10.240  16.140  0.00  0.00    +0.000 A 
ENDBRANCH  20  21
ENDBRANCH   8  20
TORSDOF 5
ENDMDL
