MODEL 1
REMARK VINA RESULT:      -8.0      0.000      0.000
REMARK  Name = 
REMARK  5 active torsions:
REMARK  status: ('A' for Active; 'I' for Inactive)
REMARK    1  A    between atoms: C_1  and  C_2
REMARK    2  A    between atoms: N_5  and  C_6
REMARK    3  A    between atoms: C_7  and  N_8
REMARK    4  A    between atoms: N_8  and  S_9
REMARK    5  A    between atoms: S_9  and  C_12
REMARK                            x       y       z     vdW  Elec       q    Type
REMARK                         _______ _______ _______ _____ _____    ______ ____
ROOT
ATOM      1  C   UNL     1      -1.203  11.832  20.160  0.00  0.00    +0.000 C 
ATOM      2  C   UNL     1      -0.380  10.982  19.517  0.00  0.00    +0.000 C 
ATOM      3  C   UNL     1      -0.661  10.342  18.216  0.00  0.00    +0.000 C 
ATOM      4  O   UNL     1       0.173   9.602  17.701  0.00  0.00    +0.000 OA
ATOM      5  C   UNL     1      -1.969  10.587  17.603  0.00  0.00    +0.000 A 
ATOM      6  C   UNL     1      -2.324   9.896  16.437  0.00  0.00    +0.000 A 
ATOM      7  C   UNL     1      -3.583  10.090  15.869  0.00  0.00    +0.000 A 
ATOM      8  C   UNL     1      -4.480  10.981  16.456  0.00  0.00    +0.000 A 
ATOM      9  C   UNL     1      -4.118  11.676  17.613  0.00  0.00    +0.000 A 
ATOM     10  C   UNL     1      -2.857  11.477  18.197  0.00  0.00    +0.000 A 
ATOM     11  C   UNL     1      -2.503  12.186  19.449  0.00  0.00    +0.000 C 
ATOM     12  O   UNL     1      -3.301  13.009  19.898  0.00  0.00    +0.000 OA
ENDROOT
BRANCH   1  17
ATOM     13  C   UNL     1      -1.873  15.160  24.534  0.00  0.00    +0.000 C 
ATOM     14  C   UNL     1      -1.180  14.001  23.823  0.00  0.00    +0.000 C 
ATOM     15  C   UNL     1      -0.479  14.487  22.544  0.00  0.00    +0.000 C 
ATOM     16  C   UNL     1       0.073  13.322  21.728  0.00  0.00    +0.000 C 
ATOM     17  N   UNL     1      -1.015  12.371  21.446  0.00  0.00    +0.000 N 
ATOM     18  C   UNL     1      -1.601  11.791  22.659  0.00  0.00    +0.000 C 
ATOM     19  C   UNL     1      -2.201  12.899  23.513  0.00  0.00    +0.000 C 
ENDBRANCH   1  17
BRANCH   2  20
ATOM     20  N   UNL     1       0.857  10.591  20.149  0.00  0.00    +0.000 N 
ATOM     21  H   UNL     1       1.239  11.391  20.672  0.00  0.00    +0.000 HD
BRANCH  20  22
ATOM     22  S   UNL     1       0.697   9.267  21.212  0.00  0.00    +0.000 S 
ATOM     23  O   UNL     1       1.435   9.500  22.438  0.00  0.00    +0.000 OA
ATOM     24  O   UNL     1      -0.702   8.887  21.228  0.00  0.00    +0.000 OA
BRANCH  22  25
ATOM     25  C   UNL     1       1.567   7.990  20.322  0.00  0.00    +0.000 A 
ATOM     26  C   UNL     1       1.552   6.681  20.815  0.00  0.00    +0.000 A 
ATOM     27  C   UNL     1       2.186   5.665  20.098  0.00  0.00    +0.000 A 
ATOM     28  C   UNL     1       2.815   5.961  18.889  0.00  0.00    +0.000 A 
ATOM     29 CL   UNL     1       3.575   4.701  17.996  0.00  0.00    +0.000 Cl
ATOM     30  C   UNL     1       2.822   7.265  18.391  0.00  0.00    +0.000 A 
ATOM     31  C   UNL     1       2.193   8.288  19.106  0.00  0.00    +0.000 A 
ENDBRANCH  22  25
ENDBRANCH  20  22
ENDBRANCH   2  20
TORSDOF 4
ENDMDL
MODEL 2
REMARK VINA RESULT:      -7.6      2.580      3.985
REMARK  Name = 
REMARK  5 active torsions:
REMARK  status: ('A' for Active; 'I' for Inactive)
REMARK    1  A    between atoms: C_1  and  C_2
REMARK    2  A    between atoms: N_5  and  C_6
REMARK    3  A    between atoms: C_7  and  N_8
REMARK    4  A    between atoms: N_8  and  S_9
REMARK    5  A    between atoms: S_9  and  C_12
REMARK                            x       y       z     vdW  Elec       q    Type
REMARK                         _______ _______ _______ _____ _____    ______ ____
ROOT
ATOM      1  C   UNL     1      -0.502  13.127  20.105  0.00  0.00    +0.000 C 
ATOM      2  C   UNL     1       0.342  12.334  19.419  0.00  0.00    +0.000 C 
ATOM      3  C   UNL     1       1.572  12.784  18.735  0.00  0.00    +0.000 C 
ATOM      4  O   UNL     1       2.289  11.971  18.158  0.00  0.00    +0.000 OA
ATOM      5  C   UNL     1       1.866  14.220  18.735  0.00  0.00    +0.000 A 
ATOM      6  C   UNL     1       2.949  14.700  17.989  0.00  0.00    +0.000 A 
ATOM      7  C   UNL     1       3.213  16.070  17.947  0.00  0.00    +0.000 A 
ATOM      8  C   UNL     1       2.405  16.954  18.660  0.00  0.00    +0.000 A 
ATOM      9  C   UNL     1       1.332  16.469  19.413  0.00  0.00    +0.000 A 
ATOM     10  C   UNL     1       1.054  15.093  19.449  0.00  0.00    +0.000 A 
ATOM     11  C   UNL     1      -0.114  14.597  20.215  0.00  0.00    +0.000 C 
ATOM     12  O   UNL     1      -0.762  15.405  20.878  0.00  0.00    +0.000 OA
ENDROOT
BRANCH   1  17
ATOM     13  C   UNL     1      -5.419  13.605  22.605  0.00  0.00    +0.000 C 
ATOM     14  C   UNL     1      -4.304  12.767  21.986  0.00  0.00    +0.000 C 
ATOM     15  C   UNL     1      -2.989  12.953  22.759  0.00  0.00    +0.000 C 
ATOM     16  C   UNL     1      -1.822  12.263  22.058  0.00  0.00    +0.000 C 
ATOM     17  N   UNL     1      -1.733  12.751  20.673  0.00  0.00    +0.000 N 
ATOM     18  C   UNL     1      -2.930  12.455  19.880  0.00  0.00    +0.000 C 
ATOM     19  C   UNL     1      -4.137  13.140  20.507  0.00  0.00    +0.000 C 
ENDBRANCH   1  17
BRANCH   2  20
ATOM     20  N   UNL     1       0.019  10.936  19.262  0.00  0.00    +0.000 N 
ATOM     21  H   UNL     1       0.449  10.582  18.398  0.00  0.00    +0.000 HD
BRANCH  20  22
ATOM     22  S   UNL     1       0.528   9.962  20.568  0.00  0.00    +0.000 S 
ATOM     23  O   UNL     1       1.441  10.691  21.426  0.00  0.00    +0.000 OA
ATOM     24  O   UNL     1      -0.645   9.296  21.098  0.00  0.00    +0.000 OA
BRANCH  22  25
ATOM     25  C   UNL     1       1.491   8.719  19.728  0.00  0.00    +0.000 A 
ATOM     26  C   UNL     1       1.830   7.543  20.407  0.00  0.00    +0.000 A 
ATOM     27  C   UNL     1       2.539   6.542  19.742  0.00  0.00    +0.000 A 
ATOM     28  C   UNL     1       2.890   6.714  18.403  0.00  0.00    +0.000 A 
ATOM     29 CL   UNL     1       3.742   5.467  17.580  0.00  0.00    +0.000 Cl
ATOM     30  C   UNL     1       2.543   7.883  17.722  0.00  0.00    +0.000 A 
ATOM     31  C   UNL     1       1.837   8.892  18.383  0.00  0.00    +0.000 A 
ENDBRANCH  22  25
ENDBRANCH  20  22
ENDBRANCH   2  20
TORSDOF 4
ENDMDL
MODEL 3
REMARK VINA RESULT:      -7.5      2.656      4.164
REMARK  Name = 
REMARK  5 active torsions:
REMARK  status: ('A' for Active; 'I' for Inactive)
REMARK    1  A    between atoms: C_1  and  C_2
REMARK    2  A    between atoms: N_5  and  C_6
REMARK    3  A    between atoms: C_7  and  N_8
REMARK    4  A    between atoms: N_8  and  S_9
REMARK    5  A    between atoms: S_9  and  C_12
REMARK                            x       y       z     vdW  Elec       q    Type
REMARK                         _______ _______ _______ _____ _____    ______ ____
ROOT
ATOM      1  C   UNL     1      -0.919  13.285  20.036  0.00  0.00    +0.000 C 
ATOM      2  C   UNL     1       0.035  12.551  19.430  0.00  0.00    +0.000 C 
ATOM      3  C   UNL     1       1.277  13.088  18.837  0.00  0.00    +0.000 C 
ATOM      4  O   UNL     1       2.097  12.326  18.332  0.00  0.00    +0.000 OA
ATOM      5  C   UNL     1       1.461  14.541  18.838  0.00  0.00    +0.000 A 
ATOM      6  C   UNL     1       2.560  15.096  18.170  0.00  0.00    +0.000 A 
ATOM      7  C   UNL     1       2.722  16.481  18.128  0.00  0.00    +0.000 A 
ATOM      8  C   UNL     1       1.796  17.308  18.761  0.00  0.00    +0.000 A 
ATOM      9  C   UNL     1       0.707  16.750  19.435  0.00  0.00    +0.000 A 
ATOM     10  C   UNL     1       0.532  15.357  19.472  0.00  0.00    +0.000 A 
ATOM     11  C   UNL     1      -0.652  14.780  20.152  0.00  0.00    +0.000 C 
ATOM     12  O   UNL     1      -1.410  15.543  20.750  0.00  0.00    +0.000 OA
ENDROOT
BRANCH   1  17
ATOM     13  C   UNL     1      -6.070  13.414  22.061  0.00  0.00    +0.000 C 
ATOM     14  C   UNL     1      -4.832  12.656  21.589  0.00  0.00    +0.000 C 
ATOM     15  C   UNL     1      -3.616  12.999  22.465  0.00  0.00    +0.000 C 
ATOM     16  C   UNL     1      -2.333  12.390  21.908  0.00  0.00    +0.000 C 
ATOM     17  N   UNL     1      -2.159  12.821  20.512  0.00  0.00    +0.000 N 
ATOM     18  C   UNL     1      -3.246  12.378  19.633  0.00  0.00    +0.000 C 
ATOM     19  C   UNL     1      -4.562  12.975  20.113  0.00  0.00    +0.000 C 
ENDBRANCH   1  17
BRANCH   2  20
ATOM     20  N   UNL     1      -0.169  11.131  19.272  0.00  0.00    +0.000 N 
ATOM     21  H   UNL     1       0.284  10.818  18.403  0.00  0.00    +0.000 HD
BRANCH  20  22
ATOM     22  S   UNL     1       0.430  10.202  20.571  0.00  0.00    +0.000 S 
ATOM     23  O   UNL     1       1.401  10.957  21.337  0.00  0.00    +0.000 OA
ATOM     24  O   UNL     1      -0.704   9.558  21.204  0.00  0.00    +0.000 OA
BRANCH  22  25
ATOM     25  C   UNL     1       1.330   8.926  19.709  0.00  0.00    +0.000 A 
ATOM     26  C   UNL     1       1.707   9.136  18.378  0.00  0.00    +0.000 A 
ATOM     27  C   UNL     1       2.456   8.166  17.711  0.00  0.00    +0.000 A 
ATOM     28  C   UNL     1       2.836   7.003  18.381  0.00  0.00    +0.000 A 
ATOM     29 CL   UNL     1       3.781   5.821  17.563  0.00  0.00    +0.000 Cl
ATOM     30  C   UNL     1       2.469   6.798  19.713  0.00  0.00    +0.000 A 
ATOM     31  C   UNL     1       1.715   7.763  20.385  0.00  0.00    +0.000 A 
ENDBRANCH  22  25
ENDBRANCH  20  22
ENDBRANCH   2  20
TORSDOF 4
ENDMDL
MODEL 4
REMARK VINA RESULT:      -7.5      4.498      7.480
REMARK  Name = 
REMARK  5 active torsions:
REMARK  status: ('A' for Active; 'I' for Inactive)
REMARK    1  A    between atoms: C_1  and  C_2
REMARK    2  A    between atoms: N_5  and  C_6
REMARK    3  A    between atoms: C_7  and  N_8
REMARK    4  A    between atoms: N_8  and  S_9
REMARK    5  A    between atoms: S_9  and  C_12
REMARK                            x       y       z     vdW  Elec       q    Type
REMARK                         _______ _______ _______ _____ _____    ______ ____
ROOT
ATOM      1  C   UNL     1      -1.908  12.390  21.801  0.00  0.00    +0.000 C 
ATOM      2  C   UNL     1      -2.373  12.579  20.551  0.00  0.00    +0.000 C 
ATOM      3  C   UNL     1      -1.926  11.839  19.353  0.00  0.00    +0.000 C 
ATOM      4  O   UNL     1      -2.437  12.071  18.260  0.00  0.00    +0.000 OA
ATOM      5  C   UNL     1      -0.837  10.873  19.514  0.00  0.00    +0.000 A 
ATOM      6  C   UNL     1      -0.297  10.249  18.383  0.00  0.00    +0.000 A 
ATOM      7  C   UNL     1       0.769   9.359  18.520  0.00  0.00    +0.000 A 
ATOM      8  C   UNL     1       1.284   9.084  19.786  0.00  0.00    +0.000 A 
ATOM      9  C   UNL     1       0.735   9.701  20.914  0.00  0.00    +0.000 A 
ATOM     10  C   UNL     1      -0.330  10.606  20.780  0.00  0.00    +0.000 A 
ATOM     11  C   UNL     1      -0.873  11.287  21.979  0.00  0.00    +0.000 C 
ATOM     12  O   UNL     1      -0.429  10.968  23.082  0.00  0.00    +0.000 OA
ENDROOT
BRANCH   1  17
ATOM     13  C   UNL     1      -4.201  16.363  24.902  0.00  0.00    +0.000 C 
ATOM     14  C   UNL     1      -3.299  15.143  24.735  0.00  0.00    +0.000 C 
ATOM     15  C   UNL     1      -2.146  15.447  23.765  0.00  0.00    +0.000 C 
ATOM     16  C   UNL     1      -1.332  14.194  23.449  0.00  0.00    +0.000 C 
ATOM     17  N   UNL     1      -2.233  13.149  22.940  0.00  0.00    +0.000 N 
ATOM     18  C   UNL     1      -3.257  12.748  23.911  0.00  0.00    +0.000 C 
ATOM     19  C   UNL     1      -4.130  13.947  24.253  0.00  0.00    +0.000 C 
ENDBRANCH   1  17
BRANCH   2  20
ATOM     20  N   UNL     1      -3.341  13.623  20.314  0.00  0.00    +0.000 N 
ATOM     21  H   UNL     1      -3.150  14.064  19.404  0.00  0.00    +0.000 HD
BRANCH  20  22
ATOM     22  S   UNL     1      -4.958  13.079  20.331  0.00  0.00    +0.000 S 
ATOM     23  O   UNL     1      -5.482  12.983  18.983  0.00  0.00    +0.000 OA
ATOM     24  O   UNL     1      -5.032  11.966  21.257  0.00  0.00    +0.000 OA
BRANCH  22  25
ATOM     25  C   UNL     1      -5.786  14.452  21.111  0.00  0.00    +0.000 A 
ATOM     26  C   UNL     1      -6.944  14.216  21.860  0.00  0.00    +0.000 A 
ATOM     27  C   UNL     1      -7.569  15.277  22.517  0.00  0.00    +0.000 A 
ATOM     28  C   UNL     1      -7.028  16.559  22.433  0.00  0.00    +0.000 A 
ATOM     29 CL   UNL     1      -7.789  17.860  23.263  0.00  0.00    +0.000 Cl
ATOM     30  C   UNL     1      -5.867  16.793  21.693  0.00  0.00    +0.000 A 
ATOM     31  C   UNL     1      -5.238  15.737  21.029  0.00  0.00    +0.000 A 
ENDBRANCH  22  25
ENDBRANCH  20  22
ENDBRANCH   2  20
TORSDOF 4
ENDMDL
MODEL 5
REMARK VINA RESULT:      -7.4      2.744      4.366
REMARK  Name = 
REMARK  5 active torsions:
REMARK  status: ('A' for Active; 'I' for Inactive)
REMARK    1  A    between atoms: C_1  and  C_2
REMARK    2  A    between atoms: N_5  and  C_6
REMARK    3  A    between atoms: C_7  and  N_8
REMARK    4  A    between atoms: N_8  and  S_9
REMARK    5  A    between atoms: S_9  and  C_12
REMARK                            x       y       z     vdW  Elec       q    Type
REMARK                         _______ _______ _______ _____ _____    ______ ____
ROOT
ATOM      1  C   UNL     1      -0.549  12.996  19.103  0.00  0.00    +0.000 C 
ATOM      2  C   UNL     1       0.522  12.296  18.683  0.00  0.00    +0.000 C 
ATOM      3  C   UNL     1       1.834  12.874  18.325  0.00  0.00    +0.000 C 
ATOM      4  O   UNL     1       2.756  12.140  17.979  0.00  0.00    +0.000 OA
ATOM      5  C   UNL     1       1.968  14.332  18.356  0.00  0.00    +0.000 A 
ATOM      6  C   UNL     1       3.152  14.924  17.899  0.00  0.00    +0.000 A 
ATOM      7  C   UNL     1       3.274  16.314  17.884  0.00  0.00    +0.000 A 
ATOM      8  C   UNL     1       2.222  17.108  18.336  0.00  0.00    +0.000 A 
ATOM      9  C   UNL     1       1.047  16.513  18.802  0.00  0.00    +0.000 A 
ATOM     10  C   UNL     1       0.913  15.115  18.808  0.00  0.00    +0.000 A 
ATOM     11  C   UNL     1      -0.356  14.499  19.263  0.00  0.00    +0.000 C 
ATOM     12  O   UNL     1      -1.235  15.235  19.711  0.00  0.00    +0.000 OA
ENDROOT
BRANCH   1  17
ATOM     13  C   UNL     1      -6.067  12.866  19.541  0.00  0.00    +0.000 C 
ATOM     14  C   UNL     1      -4.694  12.210  19.667  0.00  0.00    +0.000 C 
ATOM     15  C   UNL     1      -3.825  12.956  20.691  0.00  0.00    +0.000 C 
ATOM     16  C   UNL     1      -2.394  12.425  20.707  0.00  0.00    +0.000 C 
ATOM     17  N   UNL     1      -1.839  12.490  19.347  0.00  0.00    +0.000 N 
ATOM     18  C   UNL     1      -2.579  11.668  18.383  0.00  0.00    +0.000 C 
ATOM     19  C   UNL     1      -4.016  12.162  18.292  0.00  0.00    +0.000 C 
ENDBRANCH   1  17
BRANCH   2  20
ATOM     20  N   UNL     1       0.396  10.870  18.492  0.00  0.00    +0.000 N 
ATOM     21  H   UNL     1       1.087  10.558  17.798  0.00  0.00    +0.000 HD
BRANCH  20  22
ATOM     22  S   UNL     1       0.607   9.964  19.923  0.00  0.00    +0.000 S 
ATOM     23  O   UNL     1       1.371  10.717  20.899  0.00  0.00    +0.000 OA
ATOM     24  O   UNL     1      -0.672   9.369  20.254  0.00  0.00    +0.000 OA
BRANCH  22  25
ATOM     25  C   UNL     1       1.658   8.641  19.353  0.00  0.00    +0.000 A 
ATOM     26  C   UNL     1       1.836   7.513  20.162  0.00  0.00    +0.000 A 
ATOM     27  C   UNL     1       2.614   6.450  19.703  0.00  0.00    +0.000 A 
ATOM     28  C   UNL     1       3.197   6.515  18.437  0.00  0.00    +0.000 A 
ATOM     29 CL   UNL     1       4.136   5.192  17.865  0.00  0.00    +0.000 Cl
ATOM     30  C   UNL     1       3.012   7.637  17.626  0.00  0.00    +0.000 A 
ATOM     31  C   UNL     1       2.237   8.706  18.081  0.00  0.00    +0.000 A 
ENDBRANCH  22  25
ENDBRANCH  20  22
ENDBRANCH   2  20
TORSDOF 4
ENDMDL
MODEL 6
REMARK VINA RESULT:      -7.4      1.698      5.047
REMARK  Name = 
REMARK  5 active torsions:
REMARK  status: ('A' for Active; 'I' for Inactive)
REMARK    1  A    between atoms: C_1  and  C_2
REMARK    2  A    between atoms: N_5  and  C_6
REMARK    3  A    between atoms: C_7  and  N_8
REMARK    4  A    between atoms: N_8  and  S_9
REMARK    5  A    between atoms: S_9  and  C_12
REMARK                            x       y       z     vdW  Elec       q    Type
REMARK                         _______ _______ _______ _____ _____    ______ ____
ROOT
ATOM      1  C   UNL     1      -2.184  11.767  19.966  0.00  0.00    +0.000 C 
ATOM      2  C   UNL     1      -1.224  11.838  20.908  0.00  0.00    +0.000 C 
ATOM      3  C   UNL     1      -1.355  12.520  22.211  0.00  0.00    +0.000 C 
ATOM      4  O   UNL     1      -0.424  12.501  23.013  0.00  0.00    +0.000 OA
ATOM      5  C   UNL     1      -2.600  13.244  22.480  0.00  0.00    +0.000 A 
ATOM      6  C   UNL     1      -2.711  14.011  23.647  0.00  0.00    +0.000 A 
ATOM      7  C   UNL     1      -3.876  14.739  23.893  0.00  0.00    +0.000 A 
ATOM      8  C   UNL     1      -4.930  14.690  22.982  0.00  0.00    +0.000 A 
ATOM      9  C   UNL     1      -4.819  13.915  21.824  0.00  0.00    +0.000 A 
ATOM     10  C   UNL     1      -3.645  13.189  21.566  0.00  0.00    +0.000 A 
ATOM     11  C   UNL     1      -3.523  12.407  20.313  0.00  0.00    +0.000 C 
ATOM     12  O   UNL     1      -4.500  12.342  19.568  0.00  0.00    +0.000 OA
ENDROOT
BRANCH   1  17
ATOM     13  C   UNL     1      -3.592  10.127  14.868  0.00  0.00    +0.000 C 
ATOM     14  C   UNL     1      -2.578  10.270  16.001  0.00  0.00    +0.000 C 
ATOM     15  C   UNL     1      -3.042   9.501  17.248  0.00  0.00    +0.000 C 
ATOM     16  C   UNL     1      -2.134   9.770  18.444  0.00  0.00    +0.000 C 
ATOM     17  N   UNL     1      -2.056  11.221  18.676  0.00  0.00    +0.000 N 
ATOM     18  C   UNL     1      -1.482  11.955  17.543  0.00  0.00    +0.000 C 
ATOM     19  C   UNL     1      -2.358  11.755  16.313  0.00  0.00    +0.000 C 
ENDBRANCH   1  17
BRANCH   2  20
ATOM     20  N   UNL     1       0.072  11.267  20.630  0.00  0.00    +0.000 N 
ATOM     21  H   UNL     1       0.804  11.933  20.911  0.00  0.00    +0.000 HD
BRANCH  20  22
ATOM     22  S   UNL     1       0.352   9.780  21.417  0.00  0.00    +0.000 S 
ATOM     23  O   UNL     1       1.256   9.954  22.538  0.00  0.00    +0.000 OA
ATOM     24  O   UNL     1      -0.930   9.120  21.570  0.00  0.00    +0.000 OA
BRANCH  22  25
ATOM     25  C   UNL     1       1.248   8.879  20.166  0.00  0.00    +0.000 A 
ATOM     26  C   UNL     1       1.461   9.473  18.917  0.00  0.00    +0.000 A 
ATOM     27  C   UNL     1       2.205   8.797  17.950  0.00  0.00    +0.000 A 
ATOM     28  C   UNL     1       2.742   7.543  18.240  0.00  0.00    +0.000 A 
ATOM     29 CL   UNL     1       3.679   6.724  17.052  0.00  0.00    +0.000 Cl
ATOM     30  C   UNL     1       2.537   6.954  19.490  0.00  0.00    +0.000 A 
ATOM     31  C   UNL     1       1.790   7.623  20.462  0.00  0.00    +0.000 A 
ENDBRANCH  22  25
ENDBRANCH  20  22
ENDBRANCH   2  20
TORSDOF 4
ENDMDL
MODEL 7
REMARK VINA RESULT:      -7.4      2.880      4.928
REMARK  Name = 
REMARK  5 active torsions:
REMARK  status: ('A' for Active; 'I' for Inactive)
REMARK    1  A    between atoms: C_1  and  C_2
REMARK    2  A    between atoms: N_5  and  C_6
REMARK    3  A    between atoms: C_7  and  N_8
REMARK    4  A    between atoms: N_8  and  S_9
REMARK    5  A    between atoms: S_9  and  C_12
REMARK                            x       y       z     vdW  Elec       q    Type
REMARK                         _______ _______ _______ _____ _____    ______ ____
ROOT
ATOM      1  C   UNL     1       0.209  13.852  21.144  0.00  0.00    +0.000 C 
ATOM      2  C   UNL     1       0.109  12.517  21.291  0.00  0.00    +0.000 C 
ATOM      3  C   UNL     1      -0.965  11.816  22.024  0.00  0.00    +0.000 C 
ATOM      4  O   UNL     1      -0.977  10.589  22.074  0.00  0.00    +0.000 OA
ATOM      5  C   UNL     1      -1.968  12.634  22.712  0.00  0.00    +0.000 A 
ATOM      6  C   UNL     1      -2.924  12.011  23.524  0.00  0.00    +0.000 A 
ATOM      7  C   UNL     1      -3.856  12.783  24.218  0.00  0.00    +0.000 A 
ATOM      8  C   UNL     1      -3.841  14.171  24.091  0.00  0.00    +0.000 A 
ATOM      9  C   UNL     1      -2.891  14.787  23.271  0.00  0.00    +0.000 A 
ATOM     10  C   UNL     1      -1.943  14.017  22.579  0.00  0.00    +0.000 A 
ATOM     11  C   UNL     1      -0.914  14.686  21.749  0.00  0.00    +0.000 C 
ATOM     12  O   UNL     1      -0.976  15.908  21.616  0.00  0.00    +0.000 OA
ENDROOT
BRANCH   1  17
ATOM     13  C   UNL     1       4.774  14.781  18.153  0.00  0.00    +0.000 C 
ATOM     14  C   UNL     1       3.651  15.256  19.071  0.00  0.00    +0.000 C 
ATOM     15  C   UNL     1       3.713  14.533  20.426  0.00  0.00    +0.000 C 
ATOM     16  C   UNL     1       2.502  14.863  21.295  0.00  0.00    +0.000 C 
ATOM     17  N   UNL     1       1.273  14.554  20.548  0.00  0.00    +0.000 N 
ATOM     18  C   UNL     1       1.132  15.341  19.319  0.00  0.00    +0.000 C 
ATOM     19  C   UNL     1       2.296  15.039  18.386  0.00  0.00    +0.000 C 
ENDBRANCH   1  17
BRANCH   2  20
ATOM     20  N   UNL     1       1.152  11.674  20.758  0.00  0.00    +0.000 N 
ATOM     21  H   UNL     1       1.236  10.829  21.338  0.00  0.00    +0.000 HD
BRANCH  20  22
ATOM     22  S   UNL     1       0.897  11.205  19.138  0.00  0.00    +0.000 S 
ATOM     23  O   UNL     1      -0.518  11.200  18.822  0.00  0.00    +0.000 OA
ATOM     24  O   UNL     1       1.855  11.922  18.321  0.00  0.00    +0.000 OA
BRANCH  22  25
ATOM     25  C   UNL     1       1.424   9.502  19.174  0.00  0.00    +0.000 A 
ATOM     26  C   UNL     1       2.003   8.941  18.030  0.00  0.00    +0.000 A 
ATOM     27  C   UNL     1       2.466   7.626  18.065  0.00  0.00    +0.000 A 
ATOM     28  C   UNL     1       2.362   6.886  19.242  0.00  0.00    +0.000 A 
ATOM     29 CL   UNL     1       2.956   5.272  19.288  0.00  0.00    +0.000 Cl
ATOM     30  C   UNL     1       1.793   7.448  20.387  0.00  0.00    +0.000 A 
ATOM     31  C   UNL     1       1.323   8.763  20.358  0.00  0.00    +0.000 A 
ENDBRANCH  22  25
ENDBRANCH  20  22
ENDBRANCH   2  20
TORSDOF 4
ENDMDL
MODEL 8
REMARK VINA RESULT:      -7.3      4.491      8.153
REMARK  Name = 
REMARK  5 active torsions:
REMARK  status: ('A' for Active; 'I' for Inactive)
REMARK    1  A    between atoms: C_1  and  C_2
REMARK    2  A    between atoms: N_5  and  C_6
REMARK    3  A    between atoms: C_7  and  N_8
REMARK    4  A    between atoms: N_8  and  S_9
REMARK    5  A    between atoms: S_9  and  C_12
REMARK                            x       y       z     vdW  Elec       q    Type
REMARK                         _______ _______ _______ _____ _____    ______ ____
ROOT
ATOM      1  C   UNL     1       2.390   6.027  19.227  0.00  0.00    +0.000 C 
ATOM      2  C   UNL     1       2.843   6.777  18.205  0.00  0.00    +0.000 C 
ATOM      3  C   UNL     1       2.632   8.231  18.053  0.00  0.00    +0.000 C 
ATOM      4  O   UNL     1       3.114   8.826  17.093  0.00  0.00    +0.000 OA
ATOM      5  C   UNL     1       1.801   8.907  19.052  0.00  0.00    +0.000 A 
ATOM      6  C   UNL     1       1.470  10.256  18.872  0.00  0.00    +0.000 A 
ATOM      7  C   UNL     1       0.643  10.899  19.795  0.00  0.00    +0.000 A 
ATOM      8  C   UNL     1       0.162  10.200  20.899  0.00  0.00    +0.000 A 
ATOM      9  C   UNL     1       0.504   8.857  21.081  0.00  0.00    +0.000 A 
ATOM     10  C   UNL     1       1.325   8.201  20.150  0.00  0.00    +0.000 A 
ATOM     11  C   UNL     1       1.643   6.765  20.331  0.00  0.00    +0.000 C 
ATOM     12  O   UNL     1       1.248   6.204  21.352  0.00  0.00    +0.000 OA
ENDROOT
BRANCH   1  17
ATOM     13  C   UNL     1       4.133   0.849  18.323  0.00  0.00    +0.000 C 
ATOM     14  C   UNL     1       3.215   1.856  19.012  0.00  0.00    +0.000 C 
ATOM     15  C   UNL     1       2.358   2.606  17.980  0.00  0.00    +0.000 C 
ATOM     16  C   UNL     1       1.559   3.735  18.626  0.00  0.00    +0.000 C 
ATOM     17  N   UNL     1       2.480   4.627  19.346  0.00  0.00    +0.000 N 
ATOM     18  C   UNL     1       3.205   3.955  20.430  0.00  0.00    +0.000 C 
ATOM     19  C   UNL     1       4.051   2.829  19.852  0.00  0.00    +0.000 C 
ENDBRANCH   1  17
BRANCH   2  20
ATOM     20  N   UNL     1       3.541   6.131  17.118  0.00  0.00    +0.000 N 
ATOM     21  H   UNL     1       3.306   6.603  16.235  0.00  0.00    +0.000 HD
BRANCH  20  22
ATOM     22  S   UNL     1       5.237   6.121  17.300  0.00  0.00    +0.000 S 
ATOM     23  O   UNL     1       5.770   7.467  17.223  0.00  0.00    +0.000 OA
ATOM     24  O   UNL     1       5.550   5.241  18.409  0.00  0.00    +0.000 OA
BRANCH  22  25
ATOM     25  C   UNL     1       5.748   5.277  15.815  0.00  0.00    +0.000 A 
ATOM     26  C   UNL     1       4.832   4.459  15.144  0.00  0.00    +0.000 A 
ATOM     27  C   UNL     1       5.207   3.836  13.953  0.00  0.00    +0.000 A 
ATOM     28  C   UNL     1       6.484   4.045  13.433  0.00  0.00    +0.000 A 
ATOM     29 CL   UNL     1       6.934   3.295  11.952  0.00  0.00    +0.000 Cl
ATOM     30  C   UNL     1       7.395   4.870  14.098  0.00  0.00    +0.000 A 
ATOM     31  C   UNL     1       7.028   5.493  15.293  0.00  0.00    +0.000 A 
ENDBRANCH  22  25
ENDBRANCH  20  22
ENDBRANCH   2  20
TORSDOF 4
ENDMDL
MODEL 9
REMARK VINA RESULT:      -7.2      1.631      2.208
REMARK  Name = 
REMARK  5 active torsions:
REMARK  status: ('A' for Active; 'I' for Inactive)
REMARK    1  A    between atoms: C_1  and  C_2
REMARK    2  A    between atoms: N_5  and  C_6
REMARK    3  A    between atoms: C_7  and  N_8
REMARK    4  A    between atoms: N_8  and  S_9
REMARK    5  A    between atoms: S_9  and  C_12
REMARK                            x       y       z     vdW  Elec       q    Type
REMARK                         _______ _______ _______ _____ _____    ______ ____
ROOT
ATOM      1  C   UNL     1      -1.974  13.036  20.386  0.00  0.00    +0.000 C 
ATOM      2  C   UNL     1      -1.565  12.093  19.515  0.00  0.00    +0.000 C 
ATOM      3  C   UNL     1      -2.446  11.329  18.608  0.00  0.00    +0.000 C 
ATOM      4  O   UNL     1      -1.965  10.509  17.830  0.00  0.00    +0.000 OA
ATOM      5  C   UNL     1      -3.890  11.554  18.710  0.00  0.00    +0.000 A 
ATOM      6  C   UNL     1      -4.765  10.755  17.962  0.00  0.00    +0.000 A 
ATOM      7  C   UNL     1      -6.144  10.932  18.084  0.00  0.00    +0.000 A 
ATOM      8  C   UNL     1      -6.645  11.911  18.939  0.00  0.00    +0.000 A 
ATOM      9  C   UNL     1      -5.769  12.712  19.675  0.00  0.00    +0.000 A 
ATOM     10  C   UNL     1      -4.380  12.532  19.566  0.00  0.00    +0.000 A 
ATOM     11  C   UNL     1      -3.463  13.358  20.386  0.00  0.00    +0.000 C 
ATOM     12  O   UNL     1      -3.946  14.252  21.081  0.00  0.00    +0.000 OA
ENDROOT
BRANCH   1  17
ATOM     13  C   UNL     1      -0.414  16.862  24.072  0.00  0.00    +0.000 C 
ATOM     14  C   UNL     1      -0.158  15.592  23.264  0.00  0.00    +0.000 C 
ATOM     15  C   UNL     1      -0.179  15.891  21.757  0.00  0.00    +0.000 C 
ATOM     16  C   UNL     1      -0.096  14.612  20.929  0.00  0.00    +0.000 C 
ATOM     17  N   UNL     1      -1.178  13.702  21.336  0.00  0.00    +0.000 N 
ATOM     18  C   UNL     1      -1.090  13.295  22.742  0.00  0.00    +0.000 C 
ATOM     19  C   UNL     1      -1.195  14.525  23.634  0.00  0.00    +0.000 C 
ENDBRANCH   1  17
BRANCH   2  20
ATOM     20  N   UNL     1      -0.169  11.729  19.481  0.00  0.00    +0.000 N 
ATOM     21  H   UNL     1       0.406  12.580  19.540  0.00  0.00    +0.000 HD
BRANCH  20  22
ATOM     22  S   UNL     1       0.294  10.665  20.732  0.00  0.00    +0.000 S 
ATOM     23  O   UNL     1       1.281  11.285  21.594  0.00  0.00    +0.000 OA
ATOM     24  O   UNL     1      -0.915  10.069  21.266  0.00  0.00    +0.000 OA
BRANCH  22  25
ATOM     25  C   UNL     1       1.137   9.387  19.817  0.00  0.00    +0.000 A 
ATOM     26  C   UNL     1       1.470   9.613  18.477  0.00  0.00    +0.000 A 
ATOM     27  C   UNL     1       2.175   8.640  17.768  0.00  0.00    +0.000 A 
ATOM     28  C   UNL     1       2.555   7.458  18.404  0.00  0.00    +0.000 A 
ATOM     29 CL   UNL     1       3.445   6.271  17.533  0.00  0.00    +0.000 Cl
ATOM     30  C   UNL     1       2.231   7.237  19.744  0.00  0.00    +0.000 A 
ATOM     31  C   UNL     1       1.521   8.205  20.459  0.00  0.00    +0.000 A 
ENDBRANCH  22  25
ENDBRANCH  20  22
ENDBRANCH   2  20
TORSDOF 4
ENDMDL
