MODEL 1
REMARK VINA RESULT:      -7.6      0.000      0.000
REMARK  Name = 
REMARK  7 active torsions:
REMARK  status: ('A' for Active; 'I' for Inactive)
REMARK    1  A    between atoms: C_1  and  O_2
REMARK    2  A    between atoms: O_2  and  C_3
REMARK    3  A    between atoms: C_6  and  C_7
REMARK    4  A    between atoms: C_8  and  C_9
REMARK    5  A    between atoms: C_9  and  C_11
REMARK    6  A    between atoms: C_18  and  O_19
REMARK    7  A    between atoms: O_19  and  C_20
REMARK                            x       y       z     vdW  Elec       q    Type
REMARK                         _______ _______ _______ _____ _____    ______ ____
ROOT
ATOM      1  C   UNL     1       4.737   5.261  16.761  0.00  0.00    +0.000 C 
ATOM      2  C   UNL     1       5.697   4.503  16.213  0.00  0.00    +0.000 C 
ENDROOT
BRANCH   1   6
ATOM      3  C   UNL     1       1.803   3.554  19.397  0.00  0.00    +0.000 A 
ATOM      4  C   UNL     1       2.373   2.810  18.350  0.00  0.00    +0.000 A 
ATOM      5  C   UNL     1       3.334   3.370  17.504  0.00  0.00    +0.000 A 
ATOM      6  C   UNL     1       3.698   4.707  17.643  0.00  0.00    +0.000 A 
ATOM      7  C   UNL     1       3.066   5.466  18.637  0.00  0.00    +0.000 A 
ATOM      8  C   UNL     1       2.111   4.916  19.507  0.00  0.00    +0.000 A 
BRANCH   3  10
ATOM      9  C   UNL     1       1.498   2.764  21.600  0.00  0.00    +0.000 C 
ATOM     10  O   UNL     1       0.952   2.964  20.295  0.00  0.00    +0.000 OA
ENDBRANCH   3  10
BRANCH   8  11
ATOM     11  O   UNL     1       1.632   5.854  20.379  0.00  0.00    +0.000 OA
ATOM     12  C   UNL     1       2.032   7.207  20.251  0.00  0.00    +0.000 C 
ENDBRANCH   8  11
ENDBRANCH   1   6
BRANCH   2  13
ATOM     13  C   UNL     1       6.781   5.076  15.365  0.00  0.00    +0.000 C 
ATOM     14  O   UNL     1       7.579   5.882  15.826  0.00  0.00    +0.000 OA
BRANCH  13  15
ATOM     15  C   UNL     1       6.870   4.598  13.992  0.00  0.00    +0.000 A 
ATOM     16  C   UNL     1       7.587   5.055  12.896  0.00  0.00    +0.000 A 
ATOM     17  C   UNL     1       7.271   4.241  11.779  0.00  0.00    +0.000 A 
ATOM     18  C   UNL     1       6.383   3.306  12.233  0.00  0.00    +0.000 A 
ATOM     19 CL   UNL     1       5.576   2.037  11.453  0.00  0.00    +0.000 Cl
ATOM     20  N   UNL     1       6.154   3.498  13.559  0.00  0.00    +0.000 N 
ATOM     21  H   UNL     1       5.536   2.948  14.142  0.00  0.00    +0.000 HD
ENDBRANCH  13  15
ENDBRANCH   2  13
TORSDOF 5
ENDMDL
MODEL 2
REMARK VINA RESULT:      -7.5      1.433      2.342
REMARK  Name = 
REMARK  7 active torsions:
REMARK  status: ('A' for Active; 'I' for Inactive)
REMARK    1  A    between atoms: C_1  and  O_2
REMARK    2  A    between atoms: O_2  and  C_3
REMARK    3  A    between atoms: C_6  and  C_7
REMARK    4  A    between atoms: C_8  and  C_9
REMARK    5  A    between atoms: C_9  and  C_11
REMARK    6  A    between atoms: C_18  and  O_19
REMARK    7  A    between atoms: O_19  and  C_20
REMARK                            x       y       z     vdW  Elec       q    Type
REMARK                         _______ _______ _______ _____ _____    ______ ____
ROOT
ATOM      1  C   UNL     1       5.351   3.920  15.950  0.00  0.00    +0.000 C 
ATOM      2  C   UNL     1       5.853   4.953  15.259  0.00  0.00    +0.000 C 
ENDROOT
BRANCH   1   6
ATOM      3  C   UNL     1       2.984   4.589  19.474  0.00  0.00    +0.000 A 
ATOM      4  C   UNL     1       4.355   4.895  19.439  0.00  0.00    +0.000 A 
ATOM      5  C   UNL     1       5.115   4.684  18.286  0.00  0.00    +0.000 A 
ATOM      6  C   UNL     1       4.537   4.099  17.162  0.00  0.00    +0.000 A 
ATOM      7  C   UNL     1       3.190   3.720  17.230  0.00  0.00    +0.000 A 
ATOM      8  C   UNL     1       2.406   3.941  18.375  0.00  0.00    +0.000 A 
BRANCH   3  10
ATOM      9  C   UNL     1       2.150   3.894  21.569  0.00  0.00    +0.000 C 
ATOM     10  O   UNL     1       2.220   4.909  20.565  0.00  0.00    +0.000 OA
ENDBRANCH   3  10
BRANCH   8  11
ATOM     11  O   UNL     1       1.131   3.476  18.203  0.00  0.00    +0.000 OA
ATOM     12  C   UNL     1       0.774   2.196  18.693  0.00  0.00    +0.000 C 
ENDBRANCH   8  11
ENDBRANCH   1   6
BRANCH   2  13
ATOM     13  C   UNL     1       6.630   4.771  14.001  0.00  0.00    +0.000 C 
ATOM     14  O   UNL     1       7.732   5.286  13.864  0.00  0.00    +0.000 OA
BRANCH  13  15
ATOM     15  C   UNL     1       6.041   3.922  12.975  0.00  0.00    +0.000 A 
ATOM     16  C   UNL     1       4.820   3.973  12.317  0.00  0.00    +0.000 A 
ATOM     17  C   UNL     1       4.736   2.866  11.436  0.00  0.00    +0.000 A 
ATOM     18  C   UNL     1       5.912   2.183  11.575  0.00  0.00    +0.000 A 
ATOM     19 CL   UNL     1       6.490   0.764  10.852  0.00  0.00    +0.000 Cl
ATOM     20  N   UNL     1       6.706   2.818  12.476  0.00  0.00    +0.000 N 
ATOM     21  H   UNL     1       7.630   2.525  12.766  0.00  0.00    +0.000 HD
ENDBRANCH  13  15
ENDBRANCH   2  13
TORSDOF 5
ENDMDL
MODEL 3
REMARK VINA RESULT:      -7.3      1.382      1.621
REMARK  Name = 
REMARK  7 active torsions:
REMARK  status: ('A' for Active; 'I' for Inactive)
REMARK    1  A    between atoms: C_1  and  O_2
REMARK    2  A    between atoms: O_2  and  C_3
REMARK    3  A    between atoms: C_6  and  C_7
REMARK    4  A    between atoms: C_8  and  C_9
REMARK    5  A    between atoms: C_9  and  C_11
REMARK    6  A    between atoms: C_18  and  O_19
REMARK    7  A    between atoms: O_19  and  C_20
REMARK                            x       y       z     vdW  Elec       q    Type
REMARK                         _______ _______ _______ _____ _____    ______ ____
ROOT
ATOM      1  C   UNL     1       5.363   3.937  16.455  0.00  0.00    +0.000 C 
ATOM      2  C   UNL     1       5.465   4.857  15.484  0.00  0.00    +0.000 C 
ENDROOT
BRANCH   1   6
ATOM      3  C   UNL     1       2.689   4.284  19.801  0.00  0.00    +0.000 A 
ATOM      4  C   UNL     1       3.264   3.053  19.443  0.00  0.00    +0.000 A 
ATOM      5  C   UNL     1       4.141   2.951  18.359  0.00  0.00    +0.000 A 
ATOM      6  C   UNL     1       4.410   4.064  17.568  0.00  0.00    +0.000 A 
ATOM      7  C   UNL     1       3.770   5.271  17.881  0.00  0.00    +0.000 A 
ATOM      8  C   UNL     1       2.900   5.396  18.976  0.00  0.00    +0.000 A 
BRANCH   3  10
ATOM      9  C   UNL     1       1.453   3.162  21.469  0.00  0.00    +0.000 C 
ATOM     10  O   UNL     1       1.926   4.399  20.933  0.00  0.00    +0.000 OA
ENDBRANCH   3  10
BRANCH   8  11
ATOM     11  O   UNL     1       2.393   6.663  19.068  0.00  0.00    +0.000 OA
ATOM     12  C   UNL     1       2.753   7.639  18.107  0.00  0.00    +0.000 C 
ENDBRANCH   8  11
ENDBRANCH   1   6
BRANCH   2  13
ATOM     13  C   UNL     1       6.392   4.699  14.328  0.00  0.00    +0.000 C 
ATOM     14  O   UNL     1       7.516   5.183  14.354  0.00  0.00    +0.000 OA
BRANCH  13  15
ATOM     15  C   UNL     1       5.916   3.911  13.200  0.00  0.00    +0.000 A 
ATOM     16  C   UNL     1       4.722   3.930  12.492  0.00  0.00    +0.000 A 
ATOM     17  C   UNL     1       4.765   2.910  11.508  0.00  0.00    +0.000 A 
ATOM     18  C   UNL     1       5.987   2.311  11.638  0.00  0.00    +0.000 A 
ATOM     19 CL   UNL     1       6.709   1.019  10.813  0.00  0.00    +0.000 Cl
ATOM     20  N   UNL     1       6.690   2.916  12.631  0.00  0.00    +0.000 N 
ATOM     21  H   UNL     1       7.622   2.669  12.937  0.00  0.00    +0.000 HD
ENDBRANCH  13  15
ENDBRANCH   2  13
TORSDOF 5
ENDMDL
MODEL 4
REMARK VINA RESULT:      -7.2      2.031      2.867
REMARK  Name = 
REMARK  7 active torsions:
REMARK  status: ('A' for Active; 'I' for Inactive)
REMARK    1  A    between atoms: C_1  and  O_2
REMARK    2  A    between atoms: O_2  and  C_3
REMARK    3  A    between atoms: C_6  and  C_7
REMARK    4  A    between atoms: C_8  and  C_9
REMARK    5  A    between atoms: C_9  and  C_11
REMARK    6  A    between atoms: C_18  and  O_19
REMARK    7  A    between atoms: O_19  and  C_20
REMARK                            x       y       z     vdW  Elec       q    Type
REMARK                         _______ _______ _______ _____ _____    ______ ____
ROOT
ATOM      1  C   UNL     1       5.696   4.036  15.341  0.00  0.00    +0.000 C 
ATOM      2  C   UNL     1       6.291   4.983  14.602  0.00  0.00    +0.000 C 
ENDROOT
BRANCH   1   6
ATOM      3  C   UNL     1       4.057   4.681  19.261  0.00  0.00    +0.000 A 
ATOM      4  C   UNL     1       3.237   4.370  18.163  0.00  0.00    +0.000 A 
ATOM      5  C   UNL     1       3.780   4.151  16.894  0.00  0.00    +0.000 A 
ATOM      6  C   UNL     1       5.147   4.306  16.679  0.00  0.00    +0.000 A 
ATOM      7  C   UNL     1       5.948   4.696  17.760  0.00  0.00    +0.000 A 
ATOM      8  C   UNL     1       5.423   4.903  19.046  0.00  0.00    +0.000 A 
BRANCH   3  10
ATOM      9  C   UNL     1       2.123   4.554  20.609  0.00  0.00    +0.000 C 
ATOM     10  O   UNL     1       3.533   4.776  20.523  0.00  0.00    +0.000 OA
ENDBRANCH   3  10
BRANCH   8  11
ATOM     11  O   UNL     1       6.397   5.289  19.926  0.00  0.00    +0.000 OA
ATOM     12  C   UNL     1       7.655   5.722  19.442  0.00  0.00    +0.000 C 
ENDBRANCH   8  11
ENDBRANCH   1   6
BRANCH   2  13
ATOM     13  C   UNL     1       6.797   4.721  13.224  0.00  0.00    +0.000 C 
ATOM     14  O   UNL     1       7.798   5.287  12.805  0.00  0.00    +0.000 OA
BRANCH  13  15
ATOM     15  C   UNL     1       6.076   3.736  12.430  0.00  0.00    +0.000 A 
ATOM     16  C   UNL     1       4.820   3.757  11.842  0.00  0.00    +0.000 A 
ATOM     17  C   UNL     1       4.594   2.505  11.216  0.00  0.00    +0.000 A 
ATOM     18  C   UNL     1       5.723   1.766  11.432  0.00  0.00    +0.000 A 
ATOM     19 CL   UNL     1       6.144   0.185  10.990  0.00  0.00    +0.000 Cl
ATOM     20  N   UNL     1       6.623   2.500  12.137  0.00  0.00    +0.000 N 
ATOM     21  H   UNL     1       7.541   2.193  12.433  0.00  0.00    +0.000 HD
ENDBRANCH  13  15
ENDBRANCH   2  13
TORSDOF 5
ENDMDL
MODEL 5
REMARK VINA RESULT:      -7.2      1.585      2.601
REMARK  Name = 
REMARK  7 active torsions:
REMARK  status: ('A' for Active; 'I' for Inactive)
REMARK    1  A    between atoms: C_1  and  O_2
REMARK    2  A    between atoms: O_2  and  C_3
REMARK    3  A    between atoms: C_6  and  C_7
REMARK    4  A    between atoms: C_8  and  C_9
REMARK    5  A    between atoms: C_9  and  C_11
REMARK    6  A    between atoms: C_18  and  O_19
REMARK    7  A    between atoms: O_19  and  C_20
REMARK                            x       y       z     vdW  Elec       q    Type
REMARK                         _______ _______ _______ _____ _____    ______ ____
ROOT
ATOM      1  C   UNL     1       5.047   4.431  15.543  0.00  0.00    +0.000 C 
ATOM      2  C   UNL     1       6.300   4.807  15.253  0.00  0.00    +0.000 C 
ENDROOT
BRANCH   1   6
ATOM      3  C   UNL     1       3.280   4.756  19.447  0.00  0.00    +0.000 A 
ATOM      4  C   UNL     1       3.552   5.891  18.665  0.00  0.00    +0.000 A 
ATOM      5  C   UNL     1       4.117   5.776  17.393  0.00  0.00    +0.000 A 
ATOM      6  C   UNL     1       4.486   4.527  16.900  0.00  0.00    +0.000 A 
ATOM      7  C   UNL     1       4.288   3.406  17.717  0.00  0.00    +0.000 A 
ATOM      8  C   UNL     1       3.705   3.502  18.991  0.00  0.00    +0.000 A 
BRANCH   3  10
ATOM      9  C   UNL     1       1.225   4.551  20.590  0.00  0.00    +0.000 C 
ATOM     10  O   UNL     1       2.618   4.868  20.641  0.00  0.00    +0.000 OA
ENDBRANCH   3  10
BRANCH   8  11
ATOM     11  O   UNL     1       3.629   2.278  19.597  0.00  0.00    +0.000 OA
ATOM     12  C   UNL     1       4.674   1.845  20.450  0.00  0.00    +0.000 C 
ENDBRANCH   8  11
ENDBRANCH   1   6
BRANCH   2  13
ATOM     13  C   UNL     1       6.848   4.760  13.867  0.00  0.00    +0.000 C 
ATOM     14  O   UNL     1       7.861   5.381  13.572  0.00  0.00    +0.000 OA
BRANCH  13  15
ATOM     15  C   UNL     1       6.153   3.913  12.908  0.00  0.00    +0.000 A 
ATOM     16  C   UNL     1       4.903   4.015  12.315  0.00  0.00    +0.000 A 
ATOM     17  C   UNL     1       4.705   2.884  11.484  0.00  0.00    +0.000 A 
ATOM     18  C   UNL     1       5.844   2.135  11.587  0.00  0.00    +0.000 A 
ATOM     19 CL   UNL     1       6.296   0.658  10.891  0.00  0.00    +0.000 Cl
ATOM     20  N   UNL     1       6.723   2.752  12.419  0.00  0.00    +0.000 N 
ATOM     21  H   UNL     1       7.643   2.413  12.671  0.00  0.00    +0.000 HD
ENDBRANCH  13  15
ENDBRANCH   2  13
TORSDOF 5
ENDMDL
MODEL 6
REMARK VINA RESULT:      -7.2      1.134      1.281
REMARK  Name = 
REMARK  7 active torsions:
REMARK  status: ('A' for Active; 'I' for Inactive)
REMARK    1  A    between atoms: C_1  and  O_2
REMARK    2  A    between atoms: O_2  and  C_3
REMARK    3  A    between atoms: C_6  and  C_7
REMARK    4  A    between atoms: C_8  and  C_9
REMARK    5  A    between atoms: C_9  and  C_11
REMARK    6  A    between atoms: C_18  and  O_19
REMARK    7  A    between atoms: O_19  and  C_20
REMARK                            x       y       z     vdW  Elec       q    Type
REMARK                         _______ _______ _______ _____ _____    ______ ____
ROOT
ATOM      1  C   UNL     1       4.904   3.767  16.254  0.00  0.00    +0.000 C 
ATOM      2  C   UNL     1       5.367   4.853  15.621  0.00  0.00    +0.000 C 
ENDROOT
BRANCH   1   6
ATOM      3  C   UNL     1       1.820   3.847  19.246  0.00  0.00    +0.000 A 
ATOM      4  C   UNL     1       1.910   2.803  18.310  0.00  0.00    +0.000 A 
ATOM      5  C   UNL     1       2.922   2.779  17.347  0.00  0.00    +0.000 A 
ATOM      6  C   UNL     1       3.827   3.833  17.255  0.00  0.00    +0.000 A 
ATOM      7  C   UNL     1       3.682   4.911  18.138  0.00  0.00    +0.000 A 
ATOM      8  C   UNL     1       2.682   4.944  19.123  0.00  0.00    +0.000 A 
BRANCH   3  10
ATOM      9  C   UNL     1       1.309   3.065  21.414  0.00  0.00    +0.000 C 
ATOM     10  O   UNL     1       0.900   3.803  20.260  0.00  0.00    +0.000 OA
ENDBRANCH   3  10
BRANCH   8  11
ATOM     11  O   UNL     1       2.737   6.100  19.852  0.00  0.00    +0.000 OA
ATOM     12  C   UNL     1       2.398   7.334  19.244  0.00  0.00    +0.000 C 
ENDBRANCH   8  11
ENDBRANCH   1   6
BRANCH   2  13
ATOM     13  C   UNL     1       6.419   4.777  14.567  0.00  0.00    +0.000 C 
ATOM     14  O   UNL     1       7.500   5.331  14.718  0.00  0.00    +0.000 OA
BRANCH  13  15
ATOM     15  C   UNL     1       6.117   3.980  13.386  0.00  0.00    +0.000 A 
ATOM     16  C   UNL     1       6.902   3.145  12.604  0.00  0.00    +0.000 A 
ATOM     17  C   UNL     1       6.109   2.648  11.539  0.00  0.00    +0.000 A 
ATOM     18  C   UNL     1       4.865   3.186  11.712  0.00  0.00    +0.000 A 
ATOM     19 CL   UNL     1       3.434   3.045  10.814  0.00  0.00    +0.000 Cl
ATOM     20  N   UNL     1       4.853   3.966  12.825  0.00  0.00    +0.000 N 
ATOM     21  H   UNL     1       4.060   4.483  13.182  0.00  0.00    +0.000 HD
ENDBRANCH  13  15
ENDBRANCH   2  13
TORSDOF 5
ENDMDL
MODEL 7
REMARK VINA RESULT:      -7.1      1.288      2.596
REMARK  Name = 
REMARK  7 active torsions:
REMARK  status: ('A' for Active; 'I' for Inactive)
REMARK    1  A    between atoms: C_1  and  O_2
REMARK    2  A    between atoms: O_2  and  C_3
REMARK    3  A    between atoms: C_6  and  C_7
REMARK    4  A    between atoms: C_8  and  C_9
REMARK    5  A    between atoms: C_9  and  C_11
REMARK    6  A    between atoms: C_18  and  O_19
REMARK    7  A    between atoms: O_19  and  C_20
REMARK                            x       y       z     vdW  Elec       q    Type
REMARK                         _______ _______ _______ _____ _____    ______ ____
ROOT
ATOM      1  C   UNL     1       5.192   4.245  15.791  0.00  0.00    +0.000 C 
ATOM      2  C   UNL     1       6.002   5.126  15.187  0.00  0.00    +0.000 C 
ENDROOT
BRANCH   1   6
ATOM      3  C   UNL     1       2.795   5.300  19.199  0.00  0.00    +0.000 A 
ATOM      4  C   UNL     1       3.471   6.274  18.444  0.00  0.00    +0.000 A 
ATOM      5  C   UNL     1       4.240   5.923  17.332  0.00  0.00    +0.000 A 
ATOM      6  C   UNL     1       4.406   4.584  16.987  0.00  0.00    +0.000 A 
ATOM      7  C   UNL     1       3.796   3.612  17.791  0.00  0.00    +0.000 A 
ATOM      8  C   UNL     1       3.005   3.947  18.903  0.00  0.00    +0.000 A 
BRANCH   3  10
ATOM      9  C   UNL     1       1.808   7.070  20.408  0.00  0.00    +0.000 C 
ATOM     10  O   UNL     1       1.949   5.661  20.214  0.00  0.00    +0.000 OA
ENDBRANCH   3  10
BRANCH   8  11
ATOM     11  O   UNL     1       2.530   2.829  19.532  0.00  0.00    +0.000 OA
ATOM     12  C   UNL     1       1.304   2.253  19.118  0.00  0.00    +0.000 C 
ENDBRANCH   8  11
ENDBRANCH   1   6
BRANCH   2  13
ATOM     13  C   UNL     1       6.754   4.797  13.943  0.00  0.00    +0.000 C 
ATOM     14  O   UNL     1       7.893   5.211  13.770  0.00  0.00    +0.000 OA
BRANCH  13  15
ATOM     15  C   UNL     1       6.092   3.930  12.978  0.00  0.00    +0.000 A 
ATOM     16  C   UNL     1       4.827   3.972  12.408  0.00  0.00    +0.000 A 
ATOM     17  C   UNL     1       4.680   2.848  11.556  0.00  0.00    +0.000 A 
ATOM     18  C   UNL     1       5.862   2.166  11.623  0.00  0.00    +0.000 A 
ATOM     19 CL   UNL     1       6.387   0.732  10.886  0.00  0.00    +0.000 Cl
ATOM     20  N   UNL     1       6.720   2.816  12.453  0.00  0.00    +0.000 N 
ATOM     21  H   UNL     1       7.662   2.526  12.682  0.00  0.00    +0.000 HD
ENDBRANCH  13  15
ENDBRANCH   2  13
TORSDOF 5
ENDMDL
MODEL 8
REMARK VINA RESULT:      -7.1      1.458      2.232
REMARK  Name = 
REMARK  7 active torsions:
REMARK  status: ('A' for Active; 'I' for Inactive)
REMARK    1  A    between atoms: C_1  and  O_2
REMARK    2  A    between atoms: O_2  and  C_3
REMARK    3  A    between atoms: C_6  and  C_7
REMARK    4  A    between atoms: C_8  and  C_9
REMARK    5  A    between atoms: C_9  and  C_11
REMARK    6  A    between atoms: C_18  and  O_19
REMARK    7  A    between atoms: O_19  and  C_20
REMARK                            x       y       z     vdW  Elec       q    Type
REMARK                         _______ _______ _______ _____ _____    ______ ____
ROOT
ATOM      1  C   UNL     1       4.949   5.184  16.051  0.00  0.00    +0.000 C 
ATOM      2  C   UNL     1       5.826   4.286  15.581  0.00  0.00    +0.000 C 
ENDROOT
BRANCH   1   6
ATOM      3  C   UNL     1       2.849   4.793  19.781  0.00  0.00    +0.000 A 
ATOM      4  C   UNL     1       4.158   5.299  19.723  0.00  0.00    +0.000 A 
ATOM      5  C   UNL     1       4.830   5.433  18.505  0.00  0.00    +0.000 A 
ATOM      6  C   UNL     1       4.233   5.000  17.324  0.00  0.00    +0.000 A 
ATOM      7  C   UNL     1       2.960   4.421  17.397  0.00  0.00    +0.000 A 
ATOM      8  C   UNL     1       2.263   4.295  18.610  0.00  0.00    +0.000 A 
BRANCH   3  10
ATOM      9  C   UNL     1       2.244   3.553  21.696  0.00  0.00    +0.000 C 
ATOM     10  O   UNL     1       2.154   4.776  20.961  0.00  0.00    +0.000 OA
ENDBRANCH   3  10
BRANCH   8  11
ATOM     11  O   UNL     1       1.049   3.690  18.427  0.00  0.00    +0.000 OA
ATOM     12  C   UNL     1       0.911   2.300  18.662  0.00  0.00    +0.000 C 
ENDBRANCH   8  11
ENDBRANCH   1   6
BRANCH   2  13
ATOM     13  C   UNL     1       6.591   4.501  14.320  0.00  0.00    +0.000 C 
ATOM     14  O   UNL     1       7.560   5.248  14.293  0.00  0.00    +0.000 OA
BRANCH  13  15
ATOM     15  C   UNL     1       6.160   3.751  13.148  0.00  0.00    +0.000 A 
ATOM     16  C   UNL     1       6.831   2.870  12.311  0.00  0.00    +0.000 A 
ATOM     17  C   UNL     1       5.942   2.456  11.288  0.00  0.00    +0.000 A 
ATOM     18  C   UNL     1       4.755   3.085  11.540  0.00  0.00    +0.000 A 
ATOM     19 CL   UNL     1       3.269   3.071  10.726  0.00  0.00    +0.000 Cl
ATOM     20  N   UNL     1       4.869   3.844  12.661  0.00  0.00    +0.000 N 
ATOM     21  H   UNL     1       4.140   4.415  13.071  0.00  0.00    +0.000 HD
ENDBRANCH  13  15
ENDBRANCH   2  13
TORSDOF 5
ENDMDL
MODEL 9
REMARK VINA RESULT:      -7.1      1.675      2.746
REMARK  Name = 
REMARK  7 active torsions:
REMARK  status: ('A' for Active; 'I' for Inactive)
REMARK    1  A    between atoms: C_1  and  O_2
REMARK    2  A    between atoms: O_2  and  C_3
REMARK    3  A    between atoms: C_6  and  C_7
REMARK    4  A    between atoms: C_8  and  C_9
REMARK    5  A    between atoms: C_9  and  C_11
REMARK    6  A    between atoms: C_18  and  O_19
REMARK    7  A    between atoms: O_19  and  C_20
REMARK                            x       y       z     vdW  Elec       q    Type
REMARK                         _______ _______ _______ _____ _____    ______ ____
ROOT
ATOM      1  C   UNL     1       5.304   5.965  16.195  0.00  0.00    +0.000 C 
ATOM      2  C   UNL     1       5.368   4.849  15.456  0.00  0.00    +0.000 C 
ENDROOT
BRANCH   1   6
ATOM      3  C   UNL     1       2.587   6.352  19.503  0.00  0.00    +0.000 A 
ATOM      4  C   UNL     1       2.865   7.432  18.648  0.00  0.00    +0.000 A 
ATOM      5  C   UNL     1       3.741   7.295  17.569  0.00  0.00    +0.000 A 
ATOM      6  C   UNL     1       4.413   6.093  17.359  0.00  0.00    +0.000 A 
ATOM      7  C   UNL     1       4.195   5.045  18.263  0.00  0.00    +0.000 A 
ATOM      8  C   UNL     1       3.304   5.159  19.343  0.00  0.00    +0.000 A 
BRANCH   3  10
ATOM      9  C   UNL     1       1.350   7.797  20.900  0.00  0.00    +0.000 C 
ATOM     10  O   UNL     1       1.638   6.460  20.485  0.00  0.00    +0.000 OA
ENDBRANCH   3  10
BRANCH   8  11
ATOM     11  O   UNL     1       3.271   4.011  20.086  0.00  0.00    +0.000 OA
ATOM     12  C   UNL     1       4.221   2.988  19.847  0.00  0.00    +0.000 C 
ENDBRANCH   8  11
ENDBRANCH   1   6
BRANCH   2  13
ATOM     13  C   UNL     1       6.311   4.701  14.312  0.00  0.00    +0.000 C 
ATOM     14  O   UNL     1       7.432   5.190  14.356  0.00  0.00    +0.000 OA
BRANCH  13  15
ATOM     15  C   UNL     1       5.854   3.915  13.174  0.00  0.00    +0.000 A 
ATOM     16  C   UNL     1       4.683   3.954  12.430  0.00  0.00    +0.000 A 
ATOM     17  C   UNL     1       4.736   2.928  11.453  0.00  0.00    +0.000 A 
ATOM     18  C   UNL     1       5.941   2.305  11.624  0.00  0.00    +0.000 A 
ATOM     19 CL   UNL     1       6.662   0.994  10.829  0.00  0.00    +0.000 Cl
ATOM     20  N   UNL     1       6.625   2.902  12.635  0.00  0.00    +0.000 N 
ATOM     21  H   UNL     1       7.543   2.638  12.971  0.00  0.00    +0.000 HD
ENDBRANCH  13  15
ENDBRANCH   2  13
TORSDOF 5
ENDMDL
