MODEL 1
REMARK VINA RESULT:      -6.5      0.000      0.000
REMARK  Name = 
REMARK  4 active torsions:
REMARK  status: ('A' for Active; 'I' for Inactive)
REMARK    1  A    between atoms: C_1  and  C_2
REMARK    2  A    between atoms: C_2  and  C_3
REMARK    3  A    between atoms: N_5  and  C_6
REMARK    4  A    between atoms: C_10  and  C_11
REMARK                            x       y       z     vdW  Elec       q    Type
REMARK                         _______ _______ _______ _____ _____    ______ ____
ROOT
ATOM      1  C   UNL     1       4.892   4.005  17.092  0.00  0.00    +0.000 A 
ATOM      2  S   UNL     1       3.361   3.537  16.545  0.00  0.00    +0.000 S 
ATOM      3  C   UNL     1       2.714   3.616  18.135  0.00  0.00    +0.000 A 
ATOM      4  C   UNL     1       3.607   4.198  19.026  0.00  0.00    +0.000 A 
ATOM      5  C   UNL     1       4.897   4.400  18.407  0.00  0.00    +0.000 A 
ATOM      6  C   UNL     1       3.294   4.557  20.459  0.00  0.00    +0.000 C 
ATOM      7  C   UNL     1       1.878   5.103  20.630  0.00  0.00    +0.000 C 
ATOM      8  C   UNL     1       0.798   4.020  20.709  0.00  0.00    +0.000 C 
ATOM      9  C   UNL     1       1.010   2.792  19.824  0.00  0.00    +0.000 C 
ATOM     10  C   UNL     1       1.308   3.125  18.362  0.00  0.00    +0.000 C 
ENDROOT
BRANCH   1  13
ATOM     11  C   UNL     1       6.094   4.990  15.297  0.00  0.00    +0.000 C 
ATOM     12  O   UNL     1       5.464   6.040  15.342  0.00  0.00    +0.000 OA
ATOM     13  N   UNL     1       5.886   3.905  16.137  0.00  0.00    +0.000 N 
ATOM     14  H   UNL     1       6.700   3.359  16.389  0.00  0.00    +0.000 HD
BRANCH  11  16
ATOM     15  C   UNL     1       6.732   4.007  13.083  0.00  0.00    +0.000 C 
ATOM     16  C   UNL     1       7.221   4.756  14.312  0.00  0.00    +0.000 C 
ENDBRANCH  11  16
ENDBRANCH   1  13
BRANCH   5  17
ATOM     17  C   UNL     1       6.032   5.002  19.057  0.00  0.00    +0.000 C 
ATOM     18  N   UNL     1       6.944   5.429  19.628  0.00  0.00    +0.000 NA
ENDBRANCH   5  17
TORSDOF 3
ENDMDL
MODEL 2
REMARK VINA RESULT:      -6.5      2.724      3.341
REMARK  Name = 
REMARK  4 active torsions:
REMARK  status: ('A' for Active; 'I' for Inactive)
REMARK    1  A    between atoms: C_1  and  C_2
REMARK    2  A    between atoms: C_2  and  C_3
REMARK    3  A    between atoms: N_5  and  C_6
REMARK    4  A    between atoms: C_10  and  C_11
REMARK                            x       y       z     vdW  Elec       q    Type
REMARK                         _______ _______ _______ _____ _____    ______ ____
ROOT
ATOM      1  C   UNL     1       4.562   5.668  18.260  0.00  0.00    +0.000 A 
ATOM      2  S   UNL     1       4.963   4.039  18.479  0.00  0.00    +0.000 S 
ATOM      3  C   UNL     1       3.671   3.819  19.590  0.00  0.00    +0.000 A 
ATOM      4  C   UNL     1       2.824   4.920  19.621  0.00  0.00    +0.000 A 
ATOM      5  C   UNL     1       3.372   6.014  18.852  0.00  0.00    +0.000 A 
ATOM      6  C   UNL     1       1.514   4.988  20.370  0.00  0.00    +0.000 C 
ATOM      7  C   UNL     1       0.740   3.673  20.315  0.00  0.00    +0.000 C 
ATOM      8  C   UNL     1       1.216   2.627  21.327  0.00  0.00    +0.000 C 
ATOM      9  C   UNL     1       2.721   2.582  21.592  0.00  0.00    +0.000 C 
ATOM     10  C   UNL     1       3.572   2.506  20.324  0.00  0.00    +0.000 C 
ENDROOT
BRANCH   1  13
ATOM     11  C   UNL     1       6.766   6.528  18.068  0.00  0.00    +0.000 C 
ATOM     12  O   UNL     1       7.133   6.055  19.137  0.00  0.00    +0.000 OA
ATOM     13  N   UNL     1       5.493   6.386  17.534  0.00  0.00    +0.000 N 
ATOM     14  H   UNL     1       5.423   6.325  16.526  0.00  0.00    +0.000 HD
BRANCH  11  16
ATOM     15  C   UNL     1       8.034   8.669  17.777  0.00  0.00    +0.000 C 
ATOM     16  C   UNL     1       7.690   7.321  17.166  0.00  0.00    +0.000 C 
ENDBRANCH  11  16
ENDBRANCH   1  13
BRANCH   5  17
ATOM     17  C   UNL     1       2.729   7.289  18.669  0.00  0.00    +0.000 C 
ATOM     18  N   UNL     1       2.198   8.315  18.594  0.00  0.00    +0.000 NA
ENDBRANCH   5  17
TORSDOF 3
ENDMDL
MODEL 3
REMARK VINA RESULT:      -6.4      2.401      3.518
REMARK  Name = 
REMARK  4 active torsions:
REMARK  status: ('A' for Active; 'I' for Inactive)
REMARK    1  A    between atoms: C_1  and  C_2
REMARK    2  A    between atoms: C_2  and  C_3
REMARK    3  A    between atoms: N_5  and  C_6
REMARK    4  A    between atoms: C_10  and  C_11
REMARK                            x       y       z     vdW  Elec       q    Type
REMARK                         _______ _______ _______ _____ _____    ______ ____
ROOT
ATOM      1  C   UNL     1       4.942   5.855  17.656  0.00  0.00    +0.000 A 
ATOM      2  S   UNL     1       4.036   6.129  19.059  0.00  0.00    +0.000 S 
ATOM      3  C   UNL     1       3.135   4.685  18.817  0.00  0.00    +0.000 A 
ATOM      4  C   UNL     1       3.671   3.907  17.798  0.00  0.00    +0.000 A 
ATOM      5  C   UNL     1       4.720   4.617  17.104  0.00  0.00    +0.000 A 
ATOM      6  C   UNL     1       3.215   2.513  17.439  0.00  0.00    +0.000 C 
ATOM      7  C   UNL     1       2.856   1.679  18.667  0.00  0.00    +0.000 C 
ATOM      8  C   UNL     1       1.454   1.951  19.217  0.00  0.00    +0.000 C 
ATOM      9  C   UNL     1       0.972   3.400  19.148  0.00  0.00    +0.000 C 
ATOM     10  C   UNL     1       1.964   4.411  19.725  0.00  0.00    +0.000 C 
ENDROOT
BRANCH   1  13
ATOM     11  C   UNL     1       7.046   6.949  17.775  0.00  0.00    +0.000 C 
ATOM     12  O   UNL     1       7.541   6.098  18.504  0.00  0.00    +0.000 OA
ATOM     13  N   UNL     1       5.746   6.917  17.288  0.00  0.00    +0.000 N 
ATOM     14  H   UNL     1       5.594   7.299  16.363  0.00  0.00    +0.000 HD
BRANCH  11  16
ATOM     15  C   UNL     1       8.470   8.901  18.436  0.00  0.00    +0.000 C 
ATOM     16  C   UNL     1       7.821   8.154  17.283  0.00  0.00    +0.000 C 
ENDBRANCH  11  16
ENDBRANCH   1  13
BRANCH   5  17
ATOM     17  C   UNL     1       5.489   4.079  16.012  0.00  0.00    +0.000 C 
ATOM     18  N   UNL     1       6.119   3.717  15.111  0.00  0.00    +0.000 NA
ENDBRANCH   5  17
TORSDOF 3
ENDMDL
MODEL 4
REMARK VINA RESULT:      -6.4      1.824      1.940
REMARK  Name = 
REMARK  4 active torsions:
REMARK  status: ('A' for Active; 'I' for Inactive)
REMARK    1  A    between atoms: C_1  and  C_2
REMARK    2  A    between atoms: C_2  and  C_3
REMARK    3  A    between atoms: N_5  and  C_6
REMARK    4  A    between atoms: C_10  and  C_11
REMARK                            x       y       z     vdW  Elec       q    Type
REMARK                         _______ _______ _______ _____ _____    ______ ____
ROOT
ATOM      1  C   UNL     1       4.198   4.343  17.012  0.00  0.00    +0.000 A 
ATOM      2  S   UNL     1       3.912   2.718  17.385  0.00  0.00    +0.000 S 
ATOM      3  C   UNL     1       3.218   3.138  18.901  0.00  0.00    +0.000 A 
ATOM      4  C   UNL     1       3.019   4.508  19.015  0.00  0.00    +0.000 A 
ATOM      5  C   UNL     1       3.623   5.212  17.907  0.00  0.00    +0.000 A 
ATOM      6  C   UNL     1       2.290   5.188  20.149  0.00  0.00    +0.000 C 
ATOM      7  C   UNL     1       1.077   4.392  20.626  0.00  0.00    +0.000 C 
ATOM      8  C   UNL     1       1.419   3.251  21.586  0.00  0.00    +0.000 C 
ATOM      9  C   UNL     1       2.724   2.503  21.307  0.00  0.00    +0.000 C 
ATOM     10  C   UNL     1       2.869   2.030  19.860  0.00  0.00    +0.000 C 
ENDROOT
BRANCH   1  13
ATOM     11  C   UNL     1       6.347   4.592  16.032  0.00  0.00    +0.000 C 
ATOM     12  O   UNL     1       6.938   4.477  17.099  0.00  0.00    +0.000 OA
ATOM     13  N   UNL     1       4.968   4.534  15.880  0.00  0.00    +0.000 N 
ATOM     14  H   UNL     1       4.619   4.126  15.022  0.00  0.00    +0.000 HD
BRANCH  11  16
ATOM     15  C   UNL     1       6.380   4.034  13.590  0.00  0.00    +0.000 C 
ATOM     16  C   UNL     1       7.069   4.788  14.715  0.00  0.00    +0.000 C 
ENDBRANCH  11  16
ENDBRANCH   1  13
BRANCH   5  17
ATOM     17  C   UNL     1       3.577   6.638  17.719  0.00  0.00    +0.000 C 
ATOM     18  N   UNL     1       3.582   7.776  17.507  0.00  0.00    +0.000 NA
ENDBRANCH   5  17
TORSDOF 3
ENDMDL
MODEL 5
REMARK VINA RESULT:      -6.2      2.780      3.403
REMARK  Name = 
REMARK  4 active torsions:
REMARK  status: ('A' for Active; 'I' for Inactive)
REMARK    1  A    between atoms: C_1  and  C_2
REMARK    2  A    between atoms: C_2  and  C_3
REMARK    3  A    between atoms: N_5  and  C_6
REMARK    4  A    between atoms: C_10  and  C_11
REMARK                            x       y       z     vdW  Elec       q    Type
REMARK                         _______ _______ _______ _____ _____    ______ ____
ROOT
ATOM      1  C   UNL     1       4.818   5.860  17.208  0.00  0.00    +0.000 A 
ATOM      2  S   UNL     1       5.166   4.252  16.813  0.00  0.00    +0.000 S 
ATOM      3  C   UNL     1       3.822   3.685  17.723  0.00  0.00    +0.000 A 
ATOM      4  C   UNL     1       3.005   4.728  18.139  0.00  0.00    +0.000 A 
ATOM      5  C   UNL     1       3.613   6.007  17.853  0.00  0.00    +0.000 A 
ATOM      6  C   UNL     1       1.667   4.564  18.820  0.00  0.00    +0.000 C 
ATOM      7  C   UNL     1       0.861   3.398  18.254  0.00  0.00    +0.000 C 
ATOM      8  C   UNL     1       1.266   2.032  18.814  0.00  0.00    +0.000 C 
ATOM      9  C   UNL     1       2.757   1.830  19.086  0.00  0.00    +0.000 C 
ATOM     10  C   UNL     1       3.658   2.199  17.907  0.00  0.00    +0.000 C 
ENDROOT
BRANCH   1  13
ATOM     11  C   UNL     1       6.899   6.907  17.663  0.00  0.00    +0.000 C 
ATOM     12  O   UNL     1       7.074   6.293  18.709  0.00  0.00    +0.000 OA
ATOM     13  N   UNL     1       5.797   6.758  16.832  0.00  0.00    +0.000 N 
ATOM     14  H   UNL     1       5.957   6.862  15.838  0.00  0.00    +0.000 HD
BRANCH  11  16
ATOM     15  C   UNL     1       8.275   8.935  18.183  0.00  0.00    +0.000 C 
ATOM     16  C   UNL     1       7.901   7.909  17.127  0.00  0.00    +0.000 C 
ENDBRANCH  11  16
ENDBRANCH   1  13
BRANCH   5  17
ATOM     17  C   UNL     1       3.013   7.284  18.142  0.00  0.00    +0.000 C 
ATOM     18  N   UNL     1       2.465   8.274  18.384  0.00  0.00    +0.000 NA
ENDBRANCH   5  17
TORSDOF 3
ENDMDL
MODEL 6
REMARK VINA RESULT:      -6.1      2.807      3.952
REMARK  Name = 
REMARK  4 active torsions:
REMARK  status: ('A' for Active; 'I' for Inactive)
REMARK    1  A    between atoms: C_1  and  C_2
REMARK    2  A    between atoms: C_2  and  C_3
REMARK    3  A    between atoms: N_5  and  C_6
REMARK    4  A    between atoms: C_10  and  C_11
REMARK                            x       y       z     vdW  Elec       q    Type
REMARK                         _______ _______ _______ _____ _____    ______ ____
ROOT
ATOM      1  C   UNL     1       5.525   6.609  17.295  0.00  0.00    +0.000 A 
ATOM      2  S   UNL     1       4.199   6.869  18.314  0.00  0.00    +0.000 S 
ATOM      3  C   UNL     1       3.537   5.331  17.925  0.00  0.00    +0.000 A 
ATOM      4  C   UNL     1       4.428   4.556  17.195  0.00  0.00    +0.000 A 
ATOM      5  C   UNL     1       5.587   5.327  16.807  0.00  0.00    +0.000 A 
ATOM      6  C   UNL     1       4.219   3.105  16.829  0.00  0.00    +0.000 C 
ATOM      7  C   UNL     1       3.552   2.309  17.948  0.00  0.00    +0.000 C 
ATOM      8  C   UNL     1       2.031   2.470  18.005  0.00  0.00    +0.000 C 
ATOM      9  C   UNL     1       1.487   3.859  17.667  0.00  0.00    +0.000 C 
ATOM     10  C   UNL     1       2.161   4.993  18.438  0.00  0.00    +0.000 C 
ENDROOT
BRANCH   1  13
ATOM     11  C   UNL     1       7.521   7.790  17.805  0.00  0.00    +0.000 C 
ATOM     12  O   UNL     1       7.936   6.926  18.568  0.00  0.00    +0.000 OA
ATOM     13  N   UNL     1       6.321   7.724  17.110  0.00  0.00    +0.000 N 
ATOM     14  H   UNL     1       6.300   8.146  16.190  0.00  0.00    +0.000 HD
BRANCH  11  16
ATOM     15  C   UNL     1       8.877   9.665  18.765  0.00  0.00    +0.000 C 
ATOM     16  C   UNL     1       8.300   9.053  17.499  0.00  0.00    +0.000 C 
ENDBRANCH  11  16
ENDBRANCH   1  13
BRANCH   5  17
ATOM     17  C   UNL     1       6.704   4.809  16.061  0.00  0.00    +0.000 C 
ATOM     18  N   UNL     1       7.625   4.463  15.451  0.00  0.00    +0.000 NA
ENDBRANCH   5  17
TORSDOF 3
ENDMDL
MODEL 7
REMARK VINA RESULT:      -6.0      2.223      3.473
REMARK  Name = 
REMARK  4 active torsions:
REMARK  status: ('A' for Active; 'I' for Inactive)
REMARK    1  A    between atoms: C_1  and  C_2
REMARK    2  A    between atoms: C_2  and  C_3
REMARK    3  A    between atoms: N_5  and  C_6
REMARK    4  A    between atoms: C_10  and  C_11
REMARK                            x       y       z     vdW  Elec       q    Type
REMARK                         _______ _______ _______ _____ _____    ______ ____
ROOT
ATOM      1  C   UNL     1       5.768   5.095  18.010  0.00  0.00    +0.000 A 
ATOM      2  S   UNL     1       5.191   5.029  19.599  0.00  0.00    +0.000 S 
ATOM      3  C   UNL     1       3.725   4.293  19.089  0.00  0.00    +0.000 A 
ATOM      4  C   UNL     1       3.776   3.913  17.753  0.00  0.00    +0.000 A 
ATOM      5  C   UNL     1       4.975   4.412  17.120  0.00  0.00    +0.000 A 
ATOM      6  C   UNL     1       2.720   3.104  17.039  0.00  0.00    +0.000 C 
ATOM      7  C   UNL     1       2.123   2.010  17.922  0.00  0.00    +0.000 C 
ATOM      8  C   UNL     1       1.037   2.507  18.880  0.00  0.00    +0.000 C 
ATOM      9  C   UNL     1       1.249   3.898  19.477  0.00  0.00    +0.000 C 
ATOM     10  C   UNL     1       2.629   4.099  20.104  0.00  0.00    +0.000 C 
ENDROOT
BRANCH   1  13
ATOM     11  C   UNL     1       6.821   7.148  17.449  0.00  0.00    +0.000 C 
ATOM     12  O   UNL     1       5.764   7.720  17.212  0.00  0.00    +0.000 OA
ATOM     13  N   UNL     1       6.931   5.827  17.862  0.00  0.00    +0.000 N 
ATOM     14  H   UNL     1       7.687   5.608  18.499  0.00  0.00    +0.000 HD
BRANCH  11  16
ATOM     15  C   UNL     1       8.141   9.199  18.017  0.00  0.00    +0.000 C 
ATOM     16  C   UNL     1       8.165   7.838  17.342  0.00  0.00    +0.000 C 
ENDBRANCH  11  16
ENDBRANCH   1  13
BRANCH   5  17
ATOM     17  C   UNL     1       5.336   4.175  15.747  0.00  0.00    +0.000 C 
ATOM     18  N   UNL     1       5.641   3.913  14.661  0.00  0.00    +0.000 NA
ENDBRANCH   5  17
TORSDOF 3
ENDMDL
MODEL 8
REMARK VINA RESULT:      -5.8      2.559      5.899
REMARK  Name = 
REMARK  4 active torsions:
REMARK  status: ('A' for Active; 'I' for Inactive)
REMARK    1  A    between atoms: C_1  and  C_2
REMARK    2  A    between atoms: C_2  and  C_3
REMARK    3  A    between atoms: N_5  and  C_6
REMARK    4  A    between atoms: C_10  and  C_11
REMARK                            x       y       z     vdW  Elec       q    Type
REMARK                         _______ _______ _______ _____ _____    ______ ____
ROOT
ATOM      1  C   UNL     1       3.514   4.406  18.469  0.00  0.00    +0.000 A 
ATOM      2  S   UNL     1       4.470   3.093  17.996  0.00  0.00    +0.000 S 
ATOM      3  C   UNL     1       5.083   3.962  16.646  0.00  0.00    +0.000 A 
ATOM      4  C   UNL     1       4.721   5.303  16.688  0.00  0.00    +0.000 A 
ATOM      5  C   UNL     1       3.775   5.549  17.753  0.00  0.00    +0.000 A 
ATOM      6  C   UNL     1       5.223   6.368  15.743  0.00  0.00    +0.000 C 
ATOM      7  C   UNL     1       6.696   6.185  15.383  0.00  0.00    +0.000 C 
ATOM      8  C   UNL     1       6.943   5.151  14.282  0.00  0.00    +0.000 C 
ATOM      9  C   UNL     1       6.032   3.923  14.293  0.00  0.00    +0.000 C 
ATOM     10  C   UNL     1       5.946   3.228  15.652  0.00  0.00    +0.000 C 
ENDROOT
BRANCH   1  13
ATOM     11  C   UNL     1       1.406   3.545  19.141  0.00  0.00    +0.000 C 
ATOM     12  O   UNL     1       1.062   3.265  17.999  0.00  0.00    +0.000 OA
ATOM     13  N   UNL     1       2.622   4.118  19.485  0.00  0.00    +0.000 N 
ATOM     14  H   UNL     1       3.024   3.843  20.372  0.00  0.00    +0.000 HD
BRANCH  11  16
ATOM     15  C   UNL     1       1.357   2.763  21.520  0.00  0.00    +0.000 C 
ATOM     16  C   UNL     1       0.532   3.267  20.347  0.00  0.00    +0.000 C 
ENDBRANCH  11  16
ENDBRANCH   1  13
BRANCH   5  17
ATOM     17  C   UNL     1       3.221   6.838  18.074  0.00  0.00    +0.000 C 
ATOM     18  N   UNL     1       2.722   7.862  18.281  0.00  0.00    +0.000 NA
ENDBRANCH   5  17
TORSDOF 3
ENDMDL
MODEL 9
REMARK VINA RESULT:      -5.7      2.548      3.281
REMARK  Name = 
REMARK  4 active torsions:
REMARK  status: ('A' for Active; 'I' for Inactive)
REMARK    1  A    between atoms: C_1  and  C_2
REMARK    2  A    between atoms: C_2  and  C_3
REMARK    3  A    between atoms: N_5  and  C_6
REMARK    4  A    between atoms: C_10  and  C_11
REMARK                            x       y       z     vdW  Elec       q    Type
REMARK                         _______ _______ _______ _____ _____    ______ ____
ROOT
ATOM      1  C   UNL     1       5.193   5.642  18.514  0.00  0.00    +0.000 A 
ATOM      2  S   UNL     1       5.479   3.993  18.766  0.00  0.00    +0.000 S 
ATOM      3  C   UNL     1       3.798   3.677  18.935  0.00  0.00    +0.000 A 
ATOM      4  C   UNL     1       3.029   4.781  18.591  0.00  0.00    +0.000 A 
ATOM      5  C   UNL     1       3.861   5.942  18.368  0.00  0.00    +0.000 A 
ATOM      6  C   UNL     1       1.523   4.789  18.480  0.00  0.00    +0.000 C 
ATOM      7  C   UNL     1       0.973   3.498  17.877  0.00  0.00    +0.000 C 
ATOM      8  C   UNL     1       0.851   2.346  18.878  0.00  0.00    +0.000 C 
ATOM      9  C   UNL     1       1.952   2.253  19.935  0.00  0.00    +0.000 C 
ATOM     10  C   UNL     1       3.368   2.297  19.360  0.00  0.00    +0.000 C 
ENDROOT
BRANCH   1  13
ATOM     11  C   UNL     1       6.844   6.817  17.277  0.00  0.00    +0.000 C 
ATOM     12  O   UNL     1       6.348   6.540  16.192  0.00  0.00    +0.000 OA
ATOM     13  N   UNL     1       6.336   6.418  18.505  0.00  0.00    +0.000 N 
ATOM     14  H   UNL     1       6.451   7.061  19.279  0.00  0.00    +0.000 HD
BRANCH  11  16
ATOM     15  C   UNL     1       7.732   9.104  17.785  0.00  0.00    +0.000 C 
ATOM     16  C   UNL     1       8.086   7.674  17.411  0.00  0.00    +0.000 C 
ENDBRANCH  11  16
ENDBRANCH   1  13
BRANCH   5  17
ATOM     17  C   UNL     1       3.371   7.238  17.977  0.00  0.00    +0.000 C 
ATOM     18  N   UNL     1       2.909   8.250  17.658  0.00  0.00    +0.000 NA
ENDBRANCH   5  17
TORSDOF 3
ENDMDL
