MODEL 1
REMARK VINA RESULT:      -7.8      0.000      0.000
REMARK  Name = 
REMARK  8 active torsions:
REMARK  status: ('A' for Active; 'I' for Inactive)
REMARK    1  A    between atoms: C_1  and  O_2
REMARK    2  A    between atoms: O_2  and  C_3
REMARK    3  A    between atoms: C_3  and  C_5
REMARK    4  A    between atoms: C_5  and  C_6
REMARK    5  A    between atoms: C_5  and  S_7
REMARK    6  A    between atoms: S_7  and  C_8
REMARK    7  A    between atoms: C_19  and  O_20
REMARK    8  A    between atoms: N_21  and  C_22
REMARK                            x       y       z     vdW  Elec       q    Type
REMARK                         _______ _______ _______ _____ _____    ______ ____
ROOT
ATOM      1  C   UNL     1       3.979   4.664  18.235  0.00  0.00    +0.000 A 
ATOM      2  N   UNL     1       3.686   5.896  17.900  0.00  0.00    +0.000 NA
ATOM      3  C   UNL     1       2.899   6.588  18.792  0.00  0.00    +0.000 A 
ATOM      4  C   UNL     1       2.367   7.806  18.709  0.00  0.00    +0.000 A 
ATOM      5  C   UNL     1       2.364   8.880  17.771  0.00  0.00    +0.000 A 
ATOM      6  C   UNL     1       1.653   9.985  18.064  0.00  0.00    +0.000 A 
ATOM      7  C   UNL     1       0.900  10.104  19.303  0.00  0.00    +0.000 A 
ATOM      8  C   UNL     1       0.851   9.130  20.228  0.00  0.00    +0.000 A 
ATOM      9  C   UNL     1       1.602   7.882  19.979  0.00  0.00    +0.000 A 
ATOM     10  N   UNL     1       1.658   6.835  20.749  0.00  0.00    +0.000 NA
ATOM     11  C   UNL     1       2.460   5.983  20.031  0.00  0.00    +0.000 A 
ATOM     12  C   UNL     1       2.815   4.728  20.325  0.00  0.00    +0.000 A 
ATOM     13  N   UNL     1       3.604   4.012  19.427  0.00  0.00    +0.000 N 
ATOM     14  C   UNL     1       3.993   2.636  19.719  0.00  0.00    +0.000 C 
ENDROOT
BRANCH  12  15
ATOM     15  O   UNL     1       2.378   4.136  21.492  0.00  0.00    +0.000 OA
ATOM     16  H   UNL     1       3.154   3.634  21.819  0.00  0.00    +0.000 HD
ENDBRANCH  12  15
BRANCH   1  17
ATOM     17  S   UNL     1       4.847   3.737  16.997  0.00  0.00    +0.000 S 
BRANCH  17  18
ATOM     18  C   UNL     1       5.675   5.086  16.086  0.00  0.00    +0.000 C 
ATOM     19  C   UNL     1       5.627   4.765  14.594  0.00  0.00    +0.000 C 
BRANCH  18  20
ATOM     20  C   UNL     1       7.124   5.234  16.525  0.00  0.00    +0.000 C 
ATOM     21  O   UNL     1       7.852   4.332  16.917  0.00  0.00    +0.000 OA
BRANCH  20  23
ATOM     22  C   UNL     1       7.456   7.306  17.569  0.00  0.00    +0.000 C 
ATOM     23  O   UNL     1       7.526   6.532  16.370  0.00  0.00    +0.000 OA
ENDBRANCH  20  23
ENDBRANCH  18  20
ENDBRANCH  17  18
ENDBRANCH   1  17
TORSDOF 5
ENDMDL
MODEL 2
REMARK VINA RESULT:      -7.6      2.905      6.992
REMARK  Name = 
REMARK  8 active torsions:
REMARK  status: ('A' for Active; 'I' for Inactive)
REMARK    1  A    between atoms: C_1  and  O_2
REMARK    2  A    between atoms: O_2  and  C_3
REMARK    3  A    between atoms: C_3  and  C_5
REMARK    4  A    between atoms: C_5  and  C_6
REMARK    5  A    between atoms: C_5  and  S_7
REMARK    6  A    between atoms: S_7  and  C_8
REMARK    7  A    between atoms: C_19  and  O_20
REMARK    8  A    between atoms: N_21  and  C_22
REMARK                            x       y       z     vdW  Elec       q    Type
REMARK                         _______ _______ _______ _____ _____    ______ ____
ROOT
ATOM      1  C   UNL     1       5.305   3.969  17.616  0.00  0.00    +0.000 A 
ATOM      2  N   UNL     1       5.231   3.506  16.393  0.00  0.00    +0.000 NA
ATOM      3  C   UNL     1       6.072   4.096  15.478  0.00  0.00    +0.000 A 
ATOM      4  C   UNL     1       6.179   3.915  14.163  0.00  0.00    +0.000 A 
ATOM      5  C   UNL     1       5.561   3.101  13.169  0.00  0.00    +0.000 A 
ATOM      6  C   UNL     1       5.956   3.240  11.889  0.00  0.00    +0.000 A 
ATOM      7  C   UNL     1       6.989   4.191  11.507  0.00  0.00    +0.000 A 
ATOM      8  C   UNL     1       7.609   4.994  12.388  0.00  0.00    +0.000 A 
ATOM      9  C   UNL     1       7.229   4.906  13.813  0.00  0.00    +0.000 A 
ATOM     10  N   UNL     1       7.708   5.610  14.796  0.00  0.00    +0.000 NA
ATOM     11  C   UNL     1       6.994   5.140  15.871  0.00  0.00    +0.000 A 
ATOM     12  C   UNL     1       7.037   5.550  17.142  0.00  0.00    +0.000 A 
ATOM     13  N   UNL     1       6.185   4.967  18.078  0.00  0.00    +0.000 N 
ATOM     14  C   UNL     1       6.204   5.408  19.470  0.00  0.00    +0.000 C 
ENDROOT
BRANCH  12  15
ATOM     15  O   UNL     1       7.895   6.563  17.519  0.00  0.00    +0.000 OA
ATOM     16  H   UNL     1       8.791   6.194  17.371  0.00  0.00    +0.000 HD
ENDBRANCH  12  15
BRANCH   1  17
ATOM     17  S   UNL     1       4.096   3.315  18.739  0.00  0.00    +0.000 S 
BRANCH  17  18
ATOM     18  C   UNL     1       2.559   3.944  17.981  0.00  0.00    +0.000 C 
ATOM     19  C   UNL     1       2.551   5.467  18.090  0.00  0.00    +0.000 C 
BRANCH  18  20
ATOM     20  C   UNL     1       1.332   3.381  18.684  0.00  0.00    +0.000 C 
ATOM     21  O   UNL     1       0.632   2.462  18.281  0.00  0.00    +0.000 OA
BRANCH  20  23
ATOM     22  C   UNL     1       1.168   3.154  21.010  0.00  0.00    +0.000 C 
ATOM     23  O   UNL     1       1.145   4.023  19.877  0.00  0.00    +0.000 OA
ENDBRANCH  20  23
ENDBRANCH  18  20
ENDBRANCH  17  18
ENDBRANCH   1  17
TORSDOF 5
ENDMDL
MODEL 3
REMARK VINA RESULT:      -7.4      3.064      5.119
REMARK  Name = 
REMARK  8 active torsions:
REMARK  status: ('A' for Active; 'I' for Inactive)
REMARK    1  A    between atoms: C_1  and  O_2
REMARK    2  A    between atoms: O_2  and  C_3
REMARK    3  A    between atoms: C_3  and  C_5
REMARK    4  A    between atoms: C_5  and  C_6
REMARK    5  A    between atoms: C_5  and  S_7
REMARK    6  A    between atoms: S_7  and  C_8
REMARK    7  A    between atoms: C_19  and  O_20
REMARK    8  A    between atoms: N_21  and  C_22
REMARK                            x       y       z     vdW  Elec       q    Type
REMARK                         _______ _______ _______ _____ _____    ______ ____
ROOT
ATOM      1  C   UNL     1       2.131   6.625  19.940  0.00  0.00    +0.000 A 
ATOM      2  N   UNL     1       1.400   7.155  20.890  0.00  0.00    +0.000 NA
ATOM      3  C   UNL     1       0.982   8.448  20.672  0.00  0.00    +0.000 A 
ATOM      4  C   UNL     1       0.309   9.281  21.464  0.00  0.00    +0.000 A 
ATOM      5  C   UNL     1      -0.262   9.246  22.769  0.00  0.00    +0.000 A 
ATOM      6  C   UNL     1      -0.867  10.355  23.235  0.00  0.00    +0.000 A 
ATOM      7  C   UNL     1      -0.948  11.572  22.442  0.00  0.00    +0.000 A 
ATOM      8  C   UNL     1      -0.427  11.680  21.208  0.00  0.00    +0.000 A 
ATOM      9  C   UNL     1       0.258  10.507  20.626  0.00  0.00    +0.000 A 
ATOM     10  N   UNL     1       0.830  10.433  19.460  0.00  0.00    +0.000 NA
ATOM     11  C   UNL     1       1.315   9.148  19.450  0.00  0.00    +0.000 A 
ATOM     12  C   UNL     1       2.045   8.541  18.510  0.00  0.00    +0.000 A 
ATOM     13  N   UNL     1       2.482   7.234  18.720  0.00  0.00    +0.000 N 
ATOM     14  C   UNL     1       3.292   6.555  17.713  0.00  0.00    +0.000 C 
ENDROOT
BRANCH  12  15
ATOM     15  O   UNL     1       2.389   9.211  17.354  0.00  0.00    +0.000 OA
ATOM     16  H   UNL     1       1.627   9.073  16.753  0.00  0.00    +0.000 HD
ENDBRANCH  12  15
BRANCH   1  17
ATOM     17  S   UNL     1       2.799   5.024  20.315  0.00  0.00    +0.000 S 
BRANCH  17  18
ATOM     18  C   UNL     1       1.346   3.968  19.987  0.00  0.00    +0.000 C 
ATOM     19  C   UNL     1       1.246   2.923  21.096  0.00  0.00    +0.000 C 
BRANCH  18  20
ATOM     20  C   UNL     1       1.470   3.268  18.642  0.00  0.00    +0.000 C 
ATOM     21  O   UNL     1       1.172   3.744  17.554  0.00  0.00    +0.000 OA
BRANCH  20  23
ATOM     22  C   UNL     1       3.265   1.849  18.137  0.00  0.00    +0.000 C 
ATOM     23  O   UNL     1       2.020   2.028  18.813  0.00  0.00    +0.000 OA
ENDBRANCH  20  23
ENDBRANCH  18  20
ENDBRANCH  17  18
ENDBRANCH   1  17
TORSDOF 5
ENDMDL
MODEL 4
REMARK VINA RESULT:      -7.3      2.972      6.821
REMARK  Name = 
REMARK  8 active torsions:
REMARK  status: ('A' for Active; 'I' for Inactive)
REMARK    1  A    between atoms: C_1  and  O_2
REMARK    2  A    between atoms: O_2  and  C_3
REMARK    3  A    between atoms: C_3  and  C_5
REMARK    4  A    between atoms: C_5  and  C_6
REMARK    5  A    between atoms: C_5  and  S_7
REMARK    6  A    between atoms: S_7  and  C_8
REMARK    7  A    between atoms: C_19  and  O_20
REMARK    8  A    between atoms: N_21  and  C_22
REMARK                            x       y       z     vdW  Elec       q    Type
REMARK                         _______ _______ _______ _____ _____    ______ ____
ROOT
ATOM      1  C   UNL     1       3.895   4.631  17.287  0.00  0.00    +0.000 A 
ATOM      2  N   UNL     1       4.082   4.182  16.070  0.00  0.00    +0.000 NA
ATOM      3  C   UNL     1       5.290   4.499  15.494  0.00  0.00    +0.000 A 
ATOM      4  C   UNL     1       5.746   4.269  14.264  0.00  0.00    +0.000 A 
ATOM      5  C   UNL     1       5.271   3.637  13.078  0.00  0.00    +0.000 A 
ATOM      6  C   UNL     1       6.065   3.636  11.990  0.00  0.00    +0.000 A 
ATOM      7  C   UNL     1       7.381   4.258  12.002  0.00  0.00    +0.000 A 
ATOM      8  C   UNL     1       7.889   4.877  13.081  0.00  0.00    +0.000 A 
ATOM      9  C   UNL     1       7.078   4.926  14.315  0.00  0.00    +0.000 A 
ATOM     10  N   UNL     1       7.399   5.490  15.442  0.00  0.00    +0.000 NA
ATOM     11  C   UNL     1       6.289   5.256  16.217  0.00  0.00    +0.000 A 
ATOM     12  C   UNL     1       6.045   5.664  17.466  0.00  0.00    +0.000 A 
ATOM     13  N   UNL     1       4.822   5.357  18.059  0.00  0.00    +0.000 N 
ATOM     14  C   UNL     1       4.527   5.804  19.417  0.00  0.00    +0.000 C 
ENDROOT
BRANCH  12  15
ATOM     15  O   UNL     1       6.983   6.409  18.151  0.00  0.00    +0.000 OA
ATOM     16  H   UNL     1       6.494   7.204  18.452  0.00  0.00    +0.000 HD
ENDBRANCH  12  15
BRANCH   1  17
ATOM     17  S   UNL     1       2.270   4.358  17.944  0.00  0.00    +0.000 S 
BRANCH  17  18
ATOM     18  C   UNL     1       2.588   2.936  19.046  0.00  0.00    +0.000 C 
ATOM     19  C   UNL     1       3.240   1.824  18.227  0.00  0.00    +0.000 C 
BRANCH  18  20
ATOM     20  C   UNL     1       1.295   2.420  19.660  0.00  0.00    +0.000 C 
ATOM     21  O   UNL     1       0.286   2.099  19.045  0.00  0.00    +0.000 OA
BRANCH  20  23
ATOM     22  C   UNL     1       2.208   3.362  21.601  0.00  0.00    +0.000 C 
ATOM     23  O   UNL     1       1.435   2.314  21.016  0.00  0.00    +0.000 OA
ENDBRANCH  20  23
ENDBRANCH  18  20
ENDBRANCH  17  18
ENDBRANCH   1  17
TORSDOF 5
ENDMDL
MODEL 5
REMARK VINA RESULT:      -7.3      3.152      6.565
REMARK  Name = 
REMARK  8 active torsions:
REMARK  status: ('A' for Active; 'I' for Inactive)
REMARK    1  A    between atoms: C_1  and  O_2
REMARK    2  A    between atoms: O_2  and  C_3
REMARK    3  A    between atoms: C_3  and  C_5
REMARK    4  A    between atoms: C_5  and  C_6
REMARK    5  A    between atoms: C_5  and  S_7
REMARK    6  A    between atoms: S_7  and  C_8
REMARK    7  A    between atoms: C_19  and  O_20
REMARK    8  A    between atoms: N_21  and  C_22
REMARK                            x       y       z     vdW  Elec       q    Type
REMARK                         _______ _______ _______ _____ _____    ______ ____
ROOT
ATOM      1  C   UNL     1       4.017   4.602  17.378  0.00  0.00    +0.000 A 
ATOM      2  N   UNL     1       4.086   4.165  16.145  0.00  0.00    +0.000 NA
ATOM      3  C   UNL     1       5.274   4.402  15.491  0.00  0.00    +0.000 A 
ATOM      4  C   UNL     1       5.627   4.163  14.230  0.00  0.00    +0.000 A 
ATOM      5  C   UNL     1       5.027   3.592  13.070  0.00  0.00    +0.000 A 
ATOM      6  C   UNL     1       5.743   3.553  11.930  0.00  0.00    +0.000 A 
ATOM      7  C   UNL     1       7.099   4.075  11.861  0.00  0.00    +0.000 A 
ATOM      8  C   UNL     1       7.725   4.633  12.911  0.00  0.00    +0.000 A 
ATOM      9  C   UNL     1       7.005   4.718  14.198  0.00  0.00    +0.000 A 
ATOM     10  N   UNL     1       7.443   5.234  15.309  0.00  0.00    +0.000 NA
ATOM     11  C   UNL     1       6.374   5.069  16.155  0.00  0.00    +0.000 A 
ATOM     12  C   UNL     1       6.246   5.469  17.423  0.00  0.00    +0.000 A 
ATOM     13  N   UNL     1       5.046   5.242  18.095  0.00  0.00    +0.000 N 
ATOM     14  C   UNL     1       4.879   5.683  19.476  0.00  0.00    +0.000 C 
ENDROOT
BRANCH  12  15
ATOM     15  O   UNL     1       7.282   6.128  18.054  0.00  0.00    +0.000 OA
ATOM     16  H   UNL     1       7.736   6.616  17.335  0.00  0.00    +0.000 HD
ENDBRANCH  12  15
BRANCH   1  17
ATOM     17  S   UNL     1       2.424   4.438  18.142  0.00  0.00    +0.000 S 
BRANCH  17  18
ATOM     18  C   UNL     1       2.170   2.635  18.004  0.00  0.00    +0.000 C 
ATOM     19  C   UNL     1       0.812   2.289  18.611  0.00  0.00    +0.000 C 
BRANCH  18  20
ATOM     20  C   UNL     1       3.261   1.871  18.739  0.00  0.00    +0.000 C 
ATOM     21  O   UNL     1       3.937   0.961  18.277  0.00  0.00    +0.000 OA
BRANCH  20  23
ATOM     22  C   UNL     1       4.674   2.057  20.600  0.00  0.00    +0.000 C 
ATOM     23  O   UNL     1       3.421   2.383  19.997  0.00  0.00    +0.000 OA
ENDBRANCH  20  23
ENDBRANCH  18  20
ENDBRANCH  17  18
ENDBRANCH   1  17
TORSDOF 5
ENDMDL
MODEL 6
REMARK VINA RESULT:      -7.3      2.986      6.985
REMARK  Name = 
REMARK  8 active torsions:
REMARK  status: ('A' for Active; 'I' for Inactive)
REMARK    1  A    between atoms: C_1  and  O_2
REMARK    2  A    between atoms: O_2  and  C_3
REMARK    3  A    between atoms: C_3  and  C_5
REMARK    4  A    between atoms: C_5  and  C_6
REMARK    5  A    between atoms: C_5  and  S_7
REMARK    6  A    between atoms: S_7  and  C_8
REMARK    7  A    between atoms: C_19  and  O_20
REMARK    8  A    between atoms: N_21  and  C_22
REMARK                            x       y       z     vdW  Elec       q    Type
REMARK                         _______ _______ _______ _____ _____    ______ ____
ROOT
ATOM      1  C   UNL     1       5.311   4.101  17.695  0.00  0.00    +0.000 A 
ATOM      2  N   UNL     1       5.201   3.613  16.484  0.00  0.00    +0.000 NA
ATOM      3  C   UNL     1       6.050   4.148  15.543  0.00  0.00    +0.000 A 
ATOM      4  C   UNL     1       6.130   3.932  14.231  0.00  0.00    +0.000 A 
ATOM      5  C   UNL     1       5.465   3.120  13.267  0.00  0.00    +0.000 A 
ATOM      6  C   UNL     1       5.846   3.213  11.978  0.00  0.00    +0.000 A 
ATOM      7  C   UNL     1       6.908   4.114  11.558  0.00  0.00    +0.000 A 
ATOM      8  C   UNL     1       7.573   4.913  12.410  0.00  0.00    +0.000 A 
ATOM      9  C   UNL     1       7.211   4.873  13.842  0.00  0.00    +0.000 A 
ATOM     10  N   UNL     1       7.732   5.581  14.801  0.00  0.00    +0.000 NA
ATOM     11  C   UNL     1       7.017   5.164  15.898  0.00  0.00    +0.000 A 
ATOM     12  C   UNL     1       7.095   5.602  17.158  0.00  0.00    +0.000 A 
ATOM     13  N   UNL     1       6.236   5.075  18.120  0.00  0.00    +0.000 N 
ATOM     14  C   UNL     1       6.294   5.547  19.500  0.00  0.00    +0.000 C 
ENDROOT
BRANCH  12  15
ATOM     15  O   UNL     1       7.997   6.590  17.498  0.00  0.00    +0.000 OA
ATOM     16  H   UNL     1       8.838   6.111  17.654  0.00  0.00    +0.000 HD
ENDBRANCH  12  15
BRANCH   1  17
ATOM     17  S   UNL     1       4.096   3.521  18.850  0.00  0.00    +0.000 S 
BRANCH  17  18
ATOM     18  C   UNL     1       2.724   4.675  18.502  0.00  0.00    +0.000 C 
ATOM     19  C   UNL     1       2.202   5.222  19.829  0.00  0.00    +0.000 C 
BRANCH  18  20
ATOM     20  C   UNL     1       1.593   3.973  17.765  0.00  0.00    +0.000 C 
ATOM     21  O   UNL     1       0.766   4.511  17.040  0.00  0.00    +0.000 OA
BRANCH  20  23
ATOM     22  C   UNL     1       0.628   2.130  18.842  0.00  0.00    +0.000 C 
ATOM     23  O   UNL     1       1.659   2.626  17.987  0.00  0.00    +0.000 OA
ENDBRANCH  20  23
ENDBRANCH  18  20
ENDBRANCH  17  18
ENDBRANCH   1  17
TORSDOF 5
ENDMDL
MODEL 7
REMARK VINA RESULT:      -7.2      3.467      6.939
REMARK  Name = 
REMARK  8 active torsions:
REMARK  status: ('A' for Active; 'I' for Inactive)
REMARK    1  A    between atoms: C_1  and  O_2
REMARK    2  A    between atoms: O_2  and  C_3
REMARK    3  A    between atoms: C_3  and  C_5
REMARK    4  A    between atoms: C_5  and  C_6
REMARK    5  A    between atoms: C_5  and  S_7
REMARK    6  A    between atoms: S_7  and  C_8
REMARK    7  A    between atoms: C_19  and  O_20
REMARK    8  A    between atoms: N_21  and  C_22
REMARK                            x       y       z     vdW  Elec       q    Type
REMARK                         _______ _______ _______ _____ _____    ______ ____
ROOT
ATOM      1  C   UNL     1       4.768   4.425  17.431  0.00  0.00    +0.000 A 
ATOM      2  N   UNL     1       4.718   3.946  16.212  0.00  0.00    +0.000 NA
ATOM      3  C   UNL     1       5.744   4.325  15.378  0.00  0.00    +0.000 A 
ATOM      4  C   UNL     1       5.937   4.083  14.082  0.00  0.00    +0.000 A 
ATOM      5  C   UNL     1       5.263   3.377  13.043  0.00  0.00    +0.000 A 
ATOM      6  C   UNL     1       5.798   3.392  11.807  0.00  0.00    +0.000 A 
ATOM      7  C   UNL     1       7.034   4.104  11.517  0.00  0.00    +0.000 A 
ATOM      8  C   UNL     1       7.717   4.796  12.444  0.00  0.00    +0.000 A 
ATOM      9  C   UNL     1       7.193   4.832  13.825  0.00  0.00    +0.000 A 
ATOM     10  N   UNL     1       7.709   5.458  14.842  0.00  0.00    +0.000 NA
ATOM     11  C   UNL     1       6.817   5.176  15.847  0.00  0.00    +0.000 A 
ATOM     12  C   UNL     1       6.821   5.611  17.110  0.00  0.00    +0.000 A 
ATOM     13  N   UNL     1       5.784   5.241  17.965  0.00  0.00    +0.000 N 
ATOM     14  C   UNL     1       5.760   5.715  19.345  0.00  0.00    +0.000 C 
ENDROOT
BRANCH  12  15
ATOM     15  O   UNL     1       7.826   6.444  17.558  0.00  0.00    +0.000 OA
ATOM     16  H   UNL     1       8.389   6.595  16.769  0.00  0.00    +0.000 HD
ENDBRANCH  12  15
BRANCH   1  17
ATOM     17  S   UNL     1       3.351   4.063  18.436  0.00  0.00    +0.000 S 
BRANCH  17  18
ATOM     18  C   UNL     1       3.930   2.566  19.307  0.00  0.00    +0.000 C 
ATOM     19  C   UNL     1       3.377   1.340  18.584  0.00  0.00    +0.000 C 
BRANCH  18  20
ATOM     20  C   UNL     1       3.457   2.557  20.753  0.00  0.00    +0.000 C 
ATOM     21  O   UNL     1       3.931   1.885  21.660  0.00  0.00    +0.000 OA
BRANCH  20  23
ATOM     22  C   UNL     1       1.198   2.864  21.295  0.00  0.00    +0.000 C 
ATOM     23  O   UNL     1       2.441   3.457  20.915  0.00  0.00    +0.000 OA
ENDBRANCH  20  23
ENDBRANCH  18  20
ENDBRANCH  17  18
ENDBRANCH   1  17
TORSDOF 5
ENDMDL
MODEL 8
REMARK VINA RESULT:      -7.1      0.837      1.528
REMARK  Name = 
REMARK  8 active torsions:
REMARK  status: ('A' for Active; 'I' for Inactive)
REMARK    1  A    between atoms: C_1  and  O_2
REMARK    2  A    between atoms: O_2  and  C_3
REMARK    3  A    between atoms: C_3  and  C_5
REMARK    4  A    between atoms: C_5  and  C_6
REMARK    5  A    between atoms: C_5  and  S_7
REMARK    6  A    between atoms: S_7  and  C_8
REMARK    7  A    between atoms: C_19  and  O_20
REMARK    8  A    between atoms: N_21  and  C_22
REMARK                            x       y       z     vdW  Elec       q    Type
REMARK                         _______ _______ _______ _____ _____    ______ ____
ROOT
ATOM      1  C   UNL     1       3.847   4.846  18.200  0.00  0.00    +0.000 A 
ATOM      2  N   UNL     1       3.542   6.083  17.896  0.00  0.00    +0.000 NA
ATOM      3  C   UNL     1       2.771   6.754  18.818  0.00  0.00    +0.000 A 
ATOM      4  C   UNL     1       2.232   7.971  18.770  0.00  0.00    +0.000 A 
ATOM      5  C   UNL     1       2.205   9.063  17.854  0.00  0.00    +0.000 A 
ATOM      6  C   UNL     1       1.495  10.159  18.184  0.00  0.00    +0.000 A 
ATOM      7  C   UNL     1       0.766  10.249  19.440  0.00  0.00    +0.000 A 
ATOM      8  C   UNL     1       0.741   9.256  20.346  0.00  0.00    +0.000 A 
ATOM      9  C   UNL     1       1.492   8.017  20.056  0.00  0.00    +0.000 A 
ATOM     10  N   UNL     1       1.569   6.956  20.804  0.00  0.00    +0.000 NA
ATOM     11  C   UNL     1       2.360   6.121  20.053  0.00  0.00    +0.000 A 
ATOM     12  C   UNL     1       2.726   4.863  20.314  0.00  0.00    +0.000 A 
ATOM     13  N   UNL     1       3.500   4.169  19.386  0.00  0.00    +0.000 N 
ATOM     14  C   UNL     1       3.900   2.789  19.642  0.00  0.00    +0.000 C 
ENDROOT
BRANCH  12  15
ATOM     15  O   UNL     1       2.316   4.245  21.477  0.00  0.00    +0.000 OA
ATOM     16  H   UNL     1       2.068   3.338  21.200  0.00  0.00    +0.000 HD
ENDBRANCH  12  15
BRANCH   1  17
ATOM     17  S   UNL     1       4.694   3.949  16.926  0.00  0.00    +0.000 S 
BRANCH  17  18
ATOM     18  C   UNL     1       6.393   4.582  17.141  0.00  0.00    +0.000 C 
ATOM     19  C   UNL     1       6.551   5.069  18.580  0.00  0.00    +0.000 C 
BRANCH  18  20
ATOM     20  C   UNL     1       6.674   5.732  16.185  0.00  0.00    +0.000 C 
ATOM     21  O   UNL     1       6.233   6.870  16.281  0.00  0.00    +0.000 OA
BRANCH  20  23
ATOM     22  C   UNL     1       6.908   4.738  14.076  0.00  0.00    +0.000 C 
ATOM     23  O   UNL     1       7.544   5.326  15.212  0.00  0.00    +0.000 OA
ENDBRANCH  20  23
ENDBRANCH  18  20
ENDBRANCH  17  18
ENDBRANCH   1  17
TORSDOF 5
ENDMDL
MODEL 9
REMARK VINA RESULT:      -7.0      1.003      1.158
REMARK  Name = 
REMARK  8 active torsions:
REMARK  status: ('A' for Active; 'I' for Inactive)
REMARK    1  A    between atoms: C_1  and  O_2
REMARK    2  A    between atoms: O_2  and  C_3
REMARK    3  A    between atoms: C_3  and  C_5
REMARK    4  A    between atoms: C_5  and  C_6
REMARK    5  A    between atoms: C_5  and  S_7
REMARK    6  A    between atoms: S_7  and  C_8
REMARK    7  A    between atoms: C_19  and  O_20
REMARK    8  A    between atoms: N_21  and  C_22
REMARK                            x       y       z     vdW  Elec       q    Type
REMARK                         _______ _______ _______ _____ _____    ______ ____
ROOT
ATOM      1  C   UNL     1       3.485   5.130  18.136  0.00  0.00    +0.000 A 
ATOM      2  N   UNL     1       3.161   6.370  17.863  0.00  0.00    +0.000 NA
ATOM      3  C   UNL     1       2.508   7.052  18.864  0.00  0.00    +0.000 A 
ATOM      4  C   UNL     1       1.981   8.275  18.872  0.00  0.00    +0.000 A 
ATOM      5  C   UNL     1       1.863   9.365  17.961  0.00  0.00    +0.000 A 
ATOM      6  C   UNL     1       1.208  10.470  18.365  0.00  0.00    +0.000 A 
ATOM      7  C   UNL     1       0.628  10.572  19.695  0.00  0.00    +0.000 A 
ATOM      8  C   UNL     1       0.695   9.583  20.603  0.00  0.00    +0.000 A 
ATOM      9  C   UNL     1       1.393   8.334  20.235  0.00  0.00    +0.000 A 
ATOM     10  N   UNL     1       1.543   7.274  20.973  0.00  0.00    +0.000 NA
ATOM     11  C   UNL     1       2.233   6.428  20.140  0.00  0.00    +0.000 A 
ATOM     12  C   UNL     1       2.612   5.166  20.363  0.00  0.00    +0.000 A 
ATOM     13  N   UNL     1       3.267   4.460  19.356  0.00  0.00    +0.000 N 
ATOM     14  C   UNL     1       3.678   3.076  19.571  0.00  0.00    +0.000 C 
ENDROOT
BRANCH  12  15
ATOM     15  O   UNL     1       2.330   4.556  21.569  0.00  0.00    +0.000 OA
ATOM     16  H   UNL     1       1.362   4.666  21.680  0.00  0.00    +0.000 HD
ENDBRANCH  12  15
BRANCH   1  17
ATOM     17  S   UNL     1       4.171   4.219  16.777  0.00  0.00    +0.000 S 
BRANCH  17  18
ATOM     18  C   UNL     1       5.642   5.233  16.400  0.00  0.00    +0.000 C 
ATOM     19  C   UNL     1       5.225   6.362  15.460  0.00  0.00    +0.000 C 
BRANCH  18  20
ATOM     20  C   UNL     1       6.727   4.398  15.737  0.00  0.00    +0.000 C 
ATOM     21  O   UNL     1       6.604   3.745  14.709  0.00  0.00    +0.000 OA
BRANCH  20  23
ATOM     22  C   UNL     1       7.720   4.639  17.846  0.00  0.00    +0.000 C 
ATOM     23  O   UNL     1       7.898   4.521  16.433  0.00  0.00    +0.000 OA
ENDBRANCH  20  23
ENDBRANCH  18  20
ENDBRANCH  17  18
ENDBRANCH   1  17
TORSDOF 5
ENDMDL
