MODEL 1
REMARK VINA RESULT:      -8.1      0.000      0.000
REMARK  Name = 
REMARK  5 active torsions:
REMARK  status: ('A' for Active; 'I' for Inactive)
REMARK    1  A    between atoms: C_2  and  C_12
REMARK    2  A    between atoms: N_3  and  C_4
REMARK    3  A    between atoms: C_4  and  C_5
REMARK    4  A    between atoms: C_5  and  C_6
REMARK    5  A    between atoms: C_17  and  C_18
REMARK                            x       y       z     vdW  Elec       q    Type
REMARK                         _______ _______ _______ _____ _____    ______ ____
ROOT
ATOM      1  O   UNL     1       5.167   3.635  17.014  0.00  0.00    +0.000 OA
ATOM      2  C   UNL     1       5.310   4.638  16.327  0.00  0.00    +0.000 C 
ATOM      3  N   UNL     1       4.951   5.910  16.722  0.00  0.00    +0.000 N 
ATOM      4  H   UNL     1       4.872   6.636  16.020  0.00  0.00    +0.000 HD
ENDROOT
BRANCH   2   5
ATOM      5  C   UNL     1       5.838   4.519  14.939  0.00  0.00    +0.000 A 
ATOM      6  C   UNL     1       7.082   5.053  14.595  0.00  0.00    +0.000 A 
ATOM      7  C   UNL     1       7.513   4.969  13.278  0.00  0.00    +0.000 A 
ATOM      8  F   UNL     1       8.693   5.501  12.941  0.00  0.00    +0.000 F 
ATOM      9  C   UNL     1       6.736   4.357  12.299  0.00  0.00    +0.000 A 
ATOM     10  C   UNL     1       5.493   3.799  12.634  0.00  0.00    +0.000 A 
ATOM     11  C   UNL     1       5.058   3.872  13.969  0.00  0.00    +0.000 A 
BRANCH  10  12
ATOM     12  C   UNL     1       4.623   3.159  11.580  0.00  0.00    +0.000 C 
ATOM     13  F   UNL     1       3.369   2.864  12.024  0.00  0.00    +0.000 F 
ATOM     14  F   UNL     1       4.456   3.946  10.484  0.00  0.00    +0.000 F 
ATOM     15  F   UNL     1       5.140   1.984  11.130  0.00  0.00    +0.000 F 
ENDBRANCH  10  12
ENDBRANCH   2   5
BRANCH   3  16
ATOM     16  C   UNL     1       4.292   6.121  18.001  0.00  0.00    +0.000 C 
BRANCH  16  17
ATOM     17  C   UNL     1       2.771   6.208  17.867  0.00  0.00    +0.000 C 
BRANCH  17  18
ATOM     18  C   UNL     1       2.088   5.109  18.640  0.00  0.00    +0.000 A 
ATOM     19  C   UNL     1       2.008   5.171  20.038  0.00  0.00    +0.000 A 
ATOM     20  C   UNL     1       1.446   4.117  20.761  0.00  0.00    +0.000 A 
ATOM     21  C   UNL     1       0.953   2.998  20.095  0.00  0.00    +0.000 A 
ATOM     22  C   UNL     1       1.014   2.933  18.705  0.00  0.00    +0.000 A 
ATOM     23  C   UNL     1       1.581   3.982  17.979  0.00  0.00    +0.000 A 
ENDBRANCH  17  18
ENDBRANCH  16  17
ENDBRANCH   3  16
TORSDOF 5
ENDMDL
MODEL 2
REMARK VINA RESULT:      -8.0      0.167      1.038
REMARK  Name = 
REMARK  5 active torsions:
REMARK  status: ('A' for Active; 'I' for Inactive)
REMARK    1  A    between atoms: C_2  and  C_12
REMARK    2  A    between atoms: N_3  and  C_4
REMARK    3  A    between atoms: C_4  and  C_5
REMARK    4  A    between atoms: C_5  and  C_6
REMARK    5  A    between atoms: C_17  and  C_18
REMARK                            x       y       z     vdW  Elec       q    Type
REMARK                         _______ _______ _______ _____ _____    ______ ____
ROOT
ATOM      1  O   UNL     1       4.959   3.615  16.957  0.00  0.00    +0.000 OA
ATOM      2  C   UNL     1       5.212   4.627  16.317  0.00  0.00    +0.000 C 
ATOM      3  N   UNL     1       4.950   5.909  16.753  0.00  0.00    +0.000 N 
ATOM      4  H   UNL     1       4.959   6.666  16.079  0.00  0.00    +0.000 HD
ENDROOT
BRANCH   2   5
ATOM      5  C   UNL     1       5.777   4.516  14.944  0.00  0.00    +0.000 A 
ATOM      6  C   UNL     1       7.025   5.060  14.632  0.00  0.00    +0.000 A 
ATOM      7  C   UNL     1       7.491   4.982  13.327  0.00  0.00    +0.000 A 
ATOM      8  F   UNL     1       8.675   5.525  13.022  0.00  0.00    +0.000 F 
ATOM      9  C   UNL     1       6.744   4.367  12.327  0.00  0.00    +0.000 A 
ATOM     10  C   UNL     1       5.498   3.798  12.628  0.00  0.00    +0.000 A 
ATOM     11  C   UNL     1       5.028   3.864  13.952  0.00  0.00    +0.000 A 
BRANCH  10  12
ATOM     12  C   UNL     1       4.661   3.152  11.551  0.00  0.00    +0.000 C 
ATOM     13  F   UNL     1       3.394   2.857  11.958  0.00  0.00    +0.000 F 
ATOM     14  F   UNL     1       4.526   3.936  10.448  0.00  0.00    +0.000 F 
ATOM     15  F   UNL     1       5.194   1.977  11.120  0.00  0.00    +0.000 F 
ENDBRANCH  10  12
ENDBRANCH   2   5
BRANCH   3  16
ATOM     16  C   UNL     1       4.268   6.129  18.017  0.00  0.00    +0.000 C 
BRANCH  16  17
ATOM     17  C   UNL     1       2.746   6.033  17.883  0.00  0.00    +0.000 C 
BRANCH  17  18
ATOM     18  C   UNL     1       2.188   4.934  18.751  0.00  0.00    +0.000 A 
ATOM     19  C   UNL     1       1.525   3.843  18.174  0.00  0.00    +0.000 A 
ATOM     20  C   UNL     1       0.939   2.865  18.980  0.00  0.00    +0.000 A 
ATOM     21  C   UNL     1       1.018   2.964  20.367  0.00  0.00    +0.000 A 
ATOM     22  C   UNL     1       1.688   4.036  20.951  0.00  0.00    +0.000 A 
ATOM     23  C   UNL     1       2.269   5.019  20.148  0.00  0.00    +0.000 A 
ENDBRANCH  17  18
ENDBRANCH  16  17
ENDBRANCH   3  16
TORSDOF 5
ENDMDL
MODEL 3
REMARK VINA RESULT:      -7.9      5.411      7.512
REMARK  Name = 
REMARK  5 active torsions:
REMARK  status: ('A' for Active; 'I' for Inactive)
REMARK    1  A    between atoms: C_2  and  C_12
REMARK    2  A    between atoms: N_3  and  C_4
REMARK    3  A    between atoms: C_4  and  C_5
REMARK    4  A    between atoms: C_5  and  C_6
REMARK    5  A    between atoms: C_17  and  C_18
REMARK                            x       y       z     vdW  Elec       q    Type
REMARK                         _______ _______ _______ _____ _____    ______ ____
ROOT
ATOM      1  O   UNL     1       7.796   5.767  19.539  0.00  0.00    +0.000 OA
ATOM      2  C   UNL     1       7.474   6.128  18.415  0.00  0.00    +0.000 C 
ATOM      3  N   UNL     1       7.803   7.350  17.866  0.00  0.00    +0.000 N 
ATOM      4  H   UNL     1       7.302   7.668  17.045  0.00  0.00    +0.000 HD
ENDROOT
BRANCH   2   5
ATOM      5  C   UNL     1       6.613   5.254  17.571  0.00  0.00    +0.000 A 
ATOM      6  C   UNL     1       7.029   4.840  16.304  0.00  0.00    +0.000 A 
ATOM      7  C   UNL     1       6.173   4.071  15.528  0.00  0.00    +0.000 A 
ATOM      8  F   UNL     1       6.560   3.694  14.304  0.00  0.00    +0.000 F 
ATOM      9  C   UNL     1       4.915   3.698  15.991  0.00  0.00    +0.000 A 
ATOM     10  C   UNL     1       4.490   4.089  17.269  0.00  0.00    +0.000 A 
ATOM     11  C   UNL     1       5.359   4.858  18.063  0.00  0.00    +0.000 A 
BRANCH  10  12
ATOM     12  C   UNL     1       3.118   3.718  17.776  0.00  0.00    +0.000 C 
ATOM     13  F   UNL     1       2.726   2.468  17.402  0.00  0.00    +0.000 F 
ATOM     14  F   UNL     1       3.031   3.747  19.132  0.00  0.00    +0.000 F 
ATOM     15  F   UNL     1       2.154   4.560  17.315  0.00  0.00    +0.000 F 
ENDBRANCH  10  12
ENDBRANCH   2   5
BRANCH   3  16
ATOM     16  C   UNL     1       8.518   8.339  18.656  0.00  0.00    +0.000 C 
BRANCH  16  17
ATOM     17  C   UNL     1       8.418   9.745  18.060  0.00  0.00    +0.000 C 
BRANCH  17  18
ATOM     18  C   UNL     1       9.442  10.671  18.665  0.00  0.00    +0.000 A 
ATOM     19  C   UNL     1      10.418  11.272  17.859  0.00  0.00    +0.000 A 
ATOM     20  C   UNL     1      11.414  12.067  18.428  0.00  0.00    +0.000 A 
ATOM     21  C   UNL     1      11.438  12.276  19.805  0.00  0.00    +0.000 A 
ATOM     22  C   UNL     1      10.464  11.695  20.614  0.00  0.00    +0.000 A 
ATOM     23  C   UNL     1       9.471  10.895  20.048  0.00  0.00    +0.000 A 
ENDBRANCH  17  18
ENDBRANCH  16  17
ENDBRANCH   3  16
TORSDOF 5
ENDMDL
MODEL 4
REMARK VINA RESULT:      -7.8      5.447      7.428
REMARK  Name = 
REMARK  5 active torsions:
REMARK  status: ('A' for Active; 'I' for Inactive)
REMARK    1  A    between atoms: C_2  and  C_12
REMARK    2  A    between atoms: N_3  and  C_4
REMARK    3  A    between atoms: C_4  and  C_5
REMARK    4  A    between atoms: C_5  and  C_6
REMARK    5  A    between atoms: C_17  and  C_18
REMARK                            x       y       z     vdW  Elec       q    Type
REMARK                         _______ _______ _______ _____ _____    ______ ____
ROOT
ATOM      1  O   UNL     1       7.799   5.896  19.388  0.00  0.00    +0.000 OA
ATOM      2  C   UNL     1       7.493   6.294  18.272  0.00  0.00    +0.000 C 
ATOM      3  N   UNL     1       7.782   7.553  17.788  0.00  0.00    +0.000 N 
ATOM      4  H   UNL     1       7.291   7.886  16.967  0.00  0.00    +0.000 HD
ENDROOT
BRANCH   2   5
ATOM      5  C   UNL     1       6.695   5.423  17.365  0.00  0.00    +0.000 A 
ATOM      6  C   UNL     1       6.995   5.334  16.004  0.00  0.00    +0.000 A 
ATOM      7  C   UNL     1       6.193   4.553  15.183  0.00  0.00    +0.000 A 
ATOM      8  F   UNL     1       6.465   4.486  13.875  0.00  0.00    +0.000 F 
ATOM      9  C   UNL     1       5.104   3.852  15.691  0.00  0.00    +0.000 A 
ATOM     10  C   UNL     1       4.801   3.915  17.059  0.00  0.00    +0.000 A 
ATOM     11  C   UNL     1       5.618   4.696  17.895  0.00  0.00    +0.000 A 
BRANCH  10  12
ATOM     12  C   UNL     1       3.606   3.185  17.622  0.00  0.00    +0.000 C 
ATOM     13  F   UNL     1       3.374   3.466  18.935  0.00  0.00    +0.000 F 
ATOM     14  F   UNL     1       2.452   3.479  16.967  0.00  0.00    +0.000 F 
ATOM     15  F   UNL     1       3.749   1.834  17.553  0.00  0.00    +0.000 F 
ENDBRANCH  10  12
ENDBRANCH   2   5
BRANCH   3  16
ATOM     16  C   UNL     1       8.430   8.535  18.641  0.00  0.00    +0.000 C 
BRANCH  16  17
ATOM     17  C   UNL     1       8.583   9.894  17.955  0.00  0.00    +0.000 C 
BRANCH  17  18
ATOM     18  C   UNL     1       9.634  10.735  18.633  0.00  0.00    +0.000 A 
ATOM     19  C   UNL     1       9.619  10.904  20.023  0.00  0.00    +0.000 A 
ATOM     20  C   UNL     1      10.544  11.745  20.644  0.00  0.00    +0.000 A 
ATOM     21  C   UNL     1      11.498  12.417  19.882  0.00  0.00    +0.000 A 
ATOM     22  C   UNL     1      11.531  12.244  18.501  0.00  0.00    +0.000 A 
ATOM     23  C   UNL     1      10.604  11.409  17.877  0.00  0.00    +0.000 A 
ENDBRANCH  17  18
ENDBRANCH  16  17
ENDBRANCH   3  16
TORSDOF 5
ENDMDL
MODEL 5
REMARK VINA RESULT:      -7.8      5.590      7.787
REMARK  Name = 
REMARK  5 active torsions:
REMARK  status: ('A' for Active; 'I' for Inactive)
REMARK    1  A    between atoms: C_2  and  C_12
REMARK    2  A    between atoms: N_3  and  C_4
REMARK    3  A    between atoms: C_4  and  C_5
REMARK    4  A    between atoms: C_5  and  C_6
REMARK    5  A    between atoms: C_17  and  C_18
REMARK                            x       y       z     vdW  Elec       q    Type
REMARK                         _______ _______ _______ _____ _____    ______ ____
ROOT
ATOM      1  O   UNL     1       7.590   5.613  20.000  0.00  0.00    +0.000 OA
ATOM      2  C   UNL     1       7.191   5.867  18.871  0.00  0.00    +0.000 C 
ATOM      3  N   UNL     1       7.560   6.981  18.147  0.00  0.00    +0.000 N 
ATOM      4  H   UNL     1       7.009   7.244  17.339  0.00  0.00    +0.000 HD
ENDROOT
BRANCH   2   5
ATOM      5  C   UNL     1       6.186   4.980  18.221  0.00  0.00    +0.000 A 
ATOM      6  C   UNL     1       6.067   4.925  16.831  0.00  0.00    +0.000 A 
ATOM      7  C   UNL     1       5.081   4.127  16.267  0.00  0.00    +0.000 A 
ATOM      8  F   UNL     1       4.949   4.093  14.936  0.00  0.00    +0.000 F 
ATOM      9  C   UNL     1       4.218   3.375  17.057  0.00  0.00    +0.000 A 
ATOM     10  C   UNL     1       4.339   3.403  18.455  0.00  0.00    +0.000 A 
ATOM     11  C   UNL     1       5.343   4.202  19.029  0.00  0.00    +0.000 A 
BRANCH  10  12
ATOM     12  C   UNL     1       3.393   2.617  19.330  0.00  0.00    +0.000 C 
ATOM     13  F   UNL     1       3.091   1.388  18.826  0.00  0.00    +0.000 F 
ATOM     14  F   UNL     1       3.887   2.400  20.577  0.00  0.00    +0.000 F 
ATOM     15  F   UNL     1       2.200   3.251  19.497  0.00  0.00    +0.000 F 
ENDBRANCH  10  12
ENDBRANCH   2   5
BRANCH   3  16
ATOM     16  C   UNL     1       8.423   7.988  18.742  0.00  0.00    +0.000 C 
BRANCH  16  17
ATOM     17  C   UNL     1       8.369   9.321  17.991  0.00  0.00    +0.000 C 
BRANCH  17  18
ATOM     18  C   UNL     1       9.244  10.357  18.649  0.00  0.00    +0.000 A 
ATOM     19  C   UNL     1      10.079  11.174  17.875  0.00  0.00    +0.000 A 
ATOM     20  C   UNL     1      10.947  12.079  18.488  0.00  0.00    +0.000 A 
ATOM     21  C   UNL     1      10.982  12.183  19.877  0.00  0.00    +0.000 A 
ATOM     22  C   UNL     1      10.146  11.385  20.655  0.00  0.00    +0.000 A 
ATOM     23  C   UNL     1       9.281  10.475  20.045  0.00  0.00    +0.000 A 
ENDBRANCH  17  18
ENDBRANCH  16  17
ENDBRANCH   3  16
TORSDOF 5
ENDMDL
MODEL 6
REMARK VINA RESULT:      -7.7      5.272      7.413
REMARK  Name = 
REMARK  5 active torsions:
REMARK  status: ('A' for Active; 'I' for Inactive)
REMARK    1  A    between atoms: C_2  and  C_12
REMARK    2  A    between atoms: N_3  and  C_4
REMARK    3  A    between atoms: C_4  and  C_5
REMARK    4  A    between atoms: C_5  and  C_6
REMARK    5  A    between atoms: C_17  and  C_18
REMARK                            x       y       z     vdW  Elec       q    Type
REMARK                         _______ _______ _______ _____ _____    ______ ____
ROOT
ATOM      1  O   UNL     1       8.013   5.933  19.529  0.00  0.00    +0.000 OA
ATOM      2  C   UNL     1       7.531   6.337  18.479  0.00  0.00    +0.000 C 
ATOM      3  N   UNL     1       7.794   7.574  17.928  0.00  0.00    +0.000 N 
ATOM      4  H   UNL     1       7.181   7.926  17.203  0.00  0.00    +0.000 HD
ENDROOT
BRANCH   2   5
ATOM      5  C   UNL     1       6.539   5.503  17.746  0.00  0.00    +0.000 A 
ATOM      6  C   UNL     1       5.473   4.897  18.415  0.00  0.00    +0.000 A 
ATOM      7  C   UNL     1       4.603   4.083  17.704  0.00  0.00    +0.000 A 
ATOM      8  F   UNL     1       3.595   3.482  18.348  0.00  0.00    +0.000 F 
ATOM      9  C   UNL     1       4.765   3.866  16.339  0.00  0.00    +0.000 A 
ATOM     10  C   UNL     1       5.820   4.484  15.649  0.00  0.00    +0.000 A 
ATOM     11  C   UNL     1       6.697   5.318  16.364  0.00  0.00    +0.000 A 
BRANCH  10  12
ATOM     12  C   UNL     1       6.029   4.236  14.175  0.00  0.00    +0.000 C 
ATOM     13  F   UNL     1       6.943   5.078  13.614  0.00  0.00    +0.000 F 
ATOM     14  F   UNL     1       6.467   2.977  13.909  0.00  0.00    +0.000 F 
ATOM     15  F   UNL     1       4.885   4.402  13.457  0.00  0.00    +0.000 F 
ENDBRANCH  10  12
ENDBRANCH   2   5
BRANCH   3  16
ATOM     16  C   UNL     1       8.635   8.527  18.633  0.00  0.00    +0.000 C 
BRANCH  16  17
ATOM     17  C   UNL     1       8.609   9.916  17.991  0.00  0.00    +0.000 C 
BRANCH  17  18
ATOM     18  C   UNL     1       9.625  10.831  18.625  0.00  0.00    +0.000 A 
ATOM     19  C   UNL     1      10.562  11.506  17.831  0.00  0.00    +0.000 A 
ATOM     20  C   UNL     1      11.553  12.293  18.422  0.00  0.00    +0.000 A 
ATOM     21  C   UNL     1      11.611  12.419  19.808  0.00  0.00    +0.000 A 
ATOM     22  C   UNL     1      10.675  11.764  20.605  0.00  0.00    +0.000 A 
ATOM     23  C   UNL     1       9.687  10.972  20.018  0.00  0.00    +0.000 A 
ENDBRANCH  17  18
ENDBRANCH  16  17
ENDBRANCH   3  16
TORSDOF 5
ENDMDL
MODEL 7
REMARK VINA RESULT:      -7.7      4.472      7.412
REMARK  Name = 
REMARK  5 active torsions:
REMARK  status: ('A' for Active; 'I' for Inactive)
REMARK    1  A    between atoms: C_2  and  C_12
REMARK    2  A    between atoms: N_3  and  C_4
REMARK    3  A    between atoms: C_4  and  C_5
REMARK    4  A    between atoms: C_5  and  C_6
REMARK    5  A    between atoms: C_17  and  C_18
REMARK                            x       y       z     vdW  Elec       q    Type
REMARK                         _______ _______ _______ _____ _____    ______ ____
ROOT
ATOM      1  O   UNL     1       3.993   7.197  17.021  0.00  0.00    +0.000 OA
ATOM      2  C   UNL     1       3.833   6.054  17.428  0.00  0.00    +0.000 C 
ATOM      3  N   UNL     1       4.369   4.933  16.829  0.00  0.00    +0.000 N 
ATOM      4  H   UNL     1       3.997   4.023  17.074  0.00  0.00    +0.000 HD
ENDROOT
BRANCH   2   5
ATOM      5  C   UNL     1       2.955   5.799  18.604  0.00  0.00    +0.000 A 
ATOM      6  C   UNL     1       2.574   6.837  19.457  0.00  0.00    +0.000 A 
ATOM      7  C   UNL     1       1.800   6.547  20.572  0.00  0.00    +0.000 A 
ATOM      8  F   UNL     1       1.455   7.537  21.404  0.00  0.00    +0.000 F 
ATOM      9  C   UNL     1       1.389   5.247  20.850  0.00  0.00    +0.000 A 
ATOM     10  C   UNL     1       1.746   4.197  19.992  0.00  0.00    +0.000 A 
ATOM     11  C   UNL     1       2.521   4.488  18.855  0.00  0.00    +0.000 A 
BRANCH  10  12
ATOM     12  C   UNL     1       1.335   2.776  20.293  0.00  0.00    +0.000 C 
ATOM     13  F   UNL     1       0.713   2.641  21.498  0.00  0.00    +0.000 F 
ATOM     14  F   UNL     1       0.476   2.269  19.370  0.00  0.00    +0.000 F 
ATOM     15  F   UNL     1       2.399   1.929  20.330  0.00  0.00    +0.000 F 
ENDBRANCH  10  12
ENDBRANCH   2   5
BRANCH   3  16
ATOM     16  C   UNL     1       5.123   5.053  15.592  0.00  0.00    +0.000 C 
BRANCH  16  17
ATOM     17  C   UNL     1       6.602   4.705  15.775  0.00  0.00    +0.000 C 
BRANCH  17  18
ATOM     18  C   UNL     1       7.219   5.502  16.896  0.00  0.00    +0.000 A 
ATOM     19  C   UNL     1       7.574   4.877  18.098  0.00  0.00    +0.000 A 
ATOM     20  C   UNL     1       8.072   5.627  19.165  0.00  0.00    +0.000 A 
ATOM     21  C   UNL     1       8.228   7.006  19.037  0.00  0.00    +0.000 A 
ATOM     22  C   UNL     1       7.891   7.635  17.841  0.00  0.00    +0.000 A 
ATOM     23  C   UNL     1       7.388   6.888  16.774  0.00  0.00    +0.000 A 
ENDBRANCH  17  18
ENDBRANCH  16  17
ENDBRANCH   3  16
TORSDOF 5
ENDMDL
MODEL 8
REMARK VINA RESULT:      -7.6      5.351      7.450
REMARK  Name = 
REMARK  5 active torsions:
REMARK  status: ('A' for Active; 'I' for Inactive)
REMARK    1  A    between atoms: C_2  and  C_12
REMARK    2  A    between atoms: N_3  and  C_4
REMARK    3  A    between atoms: C_4  and  C_5
REMARK    4  A    between atoms: C_5  and  C_6
REMARK    5  A    between atoms: C_17  and  C_18
REMARK                            x       y       z     vdW  Elec       q    Type
REMARK                         _______ _______ _______ _____ _____    ______ ____
ROOT
ATOM      1  O   UNL     1       8.150   6.006  19.318  0.00  0.00    +0.000 OA
ATOM      2  C   UNL     1       7.568   6.492  18.357  0.00  0.00    +0.000 C 
ATOM      3  N   UNL     1       7.753   7.782  17.906  0.00  0.00    +0.000 N 
ATOM      4  H   UNL     1       7.070   8.182  17.274  0.00  0.00    +0.000 HD
ENDROOT
BRANCH   2   5
ATOM      5  C   UNL     1       6.534   5.699  17.635  0.00  0.00    +0.000 A 
ATOM      6  C   UNL     1       5.398   5.228  18.295  0.00  0.00    +0.000 A 
ATOM      7  C   UNL     1       4.486   4.447  17.598  0.00  0.00    +0.000 A 
ATOM      8  F   UNL     1       3.408   3.974  18.236  0.00  0.00    +0.000 F 
ATOM      9  C   UNL     1       4.677   4.133  16.257  0.00  0.00    +0.000 A 
ATOM     10  C   UNL     1       5.804   4.616  15.574  0.00  0.00    +0.000 A 
ATOM     11  C   UNL     1       6.724   5.417  16.273  0.00  0.00    +0.000 A 
BRANCH  10  12
ATOM     12  C   UNL     1       6.043   4.261  14.127  0.00  0.00    +0.000 C 
ATOM     13  F   UNL     1       6.920   5.099  13.506  0.00  0.00    +0.000 F 
ATOM     14  F   UNL     1       6.545   3.008  13.968  0.00  0.00    +0.000 F 
ATOM     15  F   UNL     1       4.901   4.310  13.389  0.00  0.00    +0.000 F 
ENDBRANCH  10  12
ENDBRANCH   2   5
BRANCH   3  16
ATOM     16  C   UNL     1       8.632   8.690  18.625  0.00  0.00    +0.000 C 
BRANCH  16  17
ATOM     17  C   UNL     1       8.688  10.078  17.983  0.00  0.00    +0.000 C 
BRANCH  17  18
ATOM     18  C   UNL     1       9.772  10.924  18.600  0.00  0.00    +0.000 A 
ATOM     19  C   UNL     1       9.854  11.067  19.991  0.00  0.00    +0.000 A 
ATOM     20  C   UNL     1      10.809  11.912  20.561  0.00  0.00    +0.000 A 
ATOM     21  C   UNL     1      11.695  12.614  19.746  0.00  0.00    +0.000 A 
ATOM     22  C   UNL     1      11.631  12.468  18.362  0.00  0.00    +0.000 A 
ATOM     23  C   UNL     1      10.674  11.628  17.790  0.00  0.00    +0.000 A 
ENDBRANCH  17  18
ENDBRANCH  16  17
ENDBRANCH   3  16
TORSDOF 5
ENDMDL
MODEL 9
REMARK VINA RESULT:      -7.6      4.203      7.711
REMARK  Name = 
REMARK  5 active torsions:
REMARK  status: ('A' for Active; 'I' for Inactive)
REMARK    1  A    between atoms: C_2  and  C_12
REMARK    2  A    between atoms: N_3  and  C_4
REMARK    3  A    between atoms: C_4  and  C_5
REMARK    4  A    between atoms: C_5  and  C_6
REMARK    5  A    between atoms: C_17  and  C_18
REMARK                            x       y       z     vdW  Elec       q    Type
REMARK                         _______ _______ _______ _____ _____    ______ ____
ROOT
ATOM      1  O   UNL     1       6.278   4.892  19.056  0.00  0.00    +0.000 OA
ATOM      2  C   UNL     1       5.545   4.369  18.228  0.00  0.00    +0.000 C 
ATOM      3  N   UNL     1       5.934   4.031  16.948  0.00  0.00    +0.000 N 
ATOM      4  H   UNL     1       5.220   3.833  16.256  0.00  0.00    +0.000 HD
ENDROOT
BRANCH   2   5
ATOM      5  C   UNL     1       4.112   4.123  18.552  0.00  0.00    +0.000 A 
ATOM      6  C   UNL     1       3.107   4.397  17.623  0.00  0.00    +0.000 A 
ATOM      7  C   UNL     1       1.780   4.206  17.985  0.00  0.00    +0.000 A 
ATOM      8  F   UNL     1       0.814   4.491  17.104  0.00  0.00    +0.000 F 
ATOM      9  C   UNL     1       1.435   3.739  19.249  0.00  0.00    +0.000 A 
ATOM     10  C   UNL     1       2.434   3.440  20.187  0.00  0.00    +0.000 A 
ATOM     11  C   UNL     1       3.779   3.622  19.820  0.00  0.00    +0.000 A 
BRANCH  10  12
ATOM     12  C   UNL     1       2.077   2.961  21.573  0.00  0.00    +0.000 C 
ATOM     13  F   UNL     1       0.765   2.618  21.701  0.00  0.00    +0.000 F 
ATOM     14  F   UNL     1       2.790   1.868  21.952  0.00  0.00    +0.000 F 
ATOM     15  F   UNL     1       2.305   3.911  22.520  0.00  0.00    +0.000 F 
ENDBRANCH  10  12
ENDBRANCH   2   5
BRANCH   3  16
ATOM     16  C   UNL     1       7.270   4.357  16.478  0.00  0.00    +0.000 C 
BRANCH  16  17
ATOM     17  C   UNL     1       7.251   5.337  15.302  0.00  0.00    +0.000 C 
BRANCH  17  18
ATOM     18  C   UNL     1       6.734   4.678  14.048  0.00  0.00    +0.000 A 
ATOM     19  C   UNL     1       5.433   4.159  14.006  0.00  0.00    +0.000 A 
ATOM     20  C   UNL     1       4.979   3.480  12.874  0.00  0.00    +0.000 A 
ATOM     21  C   UNL     1       5.817   3.323  11.772  0.00  0.00    +0.000 A 
ATOM     22  C   UNL     1       7.107   3.848  11.798  0.00  0.00    +0.000 A 
ATOM     23  C   UNL     1       7.565   4.521  12.931  0.00  0.00    +0.000 A 
ENDBRANCH  17  18
ENDBRANCH  16  17
ENDBRANCH   3  16
TORSDOF 5
ENDMDL
