MODEL 1
REMARK VINA RESULT:      -8.7      0.000      0.000
REMARK  Name = 
REMARK  10 active torsions:
REMARK  status: ('A' for Active; 'I' for Inactive)
REMARK    1  A    between atoms: C_1  and  O_2
REMARK    2  A    between atoms: O_2  and  C_3
REMARK    3  A    between atoms: C_6  and  C_7
REMARK    4  A    between atoms: C_7  and  N_8
REMARK    5  A    between atoms: C_10  and  C_11
REMARK    6  A    between atoms: C_11  and  O_12
REMARK    7  A    between atoms: O_12  and  N_13
REMARK    8  A    between atoms: C_14  and  C_15
REMARK    9  A    between atoms: C_16  and  C_17
REMARK   10  A    between atoms: C_26  and  C_27
REMARK                            x       y       z     vdW  Elec       q    Type
REMARK                         _______ _______ _______ _____ _____    ______ ____
ROOT
ATOM      1  N   UNL     1       5.005   6.071  16.865  0.00  0.00    +0.000 NA
ATOM      2  C   UNL     1       4.803   6.326  18.119  0.00  0.00    +0.000 C 
ENDROOT
BRANCH   2   3
ATOM      3  C   UNL     1       3.766   5.693  18.886  0.00  0.00    +0.000 A 
ATOM      4  C   UNL     1       2.582   6.245  19.359  0.00  0.00    +0.000 A 
ATOM      5  N   UNL     1       1.906   5.365  20.168  0.00  0.00    +0.000 NA
ATOM      6  C   UNL     1       2.644   4.277  20.209  0.00  0.00    +0.000 A 
ATOM      7  C   UNL     1       2.471   3.062  20.962  0.00  0.00    +0.000 A 
ATOM      8  C   UNL     1       1.258   2.772  21.807  0.00  0.00    +0.000 C 
ATOM      9  C   UNL     1       3.463   2.141  20.911  0.00  0.00    +0.000 A 
ATOM     10  C   UNL     1       4.626   2.294  20.059  0.00  0.00    +0.000 A 
ATOM     11  C   UNL     1       4.756   3.411  19.325  0.00  0.00    +0.000 A 
ATOM     12  N   UNL     1       3.787   4.410  19.417  0.00  0.00    +0.000 N 
BRANCH   4  13
ATOM     13  C   UNL     1       2.106   7.607  19.149  0.00  0.00    +0.000 A 
ATOM     14  C   UNL     1       2.243   8.264  17.917  0.00  0.00    +0.000 A 
ATOM     15  C   UNL     1       1.846   9.597  17.778  0.00  0.00    +0.000 A 
ATOM     16  C   UNL     1       1.286  10.263  18.861  0.00  0.00    +0.000 A 
ATOM     17  F   UNL     1       0.920  11.544  18.729  0.00  0.00    +0.000 F 
ATOM     18  C   UNL     1       1.097   9.617  20.076  0.00  0.00    +0.000 A 
ATOM     19  C   UNL     1       1.505   8.288  20.218  0.00  0.00    +0.000 A 
ENDBRANCH   4  13
ENDBRANCH   2   3
BRANCH   1  20
ATOM     20  O   UNL     1       6.077   6.871  16.418  0.00  0.00    +0.000 OA
BRANCH  20  21
ATOM     21  C   UNL     1       7.190   6.707  17.306  0.00  0.00    +0.000 C 
BRANCH  21  24
ATOM     22  N   UNL     1       8.769   9.641  18.745  0.00  0.00    +0.000 N 
ATOM     23  C   UNL     1       8.604   8.289  18.809  0.00  0.00    +0.000 A 
ATOM     24  C   UNL     1       7.692   8.013  17.809  0.00  0.00    +0.000 A 
ATOM     25  N   UNL     1       7.313   9.193  17.220  0.00  0.00    +0.000 NA
ATOM     26  N   UNL     1       7.983  10.181  17.799  0.00  0.00    +0.000 NA
BRANCH  22  27
ATOM     27  C   UNL     1       9.806  10.441  19.376  0.00  0.00    +0.000 C 
BRANCH  27  31
ATOM     28  C   UNL     1      10.839  14.102  17.317  0.00  0.00    +0.000 A 
ATOM     29  C   UNL     1       9.831  14.091  18.278  0.00  0.00    +0.000 A 
ATOM     30  C   UNL     1       9.485  12.906  18.937  0.00  0.00    +0.000 A 
ATOM     31  C   UNL     1      10.132  11.704  18.619  0.00  0.00    +0.000 A 
ATOM     32  C   UNL     1      11.128  11.717  17.632  0.00  0.00    +0.000 A 
ATOM     33  C   UNL     1      11.478  12.908  16.984  0.00  0.00    +0.000 A 
BRANCH  28  35
ATOM     34  C   UNL     1      10.663  16.455  17.498  0.00  0.00    +0.000 C 
ATOM     35  O   UNL     1      11.084  15.321  16.747  0.00  0.00    +0.000 OA
ENDBRANCH  28  35
ENDBRANCH  27  31
ENDBRANCH  22  27
ENDBRANCH  21  24
ENDBRANCH  20  21
ENDBRANCH   1  20
TORSDOF 8
ENDMDL
MODEL 2
REMARK VINA RESULT:      -8.2      5.279      8.645
REMARK  Name = 
REMARK  10 active torsions:
REMARK  status: ('A' for Active; 'I' for Inactive)
REMARK    1  A    between atoms: C_1  and  O_2
REMARK    2  A    between atoms: O_2  and  C_3
REMARK    3  A    between atoms: C_6  and  C_7
REMARK    4  A    between atoms: C_7  and  N_8
REMARK    5  A    between atoms: C_10  and  C_11
REMARK    6  A    between atoms: C_11  and  O_12
REMARK    7  A    between atoms: O_12  and  N_13
REMARK    8  A    between atoms: C_14  and  C_15
REMARK    9  A    between atoms: C_16  and  C_17
REMARK   10  A    between atoms: C_26  and  C_27
REMARK                            x       y       z     vdW  Elec       q    Type
REMARK                         _______ _______ _______ _____ _____    ______ ____
ROOT
ATOM      1  N   UNL     1       3.305   7.724  18.081  0.00  0.00    +0.000 NA
ATOM      2  C   UNL     1       3.046   6.514  17.700  0.00  0.00    +0.000 C 
ENDROOT
BRANCH   2   3
ATOM      3  C   UNL     1       3.636   5.359  18.318  0.00  0.00    +0.000 A 
ATOM      4  C   UNL     1       4.682   4.570  17.854  0.00  0.00    +0.000 A 
ATOM      5  N   UNL     1       4.877   3.473  18.657  0.00  0.00    +0.000 NA
ATOM      6  C   UNL     1       3.976   3.562  19.610  0.00  0.00    +0.000 A 
ATOM      7  C   UNL     1       3.660   2.653  20.681  0.00  0.00    +0.000 A 
ATOM      8  C   UNL     1       4.453   1.405  20.975  0.00  0.00    +0.000 C 
ATOM      9  C   UNL     1       2.586   2.937  21.455  0.00  0.00    +0.000 A 
ATOM     10  C   UNL     1       1.816   4.157  21.302  0.00  0.00    +0.000 A 
ATOM     11  C   UNL     1       2.146   5.020  20.329  0.00  0.00    +0.000 A 
ATOM     12  N   UNL     1       3.202   4.716  19.469  0.00  0.00    +0.000 N 
BRANCH   4  13
ATOM     13  C   UNL     1       5.448   4.764  16.629  0.00  0.00    +0.000 A 
ATOM     14  C   UNL     1       5.025   4.249  15.394  0.00  0.00    +0.000 A 
ATOM     15  C   UNL     1       5.827   4.386  14.258  0.00  0.00    +0.000 A 
ATOM     16  C   UNL     1       7.036   5.065  14.349  0.00  0.00    +0.000 A 
ATOM     17  F   UNL     1       7.808   5.183  13.261  0.00  0.00    +0.000 F 
ATOM     18  C   UNL     1       7.451   5.625  15.550  0.00  0.00    +0.000 A 
ATOM     19  C   UNL     1       6.655   5.476  16.688  0.00  0.00    +0.000 A 
ENDBRANCH   4  13
ENDBRANCH   2   3
BRANCH   1  20
ATOM     20  O   UNL     1       2.580   8.612  17.258  0.00  0.00    +0.000 OA
BRANCH  20  21
ATOM     21  C   UNL     1       1.243   8.734  17.758  0.00  0.00    +0.000 C 
BRANCH  21  24
ATOM     22  N   UNL     1       0.979  11.220  20.389  0.00  0.00    +0.000 N 
ATOM     23  C   UNL     1       1.182  10.982  19.061  0.00  0.00    +0.000 A 
ATOM     24  C   UNL     1       1.180   9.605  18.960  0.00  0.00    +0.000 A 
ATOM     25  N   UNL     1       1.024   9.072  20.215  0.00  0.00    +0.000 NA
ATOM     26  N   UNL     1       0.898  10.070  21.080  0.00  0.00    +0.000 NA
BRANCH  22  27
ATOM     27  C   UNL     1       0.625  12.479  21.022  0.00  0.00    +0.000 C 
BRANCH  27  31
ATOM     28  C   UNL     1      -3.507  12.490  22.305  0.00  0.00    +0.000 A 
ATOM     29  C   UNL     1      -3.182  12.666  20.962  0.00  0.00    +0.000 A 
ATOM     30  C   UNL     1      -1.847  12.676  20.545  0.00  0.00    +0.000 A 
ATOM     31  C   UNL     1      -0.811  12.535  21.480  0.00  0.00    +0.000 A 
ATOM     32  C   UNL     1      -1.144  12.385  22.834  0.00  0.00    +0.000 A 
ATOM     33  C   UNL     1      -2.483  12.364  23.244  0.00  0.00    +0.000 A 
BRANCH  28  35
ATOM     34  C   UNL     1      -5.659  13.275  21.712  0.00  0.00    +0.000 C 
ATOM     35  O   UNL     1      -4.845  12.497  22.585  0.00  0.00    +0.000 OA
ENDBRANCH  28  35
ENDBRANCH  27  31
ENDBRANCH  22  27
ENDBRANCH  21  24
ENDBRANCH  20  21
ENDBRANCH   1  20
TORSDOF 8
ENDMDL
MODEL 3
REMARK VINA RESULT:      -8.2      5.311      8.754
REMARK  Name = 
REMARK  10 active torsions:
REMARK  status: ('A' for Active; 'I' for Inactive)
REMARK    1  A    between atoms: C_1  and  O_2
REMARK    2  A    between atoms: O_2  and  C_3
REMARK    3  A    between atoms: C_6  and  C_7
REMARK    4  A    between atoms: C_7  and  N_8
REMARK    5  A    between atoms: C_10  and  C_11
REMARK    6  A    between atoms: C_11  and  O_12
REMARK    7  A    between atoms: O_12  and  N_13
REMARK    8  A    between atoms: C_14  and  C_15
REMARK    9  A    between atoms: C_16  and  C_17
REMARK   10  A    between atoms: C_26  and  C_27
REMARK                            x       y       z     vdW  Elec       q    Type
REMARK                         _______ _______ _______ _____ _____    ______ ____
ROOT
ATOM      1  N   UNL     1       3.133   7.681  18.261  0.00  0.00    +0.000 NA
ATOM      2  C   UNL     1       3.271   6.553  17.640  0.00  0.00    +0.000 C 
ENDROOT
BRANCH   2   3
ATOM      3  C   UNL     1       3.787   5.371  18.275  0.00  0.00    +0.000 A 
ATOM      4  C   UNL     1       4.796   4.525  17.834  0.00  0.00    +0.000 A 
ATOM      5  N   UNL     1       4.918   3.424  18.645  0.00  0.00    +0.000 NA
ATOM      6  C   UNL     1       4.005   3.566  19.581  0.00  0.00    +0.000 A 
ATOM      7  C   UNL     1       3.622   2.682  20.651  0.00  0.00    +0.000 A 
ATOM      8  C   UNL     1       4.342   1.395  20.965  0.00  0.00    +0.000 C 
ATOM      9  C   UNL     1       2.550   3.027  21.403  0.00  0.00    +0.000 A 
ATOM     10  C   UNL     1       1.850   4.286  21.230  0.00  0.00    +0.000 A 
ATOM     11  C   UNL     1       2.244   5.125  20.260  0.00  0.00    +0.000 A 
ATOM     12  N   UNL     1       3.297   4.760  19.420  0.00  0.00    +0.000 N 
BRANCH   4  13
ATOM     13  C   UNL     1       5.594   4.671  16.622  0.00  0.00    +0.000 A 
ATOM     14  C   UNL     1       6.772   5.434  16.591  0.00  0.00    +0.000 A 
ATOM     15  C   UNL     1       7.465   5.616  15.391  0.00  0.00    +0.000 A 
ATOM     16  C   UNL     1       7.000   5.010  14.230  0.00  0.00    +0.000 A 
ATOM     17  F   UNL     1       7.659   5.197  13.080  0.00  0.00    +0.000 F 
ATOM     18  C   UNL     1       5.863   4.212  14.248  0.00  0.00    +0.000 A 
ATOM     19  C   UNL     1       5.163   4.041  15.446  0.00  0.00    +0.000 A 
ENDBRANCH   4  13
ENDBRANCH   2   3
BRANCH   1  20
ATOM     20  O   UNL     1       2.623   8.629  17.348  0.00  0.00    +0.000 OA
BRANCH  20  21
ATOM     21  C   UNL     1       1.259   8.915  17.679  0.00  0.00    +0.000 C 
BRANCH  21  24
ATOM     22  N   UNL     1       0.863  11.270  20.412  0.00  0.00    +0.000 N 
ATOM     23  C   UNL     1       1.078  11.100  19.076  0.00  0.00    +0.000 A 
ATOM     24  C   UNL     1       1.150   9.731  18.917  0.00  0.00    +0.000 A 
ATOM     25  N   UNL     1       1.025   9.137  20.148  0.00  0.00    +0.000 NA
ATOM     26  N   UNL     1       0.846  10.090  21.054  0.00  0.00    +0.000 NA
BRANCH  22  27
ATOM     27  C   UNL     1       0.442  12.480  21.098  0.00  0.00    +0.000 C 
BRANCH  27  31
ATOM     28  C   UNL     1      -3.689  12.546  22.379  0.00  0.00    +0.000 A 
ATOM     29  C   UNL     1      -2.674  12.234  23.279  0.00  0.00    +0.000 A 
ATOM     30  C   UNL     1      -1.338  12.199  22.866  0.00  0.00    +0.000 A 
ATOM     31  C   UNL     1      -1.003  12.452  21.528  0.00  0.00    +0.000 A 
ATOM     32  C   UNL     1      -2.032  12.739  20.621  0.00  0.00    +0.000 A 
ATOM     33  C   UNL     1      -3.367  12.784  21.043  0.00  0.00    +0.000 A 
BRANCH  28  35
ATOM     34  C   UNL     1      -5.277  13.660  23.733  0.00  0.00    +0.000 C 
ATOM     35  O   UNL     1      -4.951  12.549  22.905  0.00  0.00    +0.000 OA
ENDBRANCH  28  35
ENDBRANCH  27  31
ENDBRANCH  22  27
ENDBRANCH  21  24
ENDBRANCH  20  21
ENDBRANCH   1  20
TORSDOF 8
ENDMDL
MODEL 4
REMARK VINA RESULT:      -8.1      5.634      9.755
REMARK  Name = 
REMARK  10 active torsions:
REMARK  status: ('A' for Active; 'I' for Inactive)
REMARK    1  A    between atoms: C_1  and  O_2
REMARK    2  A    between atoms: O_2  and  C_3
REMARK    3  A    between atoms: C_6  and  C_7
REMARK    4  A    between atoms: C_7  and  N_8
REMARK    5  A    between atoms: C_10  and  C_11
REMARK    6  A    between atoms: C_11  and  O_12
REMARK    7  A    between atoms: O_12  and  N_13
REMARK    8  A    between atoms: C_14  and  C_15
REMARK    9  A    between atoms: C_16  and  C_17
REMARK   10  A    between atoms: C_26  and  C_27
REMARK                            x       y       z     vdW  Elec       q    Type
REMARK                         _______ _______ _______ _____ _____    ______ ____
ROOT
ATOM      1  N   UNL     1      -0.967  11.222  20.492  0.00  0.00    +0.000 NA
ATOM      2  C   UNL     1      -1.704  12.203  20.075  0.00  0.00    +0.000 C 
ENDROOT
BRANCH   2   3
ATOM      3  C   UNL     1      -3.140  12.161  20.095  0.00  0.00    +0.000 A 
ATOM      4  C   UNL     1      -4.007  11.761  19.086  0.00  0.00    +0.000 A 
ATOM      5  N   UNL     1      -5.317  11.989  19.429  0.00  0.00    +0.000 NA
ATOM      6  C   UNL     1      -5.284  12.522  20.631  0.00  0.00    +0.000 A 
ATOM      7  C   UNL     1      -6.350  13.035  21.451  0.00  0.00    +0.000 A 
ATOM      8  C   UNL     1      -7.808  12.931  21.083  0.00  0.00    +0.000 C 
ATOM      9  C   UNL     1      -6.015  13.652  22.610  0.00  0.00    +0.000 A 
ATOM     10  C   UNL     1      -4.648  13.723  23.088  0.00  0.00    +0.000 A 
ATOM     11  C   UNL     1      -3.665  13.201  22.337  0.00  0.00    +0.000 A 
ATOM     12  N   UNL     1      -3.973  12.627  21.103  0.00  0.00    +0.000 N 
BRANCH   4  13
ATOM     13  C   UNL     1      -3.642  11.254  17.769  0.00  0.00    +0.000 A 
ATOM     14  C   UNL     1      -4.312  11.653  16.602  0.00  0.00    +0.000 A 
ATOM     15  C   UNL     1      -3.986  11.083  15.369  0.00  0.00    +0.000 A 
ATOM     16  C   UNL     1      -2.971  10.138  15.296  0.00  0.00    +0.000 A 
ATOM     17  F   UNL     1      -2.670   9.583  14.114  0.00  0.00    +0.000 F 
ATOM     18  C   UNL     1      -2.262   9.763  16.430  0.00  0.00    +0.000 A 
ATOM     19  C   UNL     1      -2.596  10.324  17.665  0.00  0.00    +0.000 A 
ENDBRANCH   4  13
ENDBRANCH   2   3
BRANCH   1  20
ATOM     20  O   UNL     1       0.386  11.581  20.316  0.00  0.00    +0.000 OA
BRANCH  20  21
ATOM     21  C   UNL     1       0.760  11.360  18.951  0.00  0.00    +0.000 C 
BRANCH  21  24
ATOM     22  N   UNL     1       2.174   8.017  18.918  0.00  0.00    +0.000 N 
ATOM     23  C   UNL     1       1.638   9.021  19.670  0.00  0.00    +0.000 A 
ATOM     24  C   UNL     1       1.424  10.043  18.766  0.00  0.00    +0.000 A 
ATOM     25  N   UNL     1       1.874   9.641  17.533  0.00  0.00    +0.000 NA
ATOM     26  N   UNL     1       2.326   8.399  17.639  0.00  0.00    +0.000 NA
BRANCH  22  27
ATOM     27  C   UNL     1       2.345   6.622  19.289  0.00  0.00    +0.000 C 
BRANCH  27  31
ATOM     28  C   UNL     1       4.977   4.354  16.712  0.00  0.00    +0.000 A 
ATOM     29  C   UNL     1       5.420   5.525  17.323  0.00  0.00    +0.000 A 
ATOM     30  C   UNL     1       4.568   6.268  18.147  0.00  0.00    +0.000 A 
ATOM     31  C   UNL     1       3.242   5.858  18.349  0.00  0.00    +0.000 A 
ATOM     32  C   UNL     1       2.794   4.694  17.709  0.00  0.00    +0.000 A 
ATOM     33  C   UNL     1       3.655   3.947  16.896  0.00  0.00    +0.000 A 
BRANCH  28  35
ATOM     34  C   UNL     1       5.865   4.024  14.544  0.00  0.00    +0.000 C 
ATOM     35  O   UNL     1       5.904   3.718  15.934  0.00  0.00    +0.000 OA
ENDBRANCH  28  35
ENDBRANCH  27  31
ENDBRANCH  22  27
ENDBRANCH  21  24
ENDBRANCH  20  21
ENDBRANCH   1  20
TORSDOF 8
ENDMDL
MODEL 5
REMARK VINA RESULT:      -8.0      3.566      5.468
REMARK  Name = 
REMARK  10 active torsions:
REMARK  status: ('A' for Active; 'I' for Inactive)
REMARK    1  A    between atoms: C_1  and  O_2
REMARK    2  A    between atoms: O_2  and  C_3
REMARK    3  A    between atoms: C_6  and  C_7
REMARK    4  A    between atoms: C_7  and  N_8
REMARK    5  A    between atoms: C_10  and  C_11
REMARK    6  A    between atoms: C_11  and  O_12
REMARK    7  A    between atoms: O_12  and  N_13
REMARK    8  A    between atoms: C_14  and  C_15
REMARK    9  A    between atoms: C_16  and  C_17
REMARK   10  A    between atoms: C_26  and  C_27
REMARK                            x       y       z     vdW  Elec       q    Type
REMARK                         _______ _______ _______ _____ _____    ______ ____
ROOT
ATOM      1  N   UNL     1       7.693   5.958  17.666  0.00  0.00    +0.000 NA
ATOM      2  C   UNL     1       6.943   6.378  16.697  0.00  0.00    +0.000 C 
ENDROOT
BRANCH   2   3
ATOM      3  C   UNL     1       6.289   5.490  15.775  0.00  0.00    +0.000 A 
ATOM      4  C   UNL     1       5.209   4.648  16.007  0.00  0.00    +0.000 A 
ATOM      5  N   UNL     1       4.951   3.852  14.917  0.00  0.00    +0.000 NA
ATOM      6  C   UNL     1       5.848   4.181  14.014  0.00  0.00    +0.000 A 
ATOM      7  C   UNL     1       6.108   3.621  12.713  0.00  0.00    +0.000 A 
ATOM      8  C   UNL     1       5.249   2.557  12.078  0.00  0.00    +0.000 C 
ATOM      9  C   UNL     1       7.189   4.073  12.035  0.00  0.00    +0.000 A 
ATOM     10  C   UNL     1       8.022   5.154  12.527  0.00  0.00    +0.000 A 
ATOM     11  C   UNL     1       7.744   5.701  13.721  0.00  0.00    +0.000 A 
ATOM     12  N   UNL     1       6.681   5.202  14.475  0.00  0.00    +0.000 N 
BRANCH   4  13
ATOM     13  C   UNL     1       4.463   4.502  17.251  0.00  0.00    +0.000 A 
ATOM     14  C   UNL     1       3.332   5.280  17.539  0.00  0.00    +0.000 A 
ATOM     15  C   UNL     1       2.692   5.167  18.777  0.00  0.00    +0.000 A 
ATOM     16  C   UNL     1       3.164   4.256  19.713  0.00  0.00    +0.000 A 
ATOM     17  F   UNL     1       2.557   4.159  20.903  0.00  0.00    +0.000 F 
ATOM     18  C   UNL     1       4.253   3.441  19.430  0.00  0.00    +0.000 A 
ATOM     19  C   UNL     1       4.900   3.564  18.198  0.00  0.00    +0.000 A 
ENDBRANCH   4  13
ENDBRANCH   2   3
BRANCH   1  20
ATOM     20  O   UNL     1       8.189   7.081  18.361  0.00  0.00    +0.000 OA
BRANCH  20  21
ATOM     21  C   UNL     1       7.618   8.271  17.803  0.00  0.00    +0.000 C 
BRANCH  21  24
ATOM     22  N   UNL     1       9.661  10.954  19.146  0.00  0.00    +0.000 N 
ATOM     23  C   UNL     1       9.174   9.692  19.325  0.00  0.00    +0.000 A 
ATOM     24  C   UNL     1       8.350   9.491  18.236  0.00  0.00    +0.000 A 
ATOM     25  N   UNL     1       8.334  10.634  17.478  0.00  0.00    +0.000 NA
ATOM     26  N   UNL     1       9.144  11.521  18.043  0.00  0.00    +0.000 NA
BRANCH  22  27
ATOM     27  C   UNL     1      10.774  11.584  19.836  0.00  0.00    +0.000 C 
BRANCH  27  31
ATOM     28  C   UNL     1       9.460  14.832  22.373  0.00  0.00    +0.000 A 
ATOM     29  C   UNL     1      10.442  15.041  21.407  0.00  0.00    +0.000 A 
ATOM     30  C   UNL     1      10.879  13.990  20.594  0.00  0.00    +0.000 A 
ATOM     31  C   UNL     1      10.352  12.701  20.757  0.00  0.00    +0.000 A 
ATOM     32  C   UNL     1       9.383  12.492  21.749  0.00  0.00    +0.000 A 
ATOM     33  C   UNL     1       8.941  13.550  22.553  0.00  0.00    +0.000 A 
BRANCH  28  35
ATOM     34  C   UNL     1      10.106  16.415  24.009  0.00  0.00    +0.000 C 
ATOM     35  O   UNL     1       9.118  15.938  23.101  0.00  0.00    +0.000 OA
ENDBRANCH  28  35
ENDBRANCH  27  31
ENDBRANCH  22  27
ENDBRANCH  21  24
ENDBRANCH  20  21
ENDBRANCH   1  20
TORSDOF 8
ENDMDL
MODEL 6
REMARK VINA RESULT:      -7.9      5.311      8.898
REMARK  Name = 
REMARK  10 active torsions:
REMARK  status: ('A' for Active; 'I' for Inactive)
REMARK    1  A    between atoms: C_1  and  O_2
REMARK    2  A    between atoms: O_2  and  C_3
REMARK    3  A    between atoms: C_6  and  C_7
REMARK    4  A    between atoms: C_7  and  N_8
REMARK    5  A    between atoms: C_10  and  C_11
REMARK    6  A    between atoms: C_11  and  O_12
REMARK    7  A    between atoms: O_12  and  N_13
REMARK    8  A    between atoms: C_14  and  C_15
REMARK    9  A    between atoms: C_16  and  C_17
REMARK   10  A    between atoms: C_26  and  C_27
REMARK                            x       y       z     vdW  Elec       q    Type
REMARK                         _______ _______ _______ _____ _____    ______ ____
ROOT
ATOM      1  N   UNL     1       2.764   7.362  18.443  0.00  0.00    +0.000 NA
ATOM      2  C   UNL     1       2.972   6.228  17.853  0.00  0.00    +0.000 C 
ENDROOT
BRANCH   2   3
ATOM      3  C   UNL     1       3.618   5.119  18.501  0.00  0.00    +0.000 A 
ATOM      4  C   UNL     1       4.725   4.396  18.076  0.00  0.00    +0.000 A 
ATOM      5  N   UNL     1       4.968   3.321  18.895  0.00  0.00    +0.000 NA
ATOM      6  C   UNL     1       4.034   3.359  19.820  0.00  0.00    +0.000 A 
ATOM      7  C   UNL     1       3.747   2.441  20.892  0.00  0.00    +0.000 A 
ATOM      8  C   UNL     1       4.611   1.250  21.222  0.00  0.00    +0.000 C 
ATOM      9  C   UNL     1       2.634   2.660  21.631  0.00  0.00    +0.000 A 
ATOM     10  C   UNL     1       1.791   3.826  21.443  0.00  0.00    +0.000 A 
ATOM     11  C   UNL     1       2.094   4.701  20.471  0.00  0.00    +0.000 A 
ATOM     12  N   UNL     1       3.192   4.459  19.645  0.00  0.00    +0.000 N 
BRANCH   4  13
ATOM     13  C   UNL     1       5.514   4.629  16.871  0.00  0.00    +0.000 A 
ATOM     14  C   UNL     1       6.612   5.503  16.856  0.00  0.00    +0.000 A 
ATOM     15  C   UNL     1       7.293   5.761  15.663  0.00  0.00    +0.000 A 
ATOM     16  C   UNL     1       6.896   5.125  14.493  0.00  0.00    +0.000 A 
ATOM     17  F   UNL     1       7.542   5.386  13.350  0.00  0.00    +0.000 F 
ATOM     18  C   UNL     1       5.842   4.221  14.496  0.00  0.00    +0.000 A 
ATOM     19  C   UNL     1       5.153   3.972  15.686  0.00  0.00    +0.000 A 
ENDBRANCH   4  13
ENDBRANCH   2   3
BRANCH   1  20
ATOM     20  O   UNL     1       2.133   8.228  17.526  0.00  0.00    +0.000 OA
BRANCH  20  21
ATOM     21  C   UNL     1       2.350   9.585  17.933  0.00  0.00    +0.000 C 
BRANCH  21  24
ATOM     22  N   UNL     1      -0.454  11.563  19.115  0.00  0.00    +0.000 N 
ATOM     23  C   UNL     1       0.902  11.420  19.069  0.00  0.00    +0.000 A 
ATOM     24  C   UNL     1       1.094  10.230  18.396  0.00  0.00    +0.000 A 
ATOM     25  N   UNL     1      -0.132   9.686  18.106  0.00  0.00    +0.000 NA
ATOM     26  N   UNL     1      -1.071  10.512  18.547  0.00  0.00    +0.000 NA
BRANCH  22  27
ATOM     27  C   UNL     1      -1.212  12.753  19.464  0.00  0.00    +0.000 C 
BRANCH  27  31
ATOM     28  C   UNL     1      -3.121  12.442  23.334  0.00  0.00    +0.000 A 
ATOM     29  C   UNL     1      -3.615  13.316  22.369  0.00  0.00    +0.000 A 
ATOM     30  C   UNL     1      -2.992  13.429  21.121  0.00  0.00    +0.000 A 
ATOM     31  C   UNL     1      -1.843  12.681  20.832  0.00  0.00    +0.000 A 
ATOM     32  C   UNL     1      -1.335  11.822  21.817  0.00  0.00    +0.000 A 
ATOM     33  C   UNL     1      -1.968  11.705  23.060  0.00  0.00    +0.000 A 
BRANCH  28  35
ATOM     34  C   UNL     1      -5.236  12.400  24.393  0.00  0.00    +0.000 C 
ATOM     35  O   UNL     1      -3.817  12.421  24.510  0.00  0.00    +0.000 OA
ENDBRANCH  28  35
ENDBRANCH  27  31
ENDBRANCH  22  27
ENDBRANCH  21  24
ENDBRANCH  20  21
ENDBRANCH   1  20
TORSDOF 8
ENDMDL
MODEL 7
REMARK VINA RESULT:      -7.9      5.042      6.968
REMARK  Name = 
REMARK  10 active torsions:
REMARK  status: ('A' for Active; 'I' for Inactive)
REMARK    1  A    between atoms: C_1  and  O_2
REMARK    2  A    between atoms: O_2  and  C_3
REMARK    3  A    between atoms: C_6  and  C_7
REMARK    4  A    between atoms: C_7  and  N_8
REMARK    5  A    between atoms: C_10  and  C_11
REMARK    6  A    between atoms: C_11  and  O_12
REMARK    7  A    between atoms: O_12  and  N_13
REMARK    8  A    between atoms: C_14  and  C_15
REMARK    9  A    between atoms: C_16  and  C_17
REMARK   10  A    between atoms: C_26  and  C_27
REMARK                            x       y       z     vdW  Elec       q    Type
REMARK                         _______ _______ _______ _____ _____    ______ ____
ROOT
ATOM      1  N   UNL     1       3.623   7.464  17.633  0.00  0.00    +0.000 NA
ATOM      2  C   UNL     1       3.008   6.342  17.834  0.00  0.00    +0.000 C 
ENDROOT
BRANCH   2   3
ATOM      3  C   UNL     1       3.646   5.197  18.424  0.00  0.00    +0.000 A 
ATOM      4  C   UNL     1       4.697   4.441  17.922  0.00  0.00    +0.000 A 
ATOM      5  N   UNL     1       4.945   3.342  18.709  0.00  0.00    +0.000 NA
ATOM      6  C   UNL     1       4.069   3.399  19.688  0.00  0.00    +0.000 A 
ATOM      7  C   UNL     1       3.810   2.473  20.760  0.00  0.00    +0.000 A 
ATOM      8  C   UNL     1       4.643   1.244  21.019  0.00  0.00    +0.000 C 
ATOM      9  C   UNL     1       2.751   2.722  21.568  0.00  0.00    +0.000 A 
ATOM     10  C   UNL     1       1.946   3.922  21.449  0.00  0.00    +0.000 A 
ATOM     11  C   UNL     1       2.225   4.803  20.475  0.00  0.00    +0.000 A 
ATOM     12  N   UNL     1       3.262   4.534  19.581  0.00  0.00    +0.000 N 
BRANCH   4  13
ATOM     13  C   UNL     1       5.421   4.665  16.677  0.00  0.00    +0.000 A 
ATOM     14  C   UNL     1       4.954   4.184  15.444  0.00  0.00    +0.000 A 
ATOM     15  C   UNL     1       5.717   4.350  14.285  0.00  0.00    +0.000 A 
ATOM     16  C   UNL     1       6.931   5.022  14.353  0.00  0.00    +0.000 A 
ATOM     17  F   UNL     1       7.666   5.168  13.243  0.00  0.00    +0.000 F 
ATOM     18  C   UNL     1       7.390   5.548  15.553  0.00  0.00    +0.000 A 
ATOM     19  C   UNL     1       6.633   5.371  16.714  0.00  0.00    +0.000 A 
ENDBRANCH   4  13
ENDBRANCH   2   3
BRANCH   1  20
ATOM     20  O   UNL     1       2.720   8.361  17.026  0.00  0.00    +0.000 OA
BRANCH  20  21
ATOM     21  C   UNL     1       1.685   8.693  17.960  0.00  0.00    +0.000 C 
BRANCH  21  24
ATOM     22  N   UNL     1       1.490  12.100  19.199  0.00  0.00    +0.000 N 
ATOM     23  C   UNL     1       1.009  10.826  19.284  0.00  0.00    +0.000 A 
ATOM     24  C   UNL     1       1.688  10.142  18.295  0.00  0.00    +0.000 A 
ATOM     25  N   UNL     1       2.504  11.022  17.631  0.00  0.00    +0.000 NA
ATOM     26  N   UNL     1       2.378  12.216  18.196  0.00  0.00    +0.000 NA
BRANCH  22  27
ATOM     27  C   UNL     1       1.332  13.176  20.162  0.00  0.00    +0.000 C 
BRANCH  27  31
ATOM     28  C   UNL     1       0.714  17.105  18.462  0.00  0.00    +0.000 A 
ATOM     29  C   UNL     1      -0.323  16.176  18.493  0.00  0.00    +0.000 A 
ATOM     30  C   UNL     1      -0.123  14.901  19.030  0.00  0.00    +0.000 A 
ATOM     31  C   UNL     1       1.135  14.528  19.522  0.00  0.00    +0.000 A 
ATOM     32  C   UNL     1       2.182  15.458  19.464  0.00  0.00    +0.000 A 
ATOM     33  C   UNL     1       1.974  16.738  18.936  0.00  0.00    +0.000 A 
BRANCH  28  35
ATOM     34  C   UNL     1       0.885  18.555  16.600  0.00  0.00    +0.000 C 
ATOM     35  O   UNL     1       0.393  18.317  17.914  0.00  0.00    +0.000 OA
ENDBRANCH  28  35
ENDBRANCH  27  31
ENDBRANCH  22  27
ENDBRANCH  21  24
ENDBRANCH  20  21
ENDBRANCH   1  20
TORSDOF 8
ENDMDL
MODEL 8
REMARK VINA RESULT:      -7.9      4.684      8.939
REMARK  Name = 
REMARK  10 active torsions:
REMARK  status: ('A' for Active; 'I' for Inactive)
REMARK    1  A    between atoms: C_1  and  O_2
REMARK    2  A    between atoms: O_2  and  C_3
REMARK    3  A    between atoms: C_6  and  C_7
REMARK    4  A    between atoms: C_7  and  N_8
REMARK    5  A    between atoms: C_10  and  C_11
REMARK    6  A    between atoms: C_11  and  O_12
REMARK    7  A    between atoms: O_12  and  N_13
REMARK    8  A    between atoms: C_14  and  C_15
REMARK    9  A    between atoms: C_16  and  C_17
REMARK   10  A    between atoms: C_26  and  C_27
REMARK                            x       y       z     vdW  Elec       q    Type
REMARK                         _______ _______ _______ _____ _____    ______ ____
ROOT
ATOM      1  N   UNL     1       1.900  10.530  17.587  0.00  0.00    +0.000 NA
ATOM      2  C   UNL     1       1.351  11.039  18.644  0.00  0.00    +0.000 C 
ENDROOT
BRANCH   2   3
ATOM      3  C   UNL     1       0.983  12.424  18.741  0.00  0.00    +0.000 A 
ATOM      4  C   UNL     1      -0.285  12.988  18.671  0.00  0.00    +0.000 A 
ATOM      5  N   UNL     1      -0.225  14.360  18.671  0.00  0.00    +0.000 NA
ATOM      6  C   UNL     1       1.053  14.662  18.739  0.00  0.00    +0.000 A 
ATOM      7  C   UNL     1       1.712  15.941  18.693  0.00  0.00    +0.000 A 
ATOM      8  C   UNL     1       0.975  17.257  18.671  0.00  0.00    +0.000 C 
ATOM      9  C   UNL     1       3.065  15.955  18.656  0.00  0.00    +0.000 A 
ATOM     10  C   UNL     1       3.859  14.745  18.761  0.00  0.00    +0.000 A 
ATOM     11  C   UNL     1       3.236  13.560  18.850  0.00  0.00    +0.000 A 
ATOM     12  N   UNL     1       1.842  13.512  18.813  0.00  0.00    +0.000 N 
BRANCH   4  13
ATOM     13  C   UNL     1      -1.550  12.281  18.513  0.00  0.00    +0.000 A 
ATOM     14  C   UNL     1      -1.774  11.376  17.463  0.00  0.00    +0.000 A 
ATOM     15  C   UNL     1      -3.027  10.780  17.299  0.00  0.00    +0.000 A 
ATOM     16  C   UNL     1      -4.046  11.063  18.200  0.00  0.00    +0.000 A 
ATOM     17  F   UNL     1      -5.250  10.500  18.033  0.00  0.00    +0.000 F 
ATOM     18  C   UNL     1      -3.832  11.918  19.274  0.00  0.00    +0.000 A 
ATOM     19  C   UNL     1      -2.583  12.524  19.430  0.00  0.00    +0.000 A 
ENDBRANCH   4  13
ENDBRANCH   2   3
BRANCH   1  20
ATOM     20  O   UNL     1       2.146   9.162  17.830  0.00  0.00    +0.000 OA
BRANCH  20  21
ATOM     21  C   UNL     1       1.751   8.843  19.170  0.00  0.00    +0.000 C 
BRANCH  21  24
ATOM     22  N   UNL     1       2.627   5.344  19.578  0.00  0.00    +0.000 N 
ATOM     23  C   UNL     1       2.593   6.421  18.741  0.00  0.00    +0.000 A 
ATOM     24  C   UNL     1       1.979   7.409  19.487  0.00  0.00    +0.000 A 
ATOM     25  N   UNL     1       1.631   6.887  20.707  0.00  0.00    +0.000 NA
ATOM     26  N   UNL     1       2.036   5.625  20.752  0.00  0.00    +0.000 NA
BRANCH  22  27
ATOM     27  C   UNL     1       3.394   4.120  19.421  0.00  0.00    +0.000 C 
BRANCH  27  31
ATOM     28  C   UNL     1       6.607   4.630  16.570  0.00  0.00    +0.000 A 
ATOM     29  C   UNL     1       5.358   4.177  16.155  0.00  0.00    +0.000 A 
ATOM     30  C   UNL     1       4.320   3.998  17.075  0.00  0.00    +0.000 A 
ATOM     31  C   UNL     1       4.531   4.248  18.439  0.00  0.00    +0.000 A 
ATOM     32  C   UNL     1       5.799   4.679  18.854  0.00  0.00    +0.000 A 
ATOM     33  C   UNL     1       6.831   4.867  17.927  0.00  0.00    +0.000 A 
BRANCH  28  35
ATOM     34  C   UNL     1       7.021   4.861  14.252  0.00  0.00    +0.000 C 
ATOM     35  O   UNL     1       7.536   4.766  15.576  0.00  0.00    +0.000 OA
ENDBRANCH  28  35
ENDBRANCH  27  31
ENDBRANCH  22  27
ENDBRANCH  21  24
ENDBRANCH  20  21
ENDBRANCH   1  20
TORSDOF 8
ENDMDL
MODEL 9
REMARK VINA RESULT:      -7.9      5.744     10.490
REMARK  Name = 
REMARK  10 active torsions:
REMARK  status: ('A' for Active; 'I' for Inactive)
REMARK    1  A    between atoms: C_1  and  O_2
REMARK    2  A    between atoms: O_2  and  C_3
REMARK    3  A    between atoms: C_6  and  C_7
REMARK    4  A    between atoms: C_7  and  N_8
REMARK    5  A    between atoms: C_10  and  C_11
REMARK    6  A    between atoms: C_11  and  O_12
REMARK    7  A    between atoms: O_12  and  N_13
REMARK    8  A    between atoms: C_14  and  C_15
REMARK    9  A    between atoms: C_16  and  C_17
REMARK   10  A    between atoms: C_26  and  C_27
REMARK                            x       y       z     vdW  Elec       q    Type
REMARK                         _______ _______ _______ _____ _____    ______ ____
ROOT
ATOM      1  N   UNL     1      -0.987  12.817  19.891  0.00  0.00    +0.000 NA
ATOM      2  C   UNL     1      -1.897  12.038  20.385  0.00  0.00    +0.000 C 
ENDROOT
BRANCH   2   3
ATOM      3  C   UNL     1      -3.304  12.280  20.220  0.00  0.00    +0.000 A 
ATOM      4  C   UNL     1      -4.108  11.987  19.126  0.00  0.00    +0.000 A 
ATOM      5  N   UNL     1      -5.376  12.491  19.286  0.00  0.00    +0.000 NA
ATOM      6  C   UNL     1      -5.377  13.092  20.456  0.00  0.00    +0.000 A 
ATOM      7  C   UNL     1      -6.405  13.862  21.106  0.00  0.00    +0.000 A 
ATOM      8  C   UNL     1      -7.800  14.019  20.557  0.00  0.00    +0.000 C 
ATOM      9  C   UNL     1      -6.090  14.483  22.268  0.00  0.00    +0.000 A 
ATOM     10  C   UNL     1      -4.803  14.318  22.916  0.00  0.00    +0.000 A 
ATOM     11  C   UNL     1      -3.866  13.560  22.324  0.00  0.00    +0.000 A 
ATOM     12  N   UNL     1      -4.137  12.972  21.088  0.00  0.00    +0.000 N 
BRANCH   4  13
ATOM     13  C   UNL     1      -3.701  11.324  17.893  0.00  0.00    +0.000 A 
ATOM     14  C   UNL     1      -2.624  10.426  17.848  0.00  0.00    +0.000 A 
ATOM     15  C   UNL     1      -2.215   9.873  16.632  0.00  0.00    +0.000 A 
ATOM     16  C   UNL     1      -2.899  10.194  15.466  0.00  0.00    +0.000 A 
ATOM     17  F   UNL     1      -2.496   9.673  14.300  0.00  0.00    +0.000 F 
ATOM     18  C   UNL     1      -3.998  11.043  15.495  0.00  0.00    +0.000 A 
ATOM     19  C   UNL     1      -4.399  11.605  16.709  0.00  0.00    +0.000 A 
ENDBRANCH   4  13
ENDBRANCH   2   3
BRANCH   1  20
ATOM     20  O   UNL     1       0.277  12.304  20.251  0.00  0.00    +0.000 OA
BRANCH  20  21
ATOM     21  C   UNL     1       1.043  12.061  19.065  0.00  0.00    +0.000 C 
BRANCH  21  24
ATOM     22  N   UNL     1       2.098   8.674  18.297  0.00  0.00    +0.000 N 
ATOM     23  C   UNL     1       2.006   9.965  17.866  0.00  0.00    +0.000 A 
ATOM     24  C   UNL     1       1.346  10.616  18.888  0.00  0.00    +0.000 A 
ATOM     25  N   UNL     1       1.028   9.701  19.860  0.00  0.00    +0.000 NA
ATOM     26  N   UNL     1       1.497   8.518  19.489  0.00  0.00    +0.000 NA
BRANCH  22  27
ATOM     27  C   UNL     1       2.926   7.612  17.752  0.00  0.00    +0.000 C 
BRANCH  27  31
ATOM     28  C   UNL     1       2.477   3.750  19.648  0.00  0.00    +0.000 A 
ATOM     29  C   UNL     1       1.628   4.133  18.613  0.00  0.00    +0.000 A 
ATOM     30  C   UNL     1       1.761   5.386  18.006  0.00  0.00    +0.000 A 
ATOM     31  C   UNL     1       2.739   6.288  18.450  0.00  0.00    +0.000 A 
ATOM     32  C   UNL     1       3.573   5.907  19.510  0.00  0.00    +0.000 A 
ATOM     33  C   UNL     1       3.442   4.647  20.107  0.00  0.00    +0.000 A 
BRANCH  28  35
ATOM     34  C   UNL     1       1.675   2.457  21.460  0.00  0.00    +0.000 C 
ATOM     35  O   UNL     1       2.246   2.502  20.157  0.00  0.00    +0.000 OA
ENDBRANCH  28  35
ENDBRANCH  27  31
ENDBRANCH  22  27
ENDBRANCH  21  24
ENDBRANCH  20  21
ENDBRANCH   1  20
TORSDOF 8
ENDMDL
