MODEL 1
REMARK VINA RESULT:      -7.7      0.000      0.000
REMARK  Name = 
REMARK  8 active torsions:
REMARK  status: ('A' for Active; 'I' for Inactive)
REMARK    1  A    between atoms: C_1  and  O_2
REMARK    2  A    between atoms: O_2  and  C_3
REMARK    3  A    between atoms: C_3  and  C_5
REMARK    4  A    between atoms: C_5  and  C_13
REMARK    5  A    between atoms: C_6  and  C_7
REMARK    6  A    between atoms: C_13  and  S_14
REMARK    7  A    between atoms: S_14  and  C_15
REMARK    8  A    between atoms: N_17  and  C_18
REMARK                            x       y       z     vdW  Elec       q    Type
REMARK                         _______ _______ _______ _____ _____    ______ ____
ROOT
ATOM      1  C   UNL     1       4.888   6.170  17.675  0.00  0.00    +0.000 C 
ENDROOT
BRANCH   1   2
ATOM      2  C   UNL     1       4.040   5.264  18.572  0.00  0.00    +0.000 C 
ATOM      3  C   UNL     1       2.993   5.698  19.347  0.00  0.00    +0.000 C 
BRANCH   3   4
ATOM      4  C   UNL     1       2.366   7.054  19.425  0.00  0.00    +0.000 A 
ATOM      5  C   UNL     1       2.352   7.960  18.349  0.00  0.00    +0.000 A 
ATOM      6  C   UNL     1       1.717   9.196  18.457  0.00  0.00    +0.000 A 
ATOM      7  C   UNL     1       1.087   9.559  19.644  0.00  0.00    +0.000 A 
ATOM      8  C   UNL     1       1.076   8.675  20.724  0.00  0.00    +0.000 A 
ATOM      9  C   UNL     1       1.701   7.424  20.613  0.00  0.00    +0.000 A 
ENDBRANCH   3   4
BRANCH   2  10
ATOM     10  C   UNL     1       4.419   3.818  18.635  0.00  0.00    +0.000 C 
ATOM     11  O   UNL     1       5.009   3.366  19.612  0.00  0.00    +0.000 OA
BRANCH  10  13
ATOM     12  C   UNL     1       2.928   2.191  17.637  0.00  0.00    +0.000 C 
ATOM     13  O   UNL     1       4.052   2.986  17.624  0.00  0.00    +0.000 OA
ENDBRANCH  10  13
ENDBRANCH   2  10
ENDBRANCH   1   2
BRANCH   1  14
ATOM     14  S   UNL     1       6.646   6.014  18.146  0.00  0.00    +0.000 S 
BRANCH  14  15
ATOM     15  C   UNL     1       7.247   5.145  16.678  0.00  0.00    +0.000 C 
ATOM     16  N   UNL     1       7.874   4.029  16.803  0.00  0.00    +0.000 NA
ATOM     17  N   UNL     1       6.995   5.692  15.383  0.00  0.00    +0.000 N 
ATOM     18  H   UNL     1       8.069   3.622  17.728  0.00  0.00    +0.000 HD
ATOM     19  H   UNL     1       6.866   6.712  15.310  0.00  0.00    +0.000 HD
BRANCH  17  20
ATOM     20  C   UNL     1       6.831   4.912  14.191  0.00  0.00    +0.000 A 
ATOM     21  C   UNL     1       5.725   4.050  14.015  0.00  0.00    +0.000 A 
ATOM     22  C   UNL     1       5.550   3.351  12.816  0.00  0.00    +0.000 A 
ATOM     23  C   UNL     1       6.478   3.486  11.783  0.00  0.00    +0.000 A 
ATOM     24  C   UNL     1       7.580   4.330  11.942  0.00  0.00    +0.000 A 
ATOM     25  C   UNL     1       7.749   5.048  13.134  0.00  0.00    +0.000 A 
ENDBRANCH  17  20
ENDBRANCH  14  15
ENDBRANCH   1  14
TORSDOF 7
ENDMDL
MODEL 2
REMARK VINA RESULT:      -7.6      2.805      4.038
REMARK  Name = 
REMARK  8 active torsions:
REMARK  status: ('A' for Active; 'I' for Inactive)
REMARK    1  A    between atoms: C_1  and  O_2
REMARK    2  A    between atoms: O_2  and  C_3
REMARK    3  A    between atoms: C_3  and  C_5
REMARK    4  A    between atoms: C_5  and  C_13
REMARK    5  A    between atoms: C_6  and  C_7
REMARK    6  A    between atoms: C_13  and  S_14
REMARK    7  A    between atoms: S_14  and  C_15
REMARK    8  A    between atoms: N_17  and  C_18
REMARK                            x       y       z     vdW  Elec       q    Type
REMARK                         _______ _______ _______ _____ _____    ______ ____
ROOT
ATOM      1  C   UNL     1       0.842   3.511  19.586  0.00  0.00    +0.000 C 
ENDROOT
BRANCH   1   2
ATOM      2  C   UNL     1       1.742   3.883  20.767  0.00  0.00    +0.000 C 
ATOM      3  C   UNL     1       2.350   5.104  20.927  0.00  0.00    +0.000 C 
BRANCH   3   4
ATOM      4  C   UNL     1       2.210   6.349  20.111  0.00  0.00    +0.000 A 
ATOM      5  C   UNL     1       2.670   6.458  18.785  0.00  0.00    +0.000 A 
ATOM      6  C   UNL     1       2.476   7.627  18.050  0.00  0.00    +0.000 A 
ATOM      7  C   UNL     1       1.825   8.717  18.624  0.00  0.00    +0.000 A 
ATOM      8  C   UNL     1       1.349   8.631  19.933  0.00  0.00    +0.000 A 
ATOM      9  C   UNL     1       1.528   7.451  20.670  0.00  0.00    +0.000 A 
ENDBRANCH   3   4
BRANCH   2  10
ATOM     10  C   UNL     1       2.007   2.820  21.786  0.00  0.00    +0.000 C 
ATOM     11  O   UNL     1       1.097   2.376  22.481  0.00  0.00    +0.000 OA
BRANCH  10  13
ATOM     12  C   UNL     1       4.171   2.231  20.872  0.00  0.00    +0.000 C 
ATOM     13  O   UNL     1       3.258   2.300  21.901  0.00  0.00    +0.000 OA
ENDBRANCH  10  13
ENDBRANCH   2  10
ENDBRANCH   1   2
BRANCH   1  14
ATOM     14  S   UNL     1       1.558   2.076  18.709  0.00  0.00    +0.000 S 
BRANCH  14  15
ATOM     15  C   UNL     1       2.624   2.967  17.550  0.00  0.00    +0.000 C 
ATOM     16  N   UNL     1       2.111   3.803  16.718  0.00  0.00    +0.000 NA
ATOM     17  N   UNL     1       4.036   2.758  17.588  0.00  0.00    +0.000 N 
ATOM     18  H   UNL     1       1.096   3.963  16.672  0.00  0.00    +0.000 HD
ATOM     19  H   UNL     1       4.377   1.853  17.946  0.00  0.00    +0.000 HD
BRANCH  17  20
ATOM     20  C   UNL     1       5.013   3.748  17.237  0.00  0.00    +0.000 A 
ATOM     21  C   UNL     1       5.402   3.963  15.896  0.00  0.00    +0.000 A 
ATOM     22  C   UNL     1       6.306   4.981  15.571  0.00  0.00    +0.000 A 
ATOM     23  C   UNL     1       6.846   5.786  16.574  0.00  0.00    +0.000 A 
ATOM     24  C   UNL     1       6.475   5.584  17.905  0.00  0.00    +0.000 A 
ATOM     25  C   UNL     1       5.555   4.579  18.234  0.00  0.00    +0.000 A 
ENDBRANCH  17  20
ENDBRANCH  14  15
ENDBRANCH   1  14
TORSDOF 7
ENDMDL
MODEL 3
REMARK VINA RESULT:      -7.6      0.368      1.074
REMARK  Name = 
REMARK  8 active torsions:
REMARK  status: ('A' for Active; 'I' for Inactive)
REMARK    1  A    between atoms: C_1  and  O_2
REMARK    2  A    between atoms: O_2  and  C_3
REMARK    3  A    between atoms: C_3  and  C_5
REMARK    4  A    between atoms: C_5  and  C_13
REMARK    5  A    between atoms: C_6  and  C_7
REMARK    6  A    between atoms: C_13  and  S_14
REMARK    7  A    between atoms: S_14  and  C_15
REMARK    8  A    between atoms: N_17  and  C_18
REMARK                            x       y       z     vdW  Elec       q    Type
REMARK                         _______ _______ _______ _____ _____    ______ ____
ROOT
ATOM      1  C   UNL     1       5.095   6.315  18.104  0.00  0.00    +0.000 C 
ENDROOT
BRANCH   1   2
ATOM      2  C   UNL     1       4.017   5.403  18.695  0.00  0.00    +0.000 C 
ATOM      3  C   UNL     1       2.820   5.844  19.204  0.00  0.00    +0.000 C 
BRANCH   3   4
ATOM      4  C   UNL     1       2.238   7.222  19.207  0.00  0.00    +0.000 A 
ATOM      5  C   UNL     1       2.198   8.044  18.066  0.00  0.00    +0.000 A 
ATOM      6  C   UNL     1       1.606   9.306  18.109  0.00  0.00    +0.000 A 
ATOM      7  C   UNL     1       1.047   9.778  19.294  0.00  0.00    +0.000 A 
ATOM      8  C   UNL     1       1.063   8.979  20.437  0.00  0.00    +0.000 A 
ATOM      9  C   UNL     1       1.644   7.703  20.394  0.00  0.00    +0.000 A 
ENDBRANCH   3   4
BRANCH   2  10
ATOM     10  C   UNL     1       4.319   3.939  18.759  0.00  0.00    +0.000 C 
ATOM     11  O   UNL     1       4.883   3.457  19.737  0.00  0.00    +0.000 OA
BRANCH  10  13
ATOM     12  C   UNL     1       2.723   2.430  17.738  0.00  0.00    +0.000 C 
ATOM     13  O   UNL     1       3.911   3.127  17.748  0.00  0.00    +0.000 OA
ENDBRANCH  10  13
ENDBRANCH   2  10
ENDBRANCH   1   2
BRANCH   1  14
ATOM     14  S   UNL     1       6.743   5.715  18.618  0.00  0.00    +0.000 S 
BRANCH  14  15
ATOM     15  C   UNL     1       7.311   5.073  17.025  0.00  0.00    +0.000 C 
ATOM     16  N   UNL     1       8.050   4.022  16.983  0.00  0.00    +0.000 NA
ATOM     17  N   UNL     1       6.907   5.723  15.819  0.00  0.00    +0.000 N 
ATOM     18  H   UNL     1       8.355   3.543  17.841  0.00  0.00    +0.000 HD
ATOM     19  H   UNL     1       6.674   6.726  15.870  0.00  0.00    +0.000 HD
BRANCH  17  20
ATOM     20  C   UNL     1       6.728   5.059  14.560  0.00  0.00    +0.000 A 
ATOM     21  C   UNL     1       7.660   5.200  13.508  0.00  0.00    +0.000 A 
ATOM     22  C   UNL     1       7.499   4.489  12.314  0.00  0.00    +0.000 A 
ATOM     23  C   UNL     1       6.404   3.642  12.144  0.00  0.00    +0.000 A 
ATOM     24  C   UNL     1       5.471   3.494  13.173  0.00  0.00    +0.000 A 
ATOM     25  C   UNL     1       5.638   4.189  14.379  0.00  0.00    +0.000 A 
ENDBRANCH  17  20
ENDBRANCH  14  15
ENDBRANCH   1  14
TORSDOF 7
ENDMDL
MODEL 4
REMARK VINA RESULT:      -7.5      0.714      1.417
REMARK  Name = 
REMARK  8 active torsions:
REMARK  status: ('A' for Active; 'I' for Inactive)
REMARK    1  A    between atoms: C_1  and  O_2
REMARK    2  A    between atoms: O_2  and  C_3
REMARK    3  A    between atoms: C_3  and  C_5
REMARK    4  A    between atoms: C_5  and  C_13
REMARK    5  A    between atoms: C_6  and  C_7
REMARK    6  A    between atoms: C_13  and  S_14
REMARK    7  A    between atoms: S_14  and  C_15
REMARK    8  A    between atoms: N_17  and  C_18
REMARK                            x       y       z     vdW  Elec       q    Type
REMARK                         _______ _______ _______ _____ _____    ______ ____
ROOT
ATOM      1  C   UNL     1       4.637   6.150  17.784  0.00  0.00    +0.000 C 
ENDROOT
BRANCH   1   2
ATOM      2  C   UNL     1       3.490   5.273  18.291  0.00  0.00    +0.000 C 
ATOM      3  C   UNL     1       2.373   5.749  18.934  0.00  0.00    +0.000 C 
BRANCH   3   4
ATOM      4  C   UNL     1       1.951   7.161  19.185  0.00  0.00    +0.000 A 
ATOM      5  C   UNL     1       1.595   7.645  20.458  0.00  0.00    +0.000 A 
ATOM      6  C   UNL     1       1.251   8.982  20.649  0.00  0.00    +0.000 A 
ATOM      7  C   UNL     1       1.247   9.867  19.573  0.00  0.00    +0.000 A 
ATOM      8  C   UNL     1       1.607   9.415  18.302  0.00  0.00    +0.000 A 
ATOM      9  C   UNL     1       1.969   8.074  18.109  0.00  0.00    +0.000 A 
ENDBRANCH   3   4
BRANCH   2  10
ATOM     10  C   UNL     1       3.628   3.794  18.110  0.00  0.00    +0.000 C 
ATOM     11  O   UNL     1       4.002   3.325  17.039  0.00  0.00    +0.000 OA
BRANCH  10  13
ATOM     12  C   UNL     1       4.365   2.491  20.014  0.00  0.00    +0.000 C 
ATOM     13  O   UNL     1       3.392   2.967  19.163  0.00  0.00    +0.000 OA
ENDBRANCH  10  13
ENDBRANCH   2  10
ENDBRANCH   1   2
BRANCH   1  14
ATOM     14  S   UNL     1       6.211   5.561  18.501  0.00  0.00    +0.000 S 
BRANCH  14  15
ATOM     15  C   UNL     1       7.039   5.062  16.971  0.00  0.00    +0.000 C 
ATOM     16  N   UNL     1       7.951   4.156  17.001  0.00  0.00    +0.000 NA
ATOM     17  N   UNL     1       6.651   5.658  15.733  0.00  0.00    +0.000 N 
ATOM     18  H   UNL     1       8.248   3.719  17.884  0.00  0.00    +0.000 HD
ATOM     19  H   UNL     1       6.243   6.604  15.764  0.00  0.00    +0.000 HD
BRANCH  17  20
ATOM     20  C   UNL     1       6.717   5.000  14.460  0.00  0.00    +0.000 A 
ATOM     21  C   UNL     1       5.779   4.013  14.086  0.00  0.00    +0.000 A 
ATOM     22  C   UNL     1       5.824   3.434  12.813  0.00  0.00    +0.000 A 
ATOM     23  C   UNL     1       6.809   3.816  11.902  0.00  0.00    +0.000 A 
ATOM     24  C   UNL     1       7.747   4.787  12.258  0.00  0.00    +0.000 A 
ATOM     25  C   UNL     1       7.695   5.385  13.525  0.00  0.00    +0.000 A 
ENDBRANCH  17  20
ENDBRANCH  14  15
ENDBRANCH   1  14
TORSDOF 7
ENDMDL
MODEL 5
REMARK VINA RESULT:      -7.4      4.415      6.304
REMARK  Name = 
REMARK  8 active torsions:
REMARK  status: ('A' for Active; 'I' for Inactive)
REMARK    1  A    between atoms: C_1  and  O_2
REMARK    2  A    between atoms: O_2  and  C_3
REMARK    3  A    between atoms: C_3  and  C_5
REMARK    4  A    between atoms: C_5  and  C_13
REMARK    5  A    between atoms: C_6  and  C_7
REMARK    6  A    between atoms: C_13  and  S_14
REMARK    7  A    between atoms: S_14  and  C_15
REMARK    8  A    between atoms: N_17  and  C_18
REMARK                            x       y       z     vdW  Elec       q    Type
REMARK                         _______ _______ _______ _____ _____    ______ ____
ROOT
ATOM      1  C   UNL     1       5.998   6.468  17.875  0.00  0.00    +0.000 C 
ENDROOT
BRANCH   1   2
ATOM      2  C   UNL     1       6.135   4.990  17.502  0.00  0.00    +0.000 C 
ATOM      3  C   UNL     1       5.199   4.026  17.787  0.00  0.00    +0.000 C 
BRANCH   3   4
ATOM      4  C   UNL     1       3.837   4.173  18.388  0.00  0.00    +0.000 A 
ATOM      5  C   UNL     1       2.650   3.884  17.689  0.00  0.00    +0.000 A 
ATOM      6  C   UNL     1       1.406   3.995  18.307  0.00  0.00    +0.000 A 
ATOM      7  C   UNL     1       1.316   4.403  19.635  0.00  0.00    +0.000 A 
ATOM      8  C   UNL     1       2.478   4.685  20.355  0.00  0.00    +0.000 A 
ATOM      9  C   UNL     1       3.732   4.559  19.741  0.00  0.00    +0.000 A 
ENDBRANCH   3   4
BRANCH   2  10
ATOM     10  C   UNL     1       7.401   4.570  16.823  0.00  0.00    +0.000 C 
ATOM     11  O   UNL     1       8.354   4.152  17.474  0.00  0.00    +0.000 OA
BRANCH  10  13
ATOM     12  C   UNL     1       6.460   4.197  14.622  0.00  0.00    +0.000 C 
ATOM     13  O   UNL     1       7.472   4.599  15.465  0.00  0.00    +0.000 OA
ENDBRANCH  10  13
ENDBRANCH   2  10
ENDBRANCH   1   2
BRANCH   1  14
ATOM     14  S   UNL     1       7.123   7.461  16.832  0.00  0.00    +0.000 S 
BRANCH  14  15
ATOM     15  C   UNL     1       8.045   8.298  18.145  0.00  0.00    +0.000 C 
ATOM     16  N   UNL     1       8.626   7.609  19.061  0.00  0.00    +0.000 NA
ATOM     17  N   UNL     1       8.146   9.723  18.137  0.00  0.00    +0.000 N 
ATOM     18  H   UNL     1       8.561   6.583  19.087  0.00  0.00    +0.000 HD
ATOM     19  H   UNL     1       7.394  10.254  17.673  0.00  0.00    +0.000 HD
BRANCH  17  20
ATOM     20  C   UNL     1       9.260  10.460  18.659  0.00  0.00    +0.000 A 
ATOM     21  C   UNL     1      10.276  10.965  17.817  0.00  0.00    +0.000 A 
ATOM     22  C   UNL     1      11.316  11.739  18.342  0.00  0.00    +0.000 A 
ATOM     23  C   UNL     1      11.370  12.008  19.709  0.00  0.00    +0.000 A 
ATOM     24  C   UNL     1      10.376  11.513  20.556  0.00  0.00    +0.000 A 
ATOM     25  C   UNL     1       9.320  10.754  20.034  0.00  0.00    +0.000 A 
ENDBRANCH  17  20
ENDBRANCH  14  15
ENDBRANCH   1  14
TORSDOF 7
ENDMDL
MODEL 6
REMARK VINA RESULT:      -7.4      1.372      1.507
REMARK  Name = 
REMARK  8 active torsions:
REMARK  status: ('A' for Active; 'I' for Inactive)
REMARK    1  A    between atoms: C_1  and  O_2
REMARK    2  A    between atoms: O_2  and  C_3
REMARK    3  A    between atoms: C_3  and  C_5
REMARK    4  A    between atoms: C_5  and  C_13
REMARK    5  A    between atoms: C_6  and  C_7
REMARK    6  A    between atoms: C_13  and  S_14
REMARK    7  A    between atoms: S_14  and  C_15
REMARK    8  A    between atoms: N_17  and  C_18
REMARK                            x       y       z     vdW  Elec       q    Type
REMARK                         _______ _______ _______ _____ _____    ______ ____
ROOT
ATOM      1  C   UNL     1       4.275   4.528  18.091  0.00  0.00    +0.000 C 
ENDROOT
BRANCH   1   2
ATOM      2  C   UNL     1       3.334   4.313  19.279  0.00  0.00    +0.000 C 
ATOM      3  C   UNL     1       2.538   5.289  19.827  0.00  0.00    +0.000 C 
BRANCH   3   4
ATOM      4  C   UNL     1       2.302   6.693  19.366  0.00  0.00    +0.000 A 
ATOM      5  C   UNL     1       2.554   7.125  18.051  0.00  0.00    +0.000 A 
ATOM      6  C   UNL     1       2.278   8.434  17.659  0.00  0.00    +0.000 A 
ATOM      7  C   UNL     1       1.749   9.343  18.571  0.00  0.00    +0.000 A 
ATOM      8  C   UNL     1       1.479   8.937  19.879  0.00  0.00    +0.000 A 
ATOM      9  C   UNL     1       1.742   7.617  20.273  0.00  0.00    +0.000 A 
ENDBRANCH   3   4
BRANCH   2  10
ATOM     10  C   UNL     1       3.325   2.955  19.907  0.00  0.00    +0.000 C 
ATOM     11  O   UNL     1       4.359   2.299  19.998  0.00  0.00    +0.000 OA
BRANCH  10  13
ATOM     12  C   UNL     1       1.846   2.508  21.772  0.00  0.00    +0.000 C 
ATOM     13  O   UNL     1       2.170   2.470  20.434  0.00  0.00    +0.000 OA
ENDBRANCH  10  13
ENDBRANCH   2  10
ENDBRANCH   1   2
BRANCH   1  14
ATOM     14  S   UNL     1       5.939   4.964  18.708  0.00  0.00    +0.000 S 
BRANCH  14  15
ATOM     15  C   UNL     1       6.852   4.832  17.152  0.00  0.00    +0.000 C 
ATOM     16  N   UNL     1       7.968   4.196  17.114  0.00  0.00    +0.000 NA
ATOM     17  N   UNL     1       6.309   5.413  15.965  0.00  0.00    +0.000 N 
ATOM     18  H   UNL     1       8.377   3.775  17.959  0.00  0.00    +0.000 HD
ATOM     19  H   UNL     1       5.670   6.215  16.073  0.00  0.00    +0.000 HD
BRANCH  17  20
ATOM     20  C   UNL     1       6.531   4.909  14.640  0.00  0.00    +0.000 A 
ATOM     21  C   UNL     1       5.660   3.966  14.051  0.00  0.00    +0.000 A 
ATOM     22  C   UNL     1       5.858   3.540  12.733  0.00  0.00    +0.000 A 
ATOM     23  C   UNL     1       6.931   4.033  11.990  0.00  0.00    +0.000 A 
ATOM     24  C   UNL     1       7.804   4.963  12.560  0.00  0.00    +0.000 A 
ATOM     25  C   UNL     1       7.599   5.408  13.873  0.00  0.00    +0.000 A 
ENDBRANCH  17  20
ENDBRANCH  14  15
ENDBRANCH   1  14
TORSDOF 7
ENDMDL
MODEL 7
REMARK VINA RESULT:      -7.3      2.076      4.232
REMARK  Name = 
REMARK  8 active torsions:
REMARK  status: ('A' for Active; 'I' for Inactive)
REMARK    1  A    between atoms: C_1  and  O_2
REMARK    2  A    between atoms: O_2  and  C_3
REMARK    3  A    between atoms: C_3  and  C_5
REMARK    4  A    between atoms: C_5  and  C_13
REMARK    5  A    between atoms: C_6  and  C_7
REMARK    6  A    between atoms: C_13  and  S_14
REMARK    7  A    between atoms: S_14  and  C_15
REMARK    8  A    between atoms: N_17  and  C_18
REMARK                            x       y       z     vdW  Elec       q    Type
REMARK                         _______ _______ _______ _____ _____    ______ ____
ROOT
ATOM      1  C   UNL     1       4.065   6.866  17.018  0.00  0.00    +0.000 C 
ENDROOT
BRANCH   1   2
ATOM      2  C   UNL     1       2.903   6.926  18.013  0.00  0.00    +0.000 C 
ATOM      3  C   UNL     1       2.352   5.831  18.633  0.00  0.00    +0.000 C 
BRANCH   3   4
ATOM      4  C   UNL     1       2.787   4.401  18.597  0.00  0.00    +0.000 A 
ATOM      5  C   UNL     1       3.622   3.824  19.572  0.00  0.00    +0.000 A 
ATOM      6  C   UNL     1       3.964   2.473  19.518  0.00  0.00    +0.000 A 
ATOM      7  C   UNL     1       3.487   1.669  18.487  0.00  0.00    +0.000 A 
ATOM      8  C   UNL     1       2.648   2.213  17.513  0.00  0.00    +0.000 A 
ATOM      9  C   UNL     1       2.289   3.568  17.573  0.00  0.00    +0.000 A 
ENDBRANCH   3   4
BRANCH   2  10
ATOM     10  C   UNL     1       2.306   8.271  18.285  0.00  0.00    +0.000 C 
ATOM     11  O   UNL     1       2.460   9.198  17.496  0.00  0.00    +0.000 OA
BRANCH  10  13
ATOM     12  C   UNL     1       1.116   9.673  19.862  0.00  0.00    +0.000 C 
ATOM     13  O   UNL     1       1.534   8.449  19.391  0.00  0.00    +0.000 OA
ENDBRANCH  10  13
ENDBRANCH   2  10
ENDBRANCH   1   2
BRANCH   1  14
ATOM     14  S   UNL     1       5.612   6.491  17.917  0.00  0.00    +0.000 S 
BRANCH  14  15
ATOM     15  C   UNL     1       6.357   5.358  16.719  0.00  0.00    +0.000 C 
ATOM     16  N   UNL     1       6.633   4.150  17.063  0.00  0.00    +0.000 NA
ATOM     17  N   UNL     1       6.606   5.806  15.386  0.00  0.00    +0.000 N 
ATOM     18  H   UNL     1       6.465   3.811  18.020  0.00  0.00    +0.000 HD
ATOM     19  H   UNL     1       6.755   6.815  15.240  0.00  0.00    +0.000 HD
BRANCH  17  20
ATOM     20  C   UNL     1       6.585   4.959  14.229  0.00  0.00    +0.000 A 
ATOM     21  C   UNL     1       5.518   4.066  13.982  0.00  0.00    +0.000 A 
ATOM     22  C   UNL     1       5.487   3.300  12.812  0.00  0.00    +0.000 A 
ATOM     23  C   UNL     1       6.520   3.398  11.880  0.00  0.00    +0.000 A 
ATOM     24  C   UNL     1       7.585   4.273  12.111  0.00  0.00    +0.000 A 
ATOM     25  C   UNL     1       7.612   5.058  13.272  0.00  0.00    +0.000 A 
ENDBRANCH  17  20
ENDBRANCH  14  15
ENDBRANCH   1  14
TORSDOF 7
ENDMDL
MODEL 8
REMARK VINA RESULT:      -7.3      2.356      3.757
REMARK  Name = 
REMARK  8 active torsions:
REMARK  status: ('A' for Active; 'I' for Inactive)
REMARK    1  A    between atoms: C_1  and  O_2
REMARK    2  A    between atoms: O_2  and  C_3
REMARK    3  A    between atoms: C_3  and  C_5
REMARK    4  A    between atoms: C_5  and  C_13
REMARK    5  A    between atoms: C_6  and  C_7
REMARK    6  A    between atoms: C_13  and  S_14
REMARK    7  A    between atoms: S_14  and  C_15
REMARK    8  A    between atoms: N_17  and  C_18
REMARK                            x       y       z     vdW  Elec       q    Type
REMARK                         _______ _______ _______ _____ _____    ______ ____
ROOT
ATOM      1  C   UNL     1       3.936   5.044  17.687  0.00  0.00    +0.000 C 
ENDROOT
BRANCH   1   2
ATOM      2  C   UNL     1       3.069   6.123  18.341  0.00  0.00    +0.000 C 
ATOM      3  C   UNL     1       2.150   5.887  19.334  0.00  0.00    +0.000 C 
BRANCH   3   4
ATOM      4  C   UNL     1       1.857   4.621  20.074  0.00  0.00    +0.000 A 
ATOM      5  C   UNL     1       1.054   3.590  19.551  0.00  0.00    +0.000 A 
ATOM      6  C   UNL     1       0.846   2.409  20.263  0.00  0.00    +0.000 A 
ATOM      7  C   UNL     1       1.427   2.233  21.516  0.00  0.00    +0.000 A 
ATOM      8  C   UNL     1       2.236   3.235  22.053  0.00  0.00    +0.000 A 
ATOM      9  C   UNL     1       2.461   4.418  21.333  0.00  0.00    +0.000 A 
ENDBRANCH   3   4
BRANCH   2  10
ATOM     10  C   UNL     1       3.209   7.520  17.821  0.00  0.00    +0.000 C 
ATOM     11  O   UNL     1       4.001   7.778  16.920  0.00  0.00    +0.000 OA
BRANCH  10  13
ATOM     12  C   UNL     1       2.233   9.735  17.730  0.00  0.00    +0.000 C 
ATOM     13  O   UNL     1       2.407   8.500  18.315  0.00  0.00    +0.000 OA
ENDBRANCH  10  13
ENDBRANCH   2  10
ENDBRANCH   1   2
BRANCH   1  14
ATOM     14  S   UNL     1       5.575   5.012  18.495  0.00  0.00    +0.000 S 
BRANCH  14  15
ATOM     15  C   UNL     1       6.607   4.861  17.017  0.00  0.00    +0.000 C 
ATOM     16  N   UNL     1       7.725   4.230  17.076  0.00  0.00    +0.000 NA
ATOM     17  N   UNL     1       6.156   5.421  15.782  0.00  0.00    +0.000 N 
ATOM     18  H   UNL     1       8.069   3.825  17.958  0.00  0.00    +0.000 HD
ATOM     19  H   UNL     1       5.506   6.220  15.828  0.00  0.00    +0.000 HD
BRANCH  17  20
ATOM     20  C   UNL     1       6.482   4.897  14.488  0.00  0.00    +0.000 A 
ATOM     21  C   UNL     1       5.701   3.891  13.877  0.00  0.00    +0.000 A 
ATOM     22  C   UNL     1       6.000   3.444  12.585  0.00  0.00    +0.000 A 
ATOM     23  C   UNL     1       7.085   3.980  11.890  0.00  0.00    +0.000 A 
ATOM     24  C   UNL     1       7.869   4.972  12.482  0.00  0.00    +0.000 A 
ATOM     25  C   UNL     1       7.563   5.437  13.768  0.00  0.00    +0.000 A 
ENDBRANCH  17  20
ENDBRANCH  14  15
ENDBRANCH   1  14
TORSDOF 7
ENDMDL
MODEL 9
REMARK VINA RESULT:      -7.2      2.244      3.688
REMARK  Name = 
REMARK  8 active torsions:
REMARK  status: ('A' for Active; 'I' for Inactive)
REMARK    1  A    between atoms: C_1  and  O_2
REMARK    2  A    between atoms: O_2  and  C_3
REMARK    3  A    between atoms: C_3  and  C_5
REMARK    4  A    between atoms: C_5  and  C_13
REMARK    5  A    between atoms: C_6  and  C_7
REMARK    6  A    between atoms: C_13  and  S_14
REMARK    7  A    between atoms: S_14  and  C_15
REMARK    8  A    between atoms: N_17  and  C_18
REMARK                            x       y       z     vdW  Elec       q    Type
REMARK                         _______ _______ _______ _____ _____    ______ ____
ROOT
ATOM      1  C   UNL     1       4.418   4.927  17.808  0.00  0.00    +0.000 C 
ENDROOT
BRANCH   1   2
ATOM      2  C   UNL     1       3.444   6.051  18.170  0.00  0.00    +0.000 C 
ATOM      3  C   UNL     1       2.370   5.907  19.015  0.00  0.00    +0.000 C 
BRANCH   3   4
ATOM      4  C   UNL     1       1.965   4.730  19.844  0.00  0.00    +0.000 A 
ATOM      5  C   UNL     1       1.088   3.729  19.385  0.00  0.00    +0.000 A 
ATOM      6  C   UNL     1       0.775   2.628  20.180  0.00  0.00    +0.000 A 
ATOM      7  C   UNL     1       1.323   2.503  21.454  0.00  0.00    +0.000 A 
ATOM      8  C   UNL     1       2.204   3.476  21.929  0.00  0.00    +0.000 A 
ATOM      9  C   UNL     1       2.534   4.578  21.126  0.00  0.00    +0.000 A 
ENDBRANCH   3   4
BRANCH   2  10
ATOM     10  C   UNL     1       3.659   7.379  17.515  0.00  0.00    +0.000 C 
ATOM     11  O   UNL     1       4.778   7.724  17.148  0.00  0.00    +0.000 OA
BRANCH  10  13
ATOM     12  C   UNL     1       2.194   9.221  18.090  0.00  0.00    +0.000 C 
ATOM     13  O   UNL     1       2.591   8.186  17.273  0.00  0.00    +0.000 OA
ENDBRANCH  10  13
ENDBRANCH   2  10
ENDBRANCH   1   2
BRANCH   1  14
ATOM     14  S   UNL     1       6.100   5.387  18.354  0.00  0.00    +0.000 S 
BRANCH  14  15
ATOM     15  C   UNL     1       6.993   5.029  16.822  0.00  0.00    +0.000 C 
ATOM     16  N   UNL     1       7.980   4.204  16.831  0.00  0.00    +0.000 NA
ATOM     17  N   UNL     1       6.576   5.645  15.603  0.00  0.00    +0.000 N 
ATOM     18  H   UNL     1       8.299   3.755  17.701  0.00  0.00    +0.000 HD
ATOM     19  H   UNL     1       6.086   6.550  15.667  0.00  0.00    +0.000 HD
BRANCH  17  20
ATOM     20  C   UNL     1       6.720   5.053  14.305  0.00  0.00    +0.000 A 
ATOM     21  C   UNL     1       7.720   5.477  13.403  0.00  0.00    +0.000 A 
ATOM     22  C   UNL     1       7.885   4.839  12.168  0.00  0.00    +0.000 A 
ATOM     23  C   UNL     1       7.048   3.782  11.808  0.00  0.00    +0.000 A 
ATOM     24  C   UNL     1       6.051   3.353  12.687  0.00  0.00    +0.000 A 
ATOM     25  C   UNL     1       5.895   3.976  13.933  0.00  0.00    +0.000 A 
ENDBRANCH  17  20
ENDBRANCH  14  15
ENDBRANCH   1  14
TORSDOF 7
ENDMDL
