MODEL 1
REMARK VINA RESULT:      -8.9      0.000      0.000
REMARK  Name = 
REMARK  9 active torsions:
REMARK  status: ('A' for Active; 'I' for Inactive)
REMARK    1  A    between atoms: C_1  and  C_2
REMARK    2  A    between atoms: C_2  and  C_3
REMARK    3  A    between atoms: C_5  and  N_6
REMARK    4  A    between atoms: N_9  and  C_10
REMARK    5  A    between atoms: C_17  and  N_18
REMARK    6  A    between atoms: C_25  and  C_26
REMARK    7  A    between atoms: C_29  and  N_30
REMARK    8  A    between atoms: N_31  and  C_32
REMARK    9  A    between atoms: C_32  and  C_33
REMARK                            x       y       z     vdW  Elec       q    Type
REMARK                         _______ _______ _______ _____ _____    ______ ____
ROOT
ATOM      1  N   UNL     1       1.436   7.295  21.251  0.00  0.00    +0.000 N 
ATOM      2  C   UNL     1       0.784   8.519  21.446  0.00  0.00    +0.000 A 
ATOM      3  N   UNL     1       0.523   8.848  22.718  0.00  0.00    +0.000 NA
ATOM      4  C   UNL     1      -0.110  10.021  22.920  0.00  0.00    +0.000 A 
ATOM      5  C   UNL     1      -0.494  10.860  21.899  0.00  0.00    +0.000 A 
ATOM      6  C   UNL     1      -1.227  12.091  22.144  0.00  0.00    +0.000 A 
ATOM      7  O   UNL     1      -1.570  12.357  23.295  0.00  0.00    +0.000 OA
ATOM      8  C   UNL     1      -1.534  12.978  20.988  0.00  0.00    +0.000 A 
ATOM      9  C   UNL     1      -1.181  12.562  19.735  0.00  0.00    +0.000 A 
ATOM     10  N   UNL     1      -0.571  11.310  19.529  0.00  0.00    +0.000 N 
ATOM     11  C   UNL     1      -0.191  10.478  20.619  0.00  0.00    +0.000 A 
ATOM     12  N   UNL     1       0.452   9.312  20.411  0.00  0.00    +0.000 NA
ATOM     13  H   UNL     1       1.641   6.885  22.145  0.00  0.00    +0.000 HD
ENDROOT
BRANCH   1  19
ATOM     14  C   UNL     1       2.455   5.414  20.046  0.00  0.00    +0.000 A 
ATOM     15  C   UNL     1       3.241   4.972  18.958  0.00  0.00    +0.000 A 
ATOM     16  C   UNL     1       3.700   5.834  17.958  0.00  0.00    +0.000 A 
ATOM     17  C   UNL     1       3.239   7.143  17.997  0.00  0.00    +0.000 A 
ATOM     18  C   UNL     1       2.427   7.586  19.036  0.00  0.00    +0.000 A 
ATOM     19  C   UNL     1       2.076   6.769  20.119  0.00  0.00    +0.000 A 
BRANCH  16  20
ATOM     20  N   UNL     1       4.647   5.409  17.049  0.00  0.00    +0.000 N 
ATOM     21  C   UNL     1       5.514   6.385  16.375  0.00  0.00    +0.000 C 
ATOM     22  C   UNL     1       6.854   5.713  16.018  0.00  0.00    +0.000 C 
ATOM     23  N   UNL     1       6.728   4.462  15.235  0.00  0.00    +0.000 NA
ATOM     24  C   UNL     1       5.792   3.544  15.930  0.00  0.00    +0.000 C 
ATOM     25  C   UNL     1       4.426   4.165  16.304  0.00  0.00    +0.000 C 
BRANCH  23  26
ATOM     26  C   UNL     1       6.350   4.705  13.834  0.00  0.00    +0.000 C 
ATOM     27  C   UNL     1       7.334   4.398  12.737  0.00  0.00    +0.000 C 
ATOM     28  C   UNL     1       6.139   3.516  12.938  0.00  0.00    +0.000 C 
ENDBRANCH  23  26
ENDBRANCH  16  20
BRANCH  14  30
ATOM     29  C   UNL     1       1.115   3.413  20.710  0.00  0.00    +0.000 C 
ATOM     30  C   UNL     1       2.183   4.408  21.141  0.00  0.00    +0.000 C 
ENDBRANCH  14  30
ENDBRANCH   1  19
BRANCH   8  31
ATOM     31  C   UNL     1      -2.239  14.287  21.203  0.00  0.00    +0.000 C 
ATOM     32  N   UNL     1      -3.480  14.234  21.760  0.00  0.00    +0.000 N 
ATOM     33  O   UNL     1      -1.762  15.373  20.878  0.00  0.00    +0.000 OA
ATOM     34  H   UNL     1      -3.964  13.346  21.884  0.00  0.00    +0.000 HD
ATOM     35  H   UNL     1      -4.012  15.088  21.842  0.00  0.00    +0.000 HD
ENDBRANCH   8  31
BRANCH   9  36
ATOM     36  N   UNL     1      -1.404  13.383  18.635  0.00  0.00    +0.000 N 
ATOM     37  H   UNL     1      -0.856  13.106  17.812  0.00  0.00    +0.000 HD
ATOM     38  H   UNL     1      -1.288  14.371  18.820  0.00  0.00    +0.000 HD
ENDBRANCH   9  36
BRANCH  10  39
ATOM     39  C   UNL     1      -0.293  10.720  18.205  0.00  0.00    +0.000 C 
ATOM     40  C   UNL     1      -1.522  10.085  17.569  0.00  0.00    +0.000 C 
ENDBRANCH  10  39
TORSDOF 7
ENDMDL
MODEL 2
REMARK VINA RESULT:      -7.4      3.994     10.568
REMARK  Name = 
REMARK  9 active torsions:
REMARK  status: ('A' for Active; 'I' for Inactive)
REMARK    1  A    between atoms: C_1  and  C_2
REMARK    2  A    between atoms: C_2  and  C_3
REMARK    3  A    between atoms: C_5  and  N_6
REMARK    4  A    between atoms: N_9  and  C_10
REMARK    5  A    between atoms: C_17  and  N_18
REMARK    6  A    between atoms: C_25  and  C_26
REMARK    7  A    between atoms: C_29  and  N_30
REMARK    8  A    between atoms: N_31  and  C_32
REMARK    9  A    between atoms: C_32  and  C_33
REMARK                            x       y       z     vdW  Elec       q    Type
REMARK                         _______ _______ _______ _____ _____    ______ ____
ROOT
ATOM      1  N   UNL     1       2.244   9.350  17.527  0.00  0.00    +0.000 N 
ATOM      2  C   UNL     1       2.803   8.099  17.821  0.00  0.00    +0.000 A 
ATOM      3  N   UNL     1       3.892   7.764  17.117  0.00  0.00    +0.000 NA
ATOM      4  C   UNL     1       4.437   6.560  17.386  0.00  0.00    +0.000 A 
ATOM      5  C   UNL     1       3.924   5.688  18.319  0.00  0.00    +0.000 A 
ATOM      6  C   UNL     1       4.498   4.372  18.547  0.00  0.00    +0.000 A 
ATOM      7  O   UNL     1       5.432   4.003  17.836  0.00  0.00    +0.000 OA
ATOM      8  C   UNL     1       3.929   3.525  19.631  0.00  0.00    +0.000 A 
ATOM      9  C   UNL     1       2.841   3.988  20.316  0.00  0.00    +0.000 A 
ATOM     10  N   UNL     1       2.246   5.222  19.990  0.00  0.00    +0.000 N 
ATOM     11  C   UNL     1       2.815   6.089  19.018  0.00  0.00    +0.000 A 
ATOM     12  N   UNL     1       2.273   7.296  18.762  0.00  0.00    +0.000 NA
ATOM     13  H   UNL     1       2.815   9.811  16.840  0.00  0.00    +0.000 HD
ENDROOT
BRANCH   1  19
ATOM     14  C   UNL     1       1.520  11.466  18.539  0.00  0.00    +0.000 A 
ATOM     15  C   UNL     1       0.607  12.144  19.378  0.00  0.00    +0.000 A 
ATOM     16  C   UNL     1      -0.506  11.517  19.945  0.00  0.00    +0.000 A 
ATOM     17  C   UNL     1      -0.764  10.213  19.544  0.00  0.00    +0.000 A 
ATOM     18  C   UNL     1       0.100   9.543  18.682  0.00  0.00    +0.000 A 
ATOM     19  C   UNL     1       1.293  10.113  18.219  0.00  0.00    +0.000 A 
BRANCH  16  20
ATOM     20  N   UNL     1      -1.235  12.146  20.932  0.00  0.00    +0.000 N 
ATOM     21  C   UNL     1      -0.906  11.928  22.346  0.00  0.00    +0.000 C 
ATOM     22  C   UNL     1      -1.306  13.174  23.160  0.00  0.00    +0.000 C 
ATOM     23  N   UNL     1      -2.714  13.598  22.987  0.00  0.00    +0.000 NA
ATOM     24  C   UNL     1      -3.007  13.739  21.539  0.00  0.00    +0.000 C 
ATOM     25  C   UNL     1      -2.633  12.511  20.675  0.00  0.00    +0.000 C 
BRANCH  23  26
ATOM     26  C   UNL     1      -3.664  12.709  23.674  0.00  0.00    +0.000 C 
ATOM     27  C   UNL     1      -4.232  13.119  25.006  0.00  0.00    +0.000 C 
ATOM     28  C   UNL     1      -5.098  13.147  23.783  0.00  0.00    +0.000 C 
ENDBRANCH  23  26
ENDBRANCH  16  20
BRANCH  14  30
ATOM     29  C   UNL     1       2.535  13.724  18.200  0.00  0.00    +0.000 C 
ATOM     30  C   UNL     1       2.770  12.221  18.144  0.00  0.00    +0.000 C 
ENDBRANCH  14  30
ENDBRANCH   1  19
BRANCH   8  31
ATOM     31  C   UNL     1       4.529   2.182  19.937  0.00  0.00    +0.000 C 
ATOM     32  N   UNL     1       4.407   1.221  18.981  0.00  0.00    +0.000 N 
ATOM     33  O   UNL     1       5.085   1.918  21.002  0.00  0.00    +0.000 OA
ATOM     34  H   UNL     1       3.811   1.360  18.167  0.00  0.00    +0.000 HD
ATOM     35  H   UNL     1       4.727   0.286  19.190  0.00  0.00    +0.000 HD
ENDBRANCH   8  31
BRANCH   9  36
ATOM     36  N   UNL     1       2.310   3.250  21.369  0.00  0.00    +0.000 N 
ATOM     37  H   UNL     1       2.454   3.697  22.282  0.00  0.00    +0.000 HD
ATOM     38  H   UNL     1       2.613   2.285  21.398  0.00  0.00    +0.000 HD
ENDBRANCH   9  36
BRANCH  10  39
ATOM     39  C   UNL     1       0.988   5.726  20.575  0.00  0.00    +0.000 C 
ATOM     40  C   UNL     1       1.161   7.057  21.295  0.00  0.00    +0.000 C 
ENDBRANCH  10  39
TORSDOF 7
ENDMDL
MODEL 3
REMARK VINA RESULT:      -7.3      3.993     10.568
REMARK  Name = 
REMARK  9 active torsions:
REMARK  status: ('A' for Active; 'I' for Inactive)
REMARK    1  A    between atoms: C_1  and  C_2
REMARK    2  A    between atoms: C_2  and  C_3
REMARK    3  A    between atoms: C_5  and  N_6
REMARK    4  A    between atoms: N_9  and  C_10
REMARK    5  A    between atoms: C_17  and  N_18
REMARK    6  A    between atoms: C_25  and  C_26
REMARK    7  A    between atoms: C_29  and  N_30
REMARK    8  A    between atoms: N_31  and  C_32
REMARK    9  A    between atoms: C_32  and  C_33
REMARK                            x       y       z     vdW  Elec       q    Type
REMARK                         _______ _______ _______ _____ _____    ______ ____
ROOT
ATOM      1  N   UNL     1       2.216   9.412  17.524  0.00  0.00    +0.000 N 
ATOM      2  C   UNL     1       2.768   8.160  17.824  0.00  0.00    +0.000 A 
ATOM      3  N   UNL     1       3.844   7.807  17.109  0.00  0.00    +0.000 NA
ATOM      4  C   UNL     1       4.382   6.602  17.383  0.00  0.00    +0.000 A 
ATOM      5  C   UNL     1       3.874   5.744  18.333  0.00  0.00    +0.000 A 
ATOM      6  C   UNL     1       4.440   4.426  18.567  0.00  0.00    +0.000 A 
ATOM      7  O   UNL     1       5.361   4.040  17.848  0.00  0.00    +0.000 OA
ATOM      8  C   UNL     1       3.878   3.595  19.667  0.00  0.00    +0.000 A 
ATOM      9  C   UNL     1       2.804   4.075  20.362  0.00  0.00    +0.000 A 
ATOM     10  N   UNL     1       2.215   5.310  20.031  0.00  0.00    +0.000 N 
ATOM     11  C   UNL     1       2.779   6.163  19.042  0.00  0.00    +0.000 A 
ATOM     12  N   UNL     1       2.244   7.371  18.780  0.00  0.00    +0.000 NA
ATOM     13  H   UNL     1       2.782   9.861  16.825  0.00  0.00    +0.000 HD
ENDROOT
BRANCH   1  19
ATOM     14  C   UNL     1       1.515  11.551  18.503  0.00  0.00    +0.000 A 
ATOM     15  C   UNL     1       0.622  12.248  19.347  0.00  0.00    +0.000 A 
ATOM     16  C   UNL     1      -0.476  11.635  19.955  0.00  0.00    +0.000 A 
ATOM     17  C   UNL     1      -0.743  10.321  19.592  0.00  0.00    +0.000 A 
ATOM     18  C   UNL     1       0.100   9.632  18.726  0.00  0.00    +0.000 A 
ATOM     19  C   UNL     1       1.282  10.191  18.221  0.00  0.00    +0.000 A 
BRANCH  16  20
ATOM     20  N   UNL     1      -1.182  12.287  20.945  0.00  0.00    +0.000 N 
ATOM     21  C   UNL     1      -2.065  13.410  20.605  0.00  0.00    +0.000 C 
ATOM     22  C   UNL     1      -3.208  13.490  21.636  0.00  0.00    +0.000 C 
ATOM     23  N   UNL     1      -2.762  13.553  23.047  0.00  0.00    +0.000 NA
ATOM     24  C   UNL     1      -1.824  12.435  23.314  0.00  0.00    +0.000 C 
ATOM     25  C   UNL     1      -0.651  12.313  22.312  0.00  0.00    +0.000 C 
BRANCH  23  26
ATOM     26  C   UNL     1      -2.199  14.864  23.406  0.00  0.00    +0.000 C 
ATOM     27  C   UNL     1      -2.827  15.661  24.518  0.00  0.00    +0.000 C 
ATOM     28  C   UNL     1      -1.499  15.000  24.730  0.00  0.00    +0.000 C 
ENDBRANCH  23  26
ENDBRANCH  16  20
BRANCH  14  30
ATOM     29  C   UNL     1       2.708  13.747  18.523  0.00  0.00    +0.000 C 
ATOM     30  C   UNL     1       2.754  12.297  18.060  0.00  0.00    +0.000 C 
ENDBRANCH  14  30
ENDBRANCH   1  19
BRANCH   8  31
ATOM     31  C   UNL     1       4.470   2.250  19.980  0.00  0.00    +0.000 C 
ATOM     32  N   UNL     1       4.412   1.309  18.999  0.00  0.00    +0.000 N 
ATOM     33  O   UNL     1       4.966   1.967  21.070  0.00  0.00    +0.000 OA
ATOM     34  H   UNL     1       3.863   1.461  18.154  0.00  0.00    +0.000 HD
ATOM     35  H   UNL     1       4.727   0.372  19.206  0.00  0.00    +0.000 HD
ENDBRANCH   8  31
BRANCH   9  36
ATOM     36  N   UNL     1       2.281   3.353  21.431  0.00  0.00    +0.000 N 
ATOM     37  H   UNL     1       1.294   3.569  21.613  0.00  0.00    +0.000 HD
ATOM     38  H   UNL     1       2.820   3.419  22.284  0.00  0.00    +0.000 HD
ENDBRANCH   9  36
BRANCH  10  39
ATOM     39  C   UNL     1       0.970   5.833  20.628  0.00  0.00    +0.000 C 
ATOM     40  C   UNL     1       1.162   7.174  21.323  0.00  0.00    +0.000 C 
ENDBRANCH  10  39
TORSDOF 7
ENDMDL
MODEL 4
REMARK VINA RESULT:      -7.1      2.572      3.551
REMARK  Name = 
REMARK  9 active torsions:
REMARK  status: ('A' for Active; 'I' for Inactive)
REMARK    1  A    between atoms: C_1  and  C_2
REMARK    2  A    between atoms: C_2  and  C_3
REMARK    3  A    between atoms: C_5  and  N_6
REMARK    4  A    between atoms: N_9  and  C_10
REMARK    5  A    between atoms: C_17  and  N_18
REMARK    6  A    between atoms: C_25  and  C_26
REMARK    7  A    between atoms: C_29  and  N_30
REMARK    8  A    between atoms: N_31  and  C_32
REMARK    9  A    between atoms: C_32  and  C_33
REMARK                            x       y       z     vdW  Elec       q    Type
REMARK                         _______ _______ _______ _____ _____    ______ ____
ROOT
ATOM      1  N   UNL     1       0.455  10.810  20.472  0.00  0.00    +0.000 N 
ATOM      2  C   UNL     1      -0.764  11.465  20.254  0.00  0.00    +0.000 A 
ATOM      3  N   UNL     1      -0.962  12.586  20.960  0.00  0.00    +0.000 NA
ATOM      4  C   UNL     1      -2.133  13.223  20.763  0.00  0.00    +0.000 A 
ATOM      5  C   UNL     1      -3.105  12.772  19.899  0.00  0.00    +0.000 A 
ATOM      6  C   UNL     1      -4.384  13.449  19.751  0.00  0.00    +0.000 A 
ATOM      7  O   UNL     1      -4.627  14.418  20.469  0.00  0.00    +0.000 OA
ATOM      8  C   UNL     1      -5.346  12.938  18.736  0.00  0.00    +0.000 A 
ATOM      9  C   UNL     1      -5.020  11.809  18.040  0.00  0.00    +0.000 A 
ATOM     10  N   UNL     1      -3.818  11.119  18.292  0.00  0.00    +0.000 N 
ATOM     11  C   UNL     1      -2.843  11.627  19.194  0.00  0.00    +0.000 A 
ATOM     12  N   UNL     1      -1.670  10.991  19.378  0.00  0.00    +0.000 NA
ATOM     13  H   UNL     1       1.006  11.349  21.117  0.00  0.00    +0.000 HD
ENDROOT
BRANCH   1  19
ATOM     14  C   UNL     1       1.383   8.542  20.324  0.00  0.00    +0.000 A 
ATOM     15  C   UNL     1       2.169   7.613  19.607  0.00  0.00    +0.000 A 
ATOM     16  C   UNL     1       2.709   7.893  18.349  0.00  0.00    +0.000 A 
ATOM     17  C   UNL     1       2.334   9.091  17.756  0.00  0.00    +0.000 A 
ATOM     18  C   UNL     1       1.523  10.000  18.429  0.00  0.00    +0.000 A 
ATOM     19  C   UNL     1       1.091   9.793  19.746  0.00  0.00    +0.000 A 
BRANCH  16  20
ATOM     20  N   UNL     1       3.652   7.054  17.790  0.00  0.00    +0.000 N 
ATOM     21  C   UNL     1       4.732   7.605  16.961  0.00  0.00    +0.000 C 
ATOM     22  C   UNL     1       5.966   6.686  17.057  0.00  0.00    +0.000 C 
ATOM     23  N   UNL     1       5.703   5.265  16.738  0.00  0.00    +0.000 NA
ATOM     24  C   UNL     1       4.563   4.783  17.556  0.00  0.00    +0.000 C 
ATOM     25  C   UNL     1       3.293   5.664  17.490  0.00  0.00    +0.000 C 
BRANCH  23  26
ATOM     26  C   UNL     1       5.506   5.033  15.298  0.00  0.00    +0.000 C 
ATOM     27  C   UNL     1       6.692   4.707  14.431  0.00  0.00    +0.000 C 
ATOM     28  C   UNL     1       5.696   3.639  14.769  0.00  0.00    +0.000 C 
ENDBRANCH  23  26
ENDBRANCH  16  20
BRANCH  14  30
ATOM     29  C   UNL     1      -0.488   8.265  21.957  0.00  0.00    +0.000 C 
ATOM     30  C   UNL     1       1.016   8.170  21.744  0.00  0.00    +0.000 C 
ENDBRANCH  14  30
ENDBRANCH   1  19
BRANCH   8  31
ATOM     31  C   UNL     1      -6.655  13.641  18.511  0.00  0.00    +0.000 C 
ATOM     32  N   UNL     1      -7.519  13.685  19.561  0.00  0.00    +0.000 N 
ATOM     33  O   UNL     1      -6.975  14.141  17.433  0.00  0.00    +0.000 OA
ATOM     34  H   UNL     1      -7.351  13.140  20.405  0.00  0.00    +0.000 HD
ATOM     35  H   UNL     1      -8.438  14.078  19.417  0.00  0.00    +0.000 HD
ENDBRANCH   8  31
BRANCH   9  36
ATOM     36  N   UNL     1      -5.868  11.328  17.048  0.00  0.00    +0.000 N 
ATOM     37  H   UNL     1      -5.480  11.438  16.103  0.00  0.00    +0.000 HD
ATOM     38  H   UNL     1      -6.809  11.695  17.088  0.00  0.00    +0.000 HD
ENDBRANCH   9  36
BRANCH  10  39
ATOM     39  C   UNL     1      -3.457   9.818  17.696  0.00  0.00    +0.000 C 
ATOM     40  C   UNL     1      -2.770   9.955  16.344  0.00  0.00    +0.000 C 
ENDBRANCH  10  39
TORSDOF 7
ENDMDL
MODEL 5
REMARK VINA RESULT:      -7.1      3.873     10.903
REMARK  Name = 
REMARK  9 active torsions:
REMARK  status: ('A' for Active; 'I' for Inactive)
REMARK    1  A    between atoms: C_1  and  C_2
REMARK    2  A    between atoms: C_2  and  C_3
REMARK    3  A    between atoms: C_5  and  N_6
REMARK    4  A    between atoms: N_9  and  C_10
REMARK    5  A    between atoms: C_17  and  N_18
REMARK    6  A    between atoms: C_25  and  C_26
REMARK    7  A    between atoms: C_29  and  N_30
REMARK    8  A    between atoms: N_31  and  C_32
REMARK    9  A    between atoms: C_32  and  C_33
REMARK                            x       y       z     vdW  Elec       q    Type
REMARK                         _______ _______ _______ _____ _____    ______ ____
ROOT
ATOM      1  N   UNL     1       1.224  10.576  18.033  0.00  0.00    +0.000 N 
ATOM      2  C   UNL     1       1.852   9.327  18.119  0.00  0.00    +0.000 A 
ATOM      3  N   UNL     1       2.675   9.014  17.110  0.00  0.00    +0.000 NA
ATOM      4  C   UNL     1       3.282   7.812  17.177  0.00  0.00    +0.000 A 
ATOM      5  C   UNL     1       3.084   6.920  18.206  0.00  0.00    +0.000 A 
ATOM      6  C   UNL     1       3.707   5.607  18.223  0.00  0.00    +0.000 A 
ATOM      7  O   UNL     1       4.381   5.259  17.254  0.00  0.00    +0.000 OA
ATOM      8  C   UNL     1       3.501   4.737  19.413  0.00  0.00    +0.000 A 
ATOM      9  C   UNL     1       2.672   5.177  20.407  0.00  0.00    +0.000 A 
ATOM     10  N   UNL     1       2.000   6.409  20.301  0.00  0.00    +0.000 N 
ATOM     11  C   UNL     1       2.240   7.298  19.217  0.00  0.00    +0.000 A 
ATOM     12  N   UNL     1       1.639   8.503  19.161  0.00  0.00    +0.000 NA
ATOM     13  H   UNL     1       1.555  11.054  17.213  0.00  0.00    +0.000 HD
ENDROOT
BRANCH   1  19
ATOM     14  C   UNL     1      -0.874  11.244  19.118  0.00  0.00    +0.000 A 
ATOM     15  C   UNL     1      -1.544  12.132  19.990  0.00  0.00    +0.000 A 
ATOM     16  C   UNL     1      -0.877  13.119  20.720  0.00  0.00    +0.000 A 
ATOM     17  C   UNL     1       0.510  13.116  20.660  0.00  0.00    +0.000 A 
ATOM     18  C   UNL     1       1.190  12.219  19.841  0.00  0.00    +0.000 A 
ATOM     19  C   UNL     1       0.527  11.319  18.997  0.00  0.00    +0.000 A 
BRANCH  16  20
ATOM     20  N   UNL     1      -1.587  14.104  21.375  0.00  0.00    +0.000 N 
ATOM     21  C   UNL     1      -1.041  14.724  22.590  0.00  0.00    +0.000 C 
ATOM     22  C   UNL     1      -1.580  16.163  22.712  0.00  0.00    +0.000 C 
ATOM     23  N   UNL     1      -3.055  16.277  22.656  0.00  0.00    +0.000 NA
ATOM     24  C   UNL     1      -3.553  15.578  21.446  0.00  0.00    +0.000 C 
ATOM     25  C   UNL     1      -3.050  14.124  21.278  0.00  0.00    +0.000 C 
BRANCH  23  26
ATOM     26  C   UNL     1      -3.707  15.810  23.890  0.00  0.00    +0.000 C 
ATOM     27  C   UNL     1      -4.393  16.806  24.788  0.00  0.00    +0.000 C 
ATOM     28  C   UNL     1      -5.209  15.856  23.963  0.00  0.00    +0.000 C 
ENDBRANCH  23  26
ENDBRANCH  16  20
BRANCH  14  30
ATOM     29  C   UNL     1      -2.305  11.116  17.073  0.00  0.00    +0.000 C 
ATOM     30  C   UNL     1      -1.742  10.349  18.261  0.00  0.00    +0.000 C 
ENDBRANCH  14  30
ENDBRANCH   1  19
BRANCH   8  31
ATOM     31  C   UNL     1       4.172   3.395  19.497  0.00  0.00    +0.000 C 
ATOM     32  N   UNL     1       5.493   3.346  19.175  0.00  0.00    +0.000 N 
ATOM     33  O   UNL     1       3.581   2.363  19.811  0.00  0.00    +0.000 OA
ATOM     34  H   UNL     1       5.963   4.147  18.754  0.00  0.00    +0.000 HD
ATOM     35  H   UNL     1       5.953   2.447  19.143  0.00  0.00    +0.000 HD
ENDBRANCH   8  31
BRANCH   9  36
ATOM     36  N   UNL     1       2.493   4.416  21.558  0.00  0.00    +0.000 N 
ATOM     37  H   UNL     1       1.901   3.592  21.403  0.00  0.00    +0.000 HD
ATOM     38  H   UNL     1       2.165   4.941  22.358  0.00  0.00    +0.000 HD
ENDBRANCH   9  36
BRANCH  10  39
ATOM     39  C   UNL     1       0.978   6.891  21.252  0.00  0.00    +0.000 C 
ATOM     40  C   UNL     1       1.233   8.317  21.723  0.00  0.00    +0.000 C 
ENDBRANCH  10  39
TORSDOF 7
ENDMDL
MODEL 6
REMARK VINA RESULT:      -7.1      4.009     10.725
REMARK  Name = 
REMARK  9 active torsions:
REMARK  status: ('A' for Active; 'I' for Inactive)
REMARK    1  A    between atoms: C_1  and  C_2
REMARK    2  A    between atoms: C_2  and  C_3
REMARK    3  A    between atoms: C_5  and  N_6
REMARK    4  A    between atoms: N_9  and  C_10
REMARK    5  A    between atoms: C_17  and  N_18
REMARK    6  A    between atoms: C_25  and  C_26
REMARK    7  A    between atoms: C_29  and  N_30
REMARK    8  A    between atoms: N_31  and  C_32
REMARK    9  A    between atoms: C_32  and  C_33
REMARK                            x       y       z     vdW  Elec       q    Type
REMARK                         _______ _______ _______ _____ _____    ______ ____
ROOT
ATOM      1  N   UNL     1       1.779   9.727  17.831  0.00  0.00    +0.000 N 
ATOM      2  C   UNL     1       2.371   8.464  17.959  0.00  0.00    +0.000 A 
ATOM      3  N   UNL     1       3.310   8.163  17.053  0.00  0.00    +0.000 NA
ATOM      4  C   UNL     1       3.885   6.948  17.161  0.00  0.00    +0.000 A 
ATOM      5  C   UNL     1       3.544   6.033  18.131  0.00  0.00    +0.000 A 
ATOM      6  C   UNL     1       4.139   4.708  18.188  0.00  0.00    +0.000 A 
ATOM      7  O   UNL     1       4.924   4.373  17.302  0.00  0.00    +0.000 OA
ATOM      8  C   UNL     1       3.771   3.810  19.317  0.00  0.00    +0.000 A 
ATOM      9  C   UNL     1       2.830   4.239  20.211  0.00  0.00    +0.000 A 
ATOM     10  N   UNL     1       2.196   5.487  20.057  0.00  0.00    +0.000 N 
ATOM     11  C   UNL     1       2.585   6.400  19.038  0.00  0.00    +0.000 A 
ATOM     12  N   UNL     1       2.015   7.617  18.943  0.00  0.00    +0.000 NA
ATOM     13  H   UNL     1       2.218  10.221  17.074  0.00  0.00    +0.000 HD
ENDROOT
BRANCH   1  19
ATOM     14  C   UNL     1      -0.426  10.482  18.604  0.00  0.00    +0.000 A 
ATOM     15  C   UNL     1      -1.175  11.360  19.418  0.00  0.00    +0.000 A 
ATOM     16  C   UNL     1      -0.580  12.245  20.321  0.00  0.00    +0.000 A 
ATOM     17  C   UNL     1       0.794  12.140  20.491  0.00  0.00    +0.000 A 
ATOM     18  C   UNL     1       1.544  11.249  19.729  0.00  0.00    +0.000 A 
ATOM     19  C   UNL     1       0.977  10.457  18.721  0.00  0.00    +0.000 A 
BRANCH  16  20
ATOM     20  N   UNL     1      -1.326  13.236  20.924  0.00  0.00    +0.000 N 
ATOM     21  C   UNL     1      -0.796  13.955  22.090  0.00  0.00    +0.000 C 
ATOM     22  C   UNL     1      -1.397  15.374  22.130  0.00  0.00    +0.000 C 
ATOM     23  N   UNL     1      -2.876  15.418  22.087  0.00  0.00    +0.000 NA
ATOM     24  C   UNL     1      -3.356  14.623  20.930  0.00  0.00    +0.000 C 
ATOM     25  C   UNL     1      -2.790  13.186  20.846  0.00  0.00    +0.000 C 
BRANCH  23  26
ATOM     26  C   UNL     1      -3.493  15.002  23.357  0.00  0.00    +0.000 C 
ATOM     27  C   UNL     1      -4.251  16.011  24.179  0.00  0.00    +0.000 C 
ATOM     28  C   UNL     1      -4.994  14.943  23.433  0.00  0.00    +0.000 C 
ENDBRANCH  23  26
ENDBRANCH  16  20
BRANCH  14  30
ATOM     29  C   UNL     1      -2.301  10.566  16.955  0.00  0.00    +0.000 C 
ATOM     30  C   UNL     1      -1.192   9.712  17.551  0.00  0.00    +0.000 C 
ENDBRANCH  14  30
ENDBRANCH   1  19
BRANCH   8  31
ATOM     31  C   UNL     1       4.404   2.453  19.446  0.00  0.00    +0.000 C 
ATOM     32  N   UNL     1       4.052   1.519  18.521  0.00  0.00    +0.000 N 
ATOM     33  O   UNL     1       5.187   2.157  20.347  0.00  0.00    +0.000 OA
ATOM     34  H   UNL     1       3.286   1.685  17.869  0.00  0.00    +0.000 HD
ATOM     35  H   UNL     1       4.398   0.576  18.628  0.00  0.00    +0.000 HD
ENDBRANCH   8  31
BRANCH   9  36
ATOM     36  N   UNL     1       2.495   3.452  21.308  0.00  0.00    +0.000 N 
ATOM     37  H   UNL     1       2.788   3.866  22.201  0.00  0.00    +0.000 HD
ATOM     38  H   UNL     1       2.807   2.492  21.245  0.00  0.00    +0.000 HD
ENDBRANCH   9  36
BRANCH  10  39
ATOM     39  C   UNL     1       1.070   5.963  20.886  0.00  0.00    +0.000 C 
ATOM     40  C   UNL     1       1.212   7.423  21.296  0.00  0.00    +0.000 C 
ENDBRANCH  10  39
TORSDOF 7
ENDMDL
MODEL 7
REMARK VINA RESULT:      -7.0      2.700      4.158
REMARK  Name = 
REMARK  9 active torsions:
REMARK  status: ('A' for Active; 'I' for Inactive)
REMARK    1  A    between atoms: C_1  and  C_2
REMARK    2  A    between atoms: C_2  and  C_3
REMARK    3  A    between atoms: C_5  and  N_6
REMARK    4  A    between atoms: N_9  and  C_10
REMARK    5  A    between atoms: C_17  and  N_18
REMARK    6  A    between atoms: C_25  and  C_26
REMARK    7  A    between atoms: C_29  and  N_30
REMARK    8  A    between atoms: N_31  and  C_32
REMARK    9  A    between atoms: C_32  and  C_33
REMARK                            x       y       z     vdW  Elec       q    Type
REMARK                         _______ _______ _______ _____ _____    ______ ____
ROOT
ATOM      1  N   UNL     1       0.136  11.188  20.512  0.00  0.00    +0.000 N 
ATOM      2  C   UNL     1      -1.087  11.844  20.324  0.00  0.00    +0.000 A 
ATOM      3  N   UNL     1      -1.246  12.991  20.996  0.00  0.00    +0.000 NA
ATOM      4  C   UNL     1      -2.421  13.631  20.828  0.00  0.00    +0.000 A 
ATOM      5  C   UNL     1      -3.434  13.155  20.027  0.00  0.00    +0.000 A 
ATOM      6  C   UNL     1      -4.713  13.836  19.910  0.00  0.00    +0.000 A 
ATOM      7  O   UNL     1      -4.918  14.833  20.602  0.00  0.00    +0.000 OA
ATOM      8  C   UNL     1      -5.723  13.296  18.960  0.00  0.00    +0.000 A 
ATOM      9  C   UNL     1      -5.436  12.138  18.293  0.00  0.00    +0.000 A 
ATOM     10  N   UNL     1      -4.229  11.449  18.517  0.00  0.00    +0.000 N 
ATOM     11  C   UNL     1      -3.211  11.982  19.354  0.00  0.00    +0.000 A 
ATOM     12  N   UNL     1      -2.035  11.345  19.509  0.00  0.00    +0.000 NA
ATOM     13  H   UNL     1       0.720  11.746  21.110  0.00  0.00    +0.000 HD
ENDROOT
BRANCH   1  19
ATOM     14  C   UNL     1       0.835   8.841  20.335  0.00  0.00    +0.000 A 
ATOM     15  C   UNL     1       1.588   7.863  19.647  0.00  0.00    +0.000 A 
ATOM     16  C   UNL     1       2.276   8.135  18.462  0.00  0.00    +0.000 A 
ATOM     17  C   UNL     1       2.086   9.390  17.899  0.00  0.00    +0.000 A 
ATOM     18  C   UNL     1       1.311  10.352  18.539  0.00  0.00    +0.000 A 
ATOM     19  C   UNL     1       0.732  10.138  19.797  0.00  0.00    +0.000 A 
BRANCH  16  20
ATOM     20  N   UNL     1       3.177   7.223  17.951  0.00  0.00    +0.000 N 
ATOM     21  C   UNL     1       3.218   5.852  18.475  0.00  0.00    +0.000 C 
ATOM     22  C   UNL     1       3.714   4.900  17.369  0.00  0.00    +0.000 C 
ATOM     23  N   UNL     1       5.004   5.288  16.754  0.00  0.00    +0.000 NA
ATOM     24  C   UNL     1       4.925   6.700  16.304  0.00  0.00    +0.000 C 
ATOM     25  C   UNL     1       4.440   7.702  17.378  0.00  0.00    +0.000 C 
BRANCH  23  26
ATOM     26  C   UNL     1       6.153   5.038  17.638  0.00  0.00    +0.000 C 
ATOM     27  C   UNL     1       7.439   4.519  17.053  0.00  0.00    +0.000 C 
ATOM     28  C   UNL     1       7.350   5.940  17.523  0.00  0.00    +0.000 C 
ENDBRANCH  23  26
ENDBRANCH  16  20
BRANCH  14  30
ATOM     29  C   UNL     1       0.967   9.256  22.795  0.00  0.00    +0.000 C 
ATOM     30  C   UNL     1       0.294   8.452  21.693  0.00  0.00    +0.000 C 
ENDBRANCH  14  30
ENDBRANCH   1  19
BRANCH   8  31
ATOM     31  C   UNL     1      -7.037  14.000  18.767  0.00  0.00    +0.000 C 
ATOM     32  N   UNL     1      -7.853  14.090  19.852  0.00  0.00    +0.000 N 
ATOM     33  O   UNL     1      -7.403  14.462  17.687  0.00  0.00    +0.000 OA
ATOM     34  H   UNL     1      -7.650  13.575  20.709  0.00  0.00    +0.000 HD
ATOM     35  H   UNL     1      -8.775  14.485  19.735  0.00  0.00    +0.000 HD
ENDBRANCH   8  31
BRANCH   9  36
ATOM     36  N   UNL     1      -6.332  11.627  17.359  0.00  0.00    +0.000 N 
ATOM     37  H   UNL     1      -6.535  10.631  17.504  0.00  0.00    +0.000 HD
ATOM     38  H   UNL     1      -6.075  11.798  16.395  0.00  0.00    +0.000 HD
ENDBRANCH   9  36
BRANCH  10  39
ATOM     39  C   UNL     1      -3.904  10.123  17.954  0.00  0.00    +0.000 C 
ATOM     40  C   UNL     1      -3.250  10.205  16.582  0.00  0.00    +0.000 C 
ENDBRANCH  10  39
TORSDOF 7
ENDMDL
MODEL 8
REMARK VINA RESULT:      -7.0      3.994     10.679
REMARK  Name = 
REMARK  9 active torsions:
REMARK  status: ('A' for Active; 'I' for Inactive)
REMARK    1  A    between atoms: C_1  and  C_2
REMARK    2  A    between atoms: C_2  and  C_3
REMARK    3  A    between atoms: C_5  and  N_6
REMARK    4  A    between atoms: N_9  and  C_10
REMARK    5  A    between atoms: C_17  and  N_18
REMARK    6  A    between atoms: C_25  and  C_26
REMARK    7  A    between atoms: C_29  and  N_30
REMARK    8  A    between atoms: N_31  and  C_32
REMARK    9  A    between atoms: C_32  and  C_33
REMARK                            x       y       z     vdW  Elec       q    Type
REMARK                         _______ _______ _______ _____ _____    ______ ____
ROOT
ATOM      1  N   UNL     1       1.825   9.834  17.699  0.00  0.00    +0.000 N 
ATOM      2  C   UNL     1       2.403   8.568  17.861  0.00  0.00    +0.000 A 
ATOM      3  N   UNL     1       3.358   8.242  16.980  0.00  0.00    +0.000 NA
ATOM      4  C   UNL     1       3.919   7.025  17.121  0.00  0.00    +0.000 A 
ATOM      5  C   UNL     1       3.549   6.129  18.099  0.00  0.00    +0.000 A 
ATOM      6  C   UNL     1       4.131   4.800  18.191  0.00  0.00    +0.000 A 
ATOM      7  O   UNL     1       4.931   4.443  17.327  0.00  0.00    +0.000 OA
ATOM      8  C   UNL     1       3.731   3.925  19.327  0.00  0.00    +0.000 A 
ATOM      9  C   UNL     1       2.777   4.379  20.194  0.00  0.00    +0.000 A 
ATOM     10  N   UNL     1       2.157   5.629  20.005  0.00  0.00    +0.000 N 
ATOM     11  C   UNL     1       2.576   6.521  18.980  0.00  0.00    +0.000 A 
ATOM     12  N   UNL     1       2.019   7.741  18.851  0.00  0.00    +0.000 NA
ATOM     13  H   UNL     1       2.285  10.310  16.943  0.00  0.00    +0.000 HD
ENDROOT
BRANCH   1  19
ATOM     14  C   UNL     1      -0.392  10.566  18.457  0.00  0.00    +0.000 A 
ATOM     15  C   UNL     1      -1.157  11.464  19.234  0.00  0.00    +0.000 A 
ATOM     16  C   UNL     1      -0.578  12.410  20.085  0.00  0.00    +0.000 A 
ATOM     17  C   UNL     1       0.800  12.351  20.243  0.00  0.00    +0.000 A 
ATOM     18  C   UNL     1       1.567  11.443  19.519  0.00  0.00    +0.000 A 
ATOM     19  C   UNL     1       1.012  10.586  18.560  0.00  0.00    +0.000 A 
BRANCH  16  20
ATOM     20  N   UNL     1      -1.346  13.410  20.644  0.00  0.00    +0.000 N 
ATOM     21  C   UNL     1      -2.640  13.091  21.262  0.00  0.00    +0.000 C 
ATOM     22  C   UNL     1      -2.941  14.118  22.371  0.00  0.00    +0.000 C 
ATOM     23  N   UNL     1      -2.878  15.532  21.936  0.00  0.00    +0.000 NA
ATOM     24  C   UNL     1      -1.579  15.778  21.263  0.00  0.00    +0.000 C 
ATOM     25  C   UNL     1      -1.229  14.780  20.133  0.00  0.00    +0.000 C 
BRANCH  23  26
ATOM     26  C   UNL     1      -4.030  15.923  21.108  0.00  0.00    +0.000 C 
ATOM     27  C   UNL     1      -5.021  16.922  21.642  0.00  0.00    +0.000 C 
ATOM     28  C   UNL     1      -4.067  17.322  20.557  0.00  0.00    +0.000 C 
ENDBRANCH  23  26
ENDBRANCH  16  20
BRANCH  14  30
ATOM     29  C   UNL     1      -2.625  10.081  17.447  0.00  0.00    +0.000 C 
ATOM     30  C   UNL     1      -1.146   9.722  17.453  0.00  0.00    +0.000 C 
ENDBRANCH  14  30
ENDBRANCH   1  19
BRANCH   8  31
ATOM     31  C   UNL     1       4.350   2.566  19.492  0.00  0.00    +0.000 C 
ATOM     32  N   UNL     1       4.083   1.646  18.525  0.00  0.00    +0.000 N 
ATOM     33  O   UNL     1       5.047   2.254  20.456  0.00  0.00    +0.000 OA
ATOM     34  H   UNL     1       3.380   1.824  17.808  0.00  0.00    +0.000 HD
ATOM     35  H   UNL     1       4.416   0.701  18.648  0.00  0.00    +0.000 HD
ENDBRANCH   8  31
BRANCH   9  36
ATOM     36  N   UNL     1       2.412   3.613  21.297  0.00  0.00    +0.000 N 
ATOM     37  H   UNL     1       1.505   3.890  21.692  0.00  0.00    +0.000 HD
ATOM     38  H   UNL     1       3.114   3.566  22.024  0.00  0.00    +0.000 HD
ENDBRANCH   9  36
BRANCH  10  39
ATOM     39  C   UNL     1       1.020   6.130  20.802  0.00  0.00    +0.000 C 
ATOM     40  C   UNL     1       1.244   7.537  21.337  0.00  0.00    +0.000 C 
ENDBRANCH  10  39
TORSDOF 7
ENDMDL
MODEL 9
REMARK VINA RESULT:      -6.9      2.425      2.964
REMARK  Name = 
REMARK  9 active torsions:
REMARK  status: ('A' for Active; 'I' for Inactive)
REMARK    1  A    between atoms: C_1  and  C_2
REMARK    2  A    between atoms: C_2  and  C_3
REMARK    3  A    between atoms: C_5  and  N_6
REMARK    4  A    between atoms: N_9  and  C_10
REMARK    5  A    between atoms: C_17  and  N_18
REMARK    6  A    between atoms: C_25  and  C_26
REMARK    7  A    between atoms: C_29  and  N_30
REMARK    8  A    between atoms: N_31  and  C_32
REMARK    9  A    between atoms: C_32  and  C_33
REMARK                            x       y       z     vdW  Elec       q    Type
REMARK                         _______ _______ _______ _____ _____    ______ ____
ROOT
ATOM      1  N   UNL     1       0.774   9.940  20.399  0.00  0.00    +0.000 N 
ATOM      2  C   UNL     1      -0.422  10.647  20.223  0.00  0.00    +0.000 A 
ATOM      3  N   UNL     1      -0.667  11.616  21.114  0.00  0.00    +0.000 NA
ATOM      4  C   UNL     1      -1.817  12.301  20.959  0.00  0.00    +0.000 A 
ATOM      5  C   UNL     1      -2.725  12.041  19.958  0.00  0.00    +0.000 A 
ATOM      6  C   UNL     1      -3.986  12.757  19.851  0.00  0.00    +0.000 A 
ATOM      7  O   UNL     1      -4.277  13.576  20.721  0.00  0.00    +0.000 OA
ATOM      8  C   UNL     1      -4.873  12.467  18.691  0.00  0.00    +0.000 A 
ATOM      9  C   UNL     1      -4.501  11.484  17.816  0.00  0.00    +0.000 A 
ATOM     10  N   UNL     1      -3.325  10.737  18.018  0.00  0.00    +0.000 N 
ATOM     11  C   UNL     1      -2.417  11.046  19.068  0.00  0.00    +0.000 A 
ATOM     12  N   UNL     1      -1.263  10.365  19.210  0.00  0.00    +0.000 NA
ATOM     13  H   UNL     1       1.279  10.336  21.172  0.00  0.00    +0.000 HD
ENDROOT
BRANCH   1  19
ATOM     14  C   UNL     1       1.675   7.717  19.875  0.00  0.00    +0.000 A 
ATOM     15  C   UNL     1       2.508   6.924  19.054  0.00  0.00    +0.000 A 
ATOM     16  C   UNL     1       3.166   7.431  17.931  0.00  0.00    +0.000 A 
ATOM     17  C   UNL     1       2.866   8.736  17.563  0.00  0.00    +0.000 A 
ATOM     18  C   UNL     1       2.011   9.519  18.334  0.00  0.00    +0.000 A 
ATOM     19  C   UNL     1       1.457   9.067  19.539  0.00  0.00    +0.000 A 
BRANCH  16  20
ATOM     20  N   UNL     1       4.142   6.690  17.298  0.00  0.00    +0.000 N 
ATOM     21  C   UNL     1       5.192   7.361  16.521  0.00  0.00    +0.000 C 
ATOM     22  C   UNL     1       6.466   6.494  16.531  0.00  0.00    +0.000 C 
ATOM     23  N   UNL     1       6.265   5.097  16.085  0.00  0.00    +0.000 NA
ATOM     24  C   UNL     1       5.152   4.492  16.857  0.00  0.00    +0.000 C 
ATOM     25  C   UNL     1       3.843   5.318  16.873  0.00  0.00    +0.000 C 
BRANCH  23  26
ATOM     26  C   UNL     1       6.070   4.988  14.630  0.00  0.00    +0.000 C 
ATOM     27  C   UNL     1       7.257   4.726  13.741  0.00  0.00    +0.000 C 
ATOM     28  C   UNL     1       6.252   3.641  13.986  0.00  0.00    +0.000 C 
ENDBRANCH  23  26
ENDBRANCH  16  20
BRANCH  14  30
ATOM     29  C   UNL     1       1.421   5.579  21.142  0.00  0.00    +0.000 C 
ATOM     30  C   UNL     1       1.173   7.081  21.152  0.00  0.00    +0.000 C 
ENDBRANCH  14  30
ENDBRANCH   1  19
BRANCH   8  31
ATOM     31  C   UNL     1      -6.158  13.224  18.510  0.00  0.00    +0.000 C 
ATOM     32  N   UNL     1      -6.083  14.582  18.548  0.00  0.00    +0.000 N 
ATOM     33  O   UNL     1      -7.249  12.676  18.361  0.00  0.00    +0.000 OA
ATOM     34  H   UNL     1      -5.226  15.055  18.834  0.00  0.00    +0.000 HD
ATOM     35  H   UNL     1      -6.939  15.117  18.511  0.00  0.00    +0.000 HD
ENDBRANCH   8  31
BRANCH   9  36
ATOM     36  N   UNL     1      -5.276  11.217  16.693  0.00  0.00    +0.000 N 
ATOM     37  H   UNL     1      -6.091  11.837  16.612  0.00  0.00    +0.000 HD
ATOM     38  H   UNL     1      -5.559  10.250  16.600  0.00  0.00    +0.000 HD
ENDBRANCH   9  36
BRANCH  10  39
ATOM     39  C   UNL     1      -2.927   9.566  17.211  0.00  0.00    +0.000 C 
ATOM     40  C   UNL     1      -2.441   9.943  15.819  0.00  0.00    +0.000 C 
ENDBRANCH  10  39
TORSDOF 7
ENDMDL
