MODEL 1
REMARK VINA RESULT:      -7.5      0.000      0.000
REMARK  Name = 
REMARK  8 active torsions:
REMARK  status: ('A' for Active; 'I' for Inactive)
REMARK    1  A    between atoms: C_1  and  C_2
REMARK    2  A    between atoms: C_2  and  C_3
REMARK    3  A    between atoms: C_4  and  C_5
REMARK    4  A    between atoms: C_9  and  O_10
REMARK    5  A    between atoms: O_10  and  C_11
REMARK    6  A    between atoms: C_11  and  C_12
REMARK    7  A    between atoms: C_12  and  O_13
REMARK    8  A    between atoms: O_13  and  C_14
REMARK                            x       y       z     vdW  Elec       q    Type
REMARK                         _______ _______ _______ _____ _____    ______ ____
ROOT
ATOM      1  C   UNL     1       0.405   9.562  20.036  0.00  0.00    +0.000 A 
ATOM      2  C   UNL     1       0.553   8.636  21.011  0.00  0.00    +0.000 A 
ATOM      3  C   UNL     1      -0.269   8.622  22.277  0.00  0.00    +0.000 C 
ATOM      4  N   UNL     1       1.479   7.615  20.924  0.00  0.00    +0.000 N 
ATOM      5  C   UNL     1       2.226   7.381  19.766  0.00  0.00    +0.000 A 
ATOM      6  C   UNL     1       3.015   6.233  19.648  0.00  0.00    +0.000 A 
ATOM      7  C   UNL     1       3.773   6.005  18.496  0.00  0.00    +0.000 A 
ATOM      8  C   UNL     1       3.753   6.950  17.465  0.00  0.00    +0.000 A 
ATOM      9  C   UNL     1       2.975   8.105  17.572  0.00  0.00    +0.000 A 
ATOM     10  C   UNL     1       2.207   8.309  18.720  0.00  0.00    +0.000 A 
ATOM     11  C   UNL     1       1.331   9.496  18.851  0.00  0.00    +0.000 A 
ATOM     12  O   UNL     1       1.351  10.379  18.001  0.00  0.00    +0.000 OA
ATOM     13  H   UNL     1       1.456   6.893  21.636  0.00  0.00    +0.000 HD
ENDROOT
BRANCH   1  15
ATOM     14  C   UNL     1      -0.208  11.905  20.718  0.00  0.00    +0.000 C 
ATOM     15  C   UNL     1      -0.638  10.645  19.983  0.00  0.00    +0.000 C 
ENDBRANCH   1  15
BRANCH   7  16
ATOM     16  O   UNL     1       4.561   4.912  18.258  0.00  0.00    +0.000 OA
BRANCH  16  17
ATOM     17  C   UNL     1       4.416   4.226  17.011  0.00  0.00    +0.000 C 
BRANCH  17  18
ATOM     18  C   UNL     1       3.115   3.428  16.962  0.00  0.00    +0.000 C 
BRANCH  18  19
ATOM     19  O   UNL     1       3.209   2.340  17.882  0.00  0.00    +0.000 OA
BRANCH  19  20
ATOM     20  C   UNL     1       2.670   2.565  19.121  0.00  0.00    +0.000 A 
ATOM     21  C   UNL     1       1.317   2.910  19.130  0.00  0.00    +0.000 A 
ATOM     22  C   UNL     1       0.656   3.154  20.337  0.00  0.00    +0.000 A 
ATOM     23  C   UNL     1       1.344   3.034  21.543  0.00  0.00    +0.000 A 
ATOM     24  C   UNL     1       2.690   2.669  21.540  0.00  0.00    +0.000 A 
ATOM     25  C   UNL     1       3.353   2.434  20.333  0.00  0.00    +0.000 A 
ENDBRANCH  19  20
ENDBRANCH  18  19
ENDBRANCH  17  18
ENDBRANCH  16  17
ENDBRANCH   7  16
TORSDOF 6
ENDMDL
MODEL 2
REMARK VINA RESULT:      -7.4      0.790      1.349
REMARK  Name = 
REMARK  8 active torsions:
REMARK  status: ('A' for Active; 'I' for Inactive)
REMARK    1  A    between atoms: C_1  and  C_2
REMARK    2  A    between atoms: C_2  and  C_3
REMARK    3  A    between atoms: C_4  and  C_5
REMARK    4  A    between atoms: C_9  and  O_10
REMARK    5  A    between atoms: O_10  and  C_11
REMARK    6  A    between atoms: C_11  and  C_12
REMARK    7  A    between atoms: C_12  and  O_13
REMARK    8  A    between atoms: O_13  and  C_14
REMARK                            x       y       z     vdW  Elec       q    Type
REMARK                         _______ _______ _______ _____ _____    ______ ____
ROOT
ATOM      1  C   UNL     1       0.892   9.442  19.425  0.00  0.00    +0.000 A 
ATOM      2  C   UNL     1       0.961   8.596  20.478  0.00  0.00    +0.000 A 
ATOM      3  C   UNL     1       0.088   8.718  21.703  0.00  0.00    +0.000 C 
ATOM      4  N   UNL     1       1.847   7.538  20.517  0.00  0.00    +0.000 N 
ATOM      5  C   UNL     1       2.632   7.180  19.416  0.00  0.00    +0.000 A 
ATOM      6  C   UNL     1       3.377   5.997  19.428  0.00  0.00    +0.000 A 
ATOM      7  C   UNL     1       4.172   5.645  18.333  0.00  0.00    +0.000 A 
ATOM      8  C   UNL     1       4.234   6.501  17.229  0.00  0.00    +0.000 A 
ATOM      9  C   UNL     1       3.501   7.690  17.207  0.00  0.00    +0.000 A 
ATOM     10  C   UNL     1       2.695   8.017  18.299  0.00  0.00    +0.000 A 
ATOM     11  C   UNL     1       1.864   9.244  18.292  0.00  0.00    +0.000 A 
ATOM     12  O   UNL     1       1.956  10.051  17.375  0.00  0.00    +0.000 OA
ATOM     13  H   UNL     1       1.764   6.879  21.284  0.00  0.00    +0.000 HD
ENDROOT
BRANCH   1  15
ATOM     14  C   UNL     1      -1.306  10.131  18.412  0.00  0.00    +0.000 C 
ATOM     15  C   UNL     1      -0.102  10.556  19.237  0.00  0.00    +0.000 C 
ENDBRANCH   1  15
BRANCH   7  16
ATOM     16  O   UNL     1       4.924   4.507  18.221  0.00  0.00    +0.000 OA
BRANCH  16  17
ATOM     17  C   UNL     1       4.687   3.641  17.108  0.00  0.00    +0.000 C 
BRANCH  17  18
ATOM     18  C   UNL     1       4.172   2.277  17.563  0.00  0.00    +0.000 C 
BRANCH  18  19
ATOM     19  O   UNL     1       2.747   2.326  17.636  0.00  0.00    +0.000 OA
BRANCH  19  20
ATOM     20  C   UNL     1       2.227   2.576  18.878  0.00  0.00    +0.000 A 
ATOM     21  C   UNL     1       3.065   2.260  19.950  0.00  0.00    +0.000 A 
ATOM     22  C   UNL     1       2.646   2.481  21.265  0.00  0.00    +0.000 A 
ATOM     23  C   UNL     1       1.394   3.040  21.512  0.00  0.00    +0.000 A 
ATOM     24  C   UNL     1       0.562   3.377  20.444  0.00  0.00    +0.000 A 
ATOM     25  C   UNL     1       0.977   3.148  19.129  0.00  0.00    +0.000 A 
ENDBRANCH  19  20
ENDBRANCH  18  19
ENDBRANCH  17  18
ENDBRANCH  16  17
ENDBRANCH   7  16
TORSDOF 6
ENDMDL
MODEL 3
REMARK VINA RESULT:      -7.4      5.478      8.773
REMARK  Name = 
REMARK  8 active torsions:
REMARK  status: ('A' for Active; 'I' for Inactive)
REMARK    1  A    between atoms: C_1  and  C_2
REMARK    2  A    between atoms: C_2  and  C_3
REMARK    3  A    between atoms: C_4  and  C_5
REMARK    4  A    between atoms: C_9  and  O_10
REMARK    5  A    between atoms: O_10  and  C_11
REMARK    6  A    between atoms: C_11  and  C_12
REMARK    7  A    between atoms: C_12  and  O_13
REMARK    8  A    between atoms: O_13  and  C_14
REMARK                            x       y       z     vdW  Elec       q    Type
REMARK                         _______ _______ _______ _____ _____    ______ ____
ROOT
ATOM      1  C   UNL     1       3.277   3.546  18.981  0.00  0.00    +0.000 A 
ATOM      2  C   UNL     1       2.777   4.360  18.023  0.00  0.00    +0.000 A 
ATOM      3  C   UNL     1       1.338   4.325  17.568  0.00  0.00    +0.000 C 
ATOM      4  N   UNL     1       3.553   5.301  17.377  0.00  0.00    +0.000 N 
ATOM      5  C   UNL     1       4.868   5.579  17.764  0.00  0.00    +0.000 A 
ATOM      6  C   UNL     1       5.559   6.662  17.212  0.00  0.00    +0.000 A 
ATOM      7  C   UNL     1       6.878   6.932  17.588  0.00  0.00    +0.000 A 
ATOM      8  C   UNL     1       7.512   6.093  18.511  0.00  0.00    +0.000 A 
ATOM      9  C   UNL     1       6.835   5.003  19.065  0.00  0.00    +0.000 A 
ATOM     10  C   UNL     1       5.512   4.759  18.695  0.00  0.00    +0.000 A 
ATOM     11  C   UNL     1       4.746   3.643  19.298  0.00  0.00    +0.000 A 
ATOM     12  O   UNL     1       5.296   2.846  20.048  0.00  0.00    +0.000 OA
ATOM     13  H   UNL     1       3.087   5.952  16.754  0.00  0.00    +0.000 HD
ENDROOT
BRANCH   1  15
ATOM     14  C   UNL     1       1.935   3.193  21.080  0.00  0.00    +0.000 C 
ATOM     15  C   UNL     1       2.499   2.565  19.815  0.00  0.00    +0.000 C 
ENDBRANCH   1  15
BRANCH   7  16
ATOM     16  O   UNL     1       7.644   7.971  17.136  0.00  0.00    +0.000 OA
BRANCH  16  17
ATOM     17  C   UNL     1       8.426   8.704  18.083  0.00  0.00    +0.000 C 
BRANCH  17  18
ATOM     18  C   UNL     1       8.128  10.201  18.011  0.00  0.00    +0.000 C 
BRANCH  18  19
ATOM     19  O   UNL     1       8.874  10.865  19.032  0.00  0.00    +0.000 OA
BRANCH  19  20
ATOM     20  C   UNL     1       9.963  11.574  18.601  0.00  0.00    +0.000 A 
ATOM     21  C   UNL     1       9.689  12.590  17.683  0.00  0.00    +0.000 A 
ATOM     22  C   UNL     1      10.721  13.387  17.180  0.00  0.00    +0.000 A 
ATOM     23  C   UNL     1      12.030  13.184  17.611  0.00  0.00    +0.000 A 
ATOM     24  C   UNL     1      12.306  12.185  18.544  0.00  0.00    +0.000 A 
ATOM     25  C   UNL     1      11.275  11.381  19.040  0.00  0.00    +0.000 A 
ENDBRANCH  19  20
ENDBRANCH  18  19
ENDBRANCH  17  18
ENDBRANCH  16  17
ENDBRANCH   7  16
TORSDOF 6
ENDMDL
MODEL 4
REMARK VINA RESULT:      -7.4      5.167      8.399
REMARK  Name = 
REMARK  8 active torsions:
REMARK  status: ('A' for Active; 'I' for Inactive)
REMARK    1  A    between atoms: C_1  and  C_2
REMARK    2  A    between atoms: C_2  and  C_3
REMARK    3  A    between atoms: C_4  and  C_5
REMARK    4  A    between atoms: C_9  and  O_10
REMARK    5  A    between atoms: O_10  and  C_11
REMARK    6  A    between atoms: C_11  and  C_12
REMARK    7  A    between atoms: C_12  and  O_13
REMARK    8  A    between atoms: O_13  and  C_14
REMARK                            x       y       z     vdW  Elec       q    Type
REMARK                         _______ _______ _______ _____ _____    ______ ____
ROOT
ATOM      1  C   UNL     1       2.739   3.589  19.057  0.00  0.00    +0.000 A 
ATOM      2  C   UNL     1       2.591   4.839  19.555  0.00  0.00    +0.000 A 
ATOM      3  C   UNL     1       1.556   5.205  20.590  0.00  0.00    +0.000 C 
ATOM      4  N   UNL     1       3.387   5.892  19.151  0.00  0.00    +0.000 N 
ATOM      5  C   UNL     1       4.491   5.716  18.312  0.00  0.00    +0.000 A 
ATOM      6  C   UNL     1       5.380   6.768  18.074  0.00  0.00    +0.000 A 
ATOM      7  C   UNL     1       6.476   6.597  17.223  0.00  0.00    +0.000 A 
ATOM      8  C   UNL     1       6.666   5.363  16.592  0.00  0.00    +0.000 A 
ATOM      9  C   UNL     1       5.781   4.305  16.814  0.00  0.00    +0.000 A 
ATOM     10  C   UNL     1       4.703   4.486  17.682  0.00  0.00    +0.000 A 
ATOM     11  C   UNL     1       3.772   3.373  17.983  0.00  0.00    +0.000 A 
ATOM     12  O   UNL     1       3.866   2.307  17.387  0.00  0.00    +0.000 OA
ATOM     13  H   UNL     1       3.297   6.771  19.650  0.00  0.00    +0.000 HD
ENDROOT
BRANCH   1  15
ATOM     14  C   UNL     1       0.644   2.215  18.828  0.00  0.00    +0.000 C 
ATOM     15  C   UNL     1       2.000   2.357  19.501  0.00  0.00    +0.000 C 
ENDBRANCH   1  15
BRANCH   7  16
ATOM     16  O   UNL     1       7.422   7.542  16.934  0.00  0.00    +0.000 OA
BRANCH  16  17
ATOM     17  C   UNL     1       8.176   8.103  18.012  0.00  0.00    +0.000 C 
BRANCH  17  18
ATOM     18  C   UNL     1       8.360   9.610  17.837  0.00  0.00    +0.000 C 
BRANCH  18  19
ATOM     19  O   UNL     1       8.821  10.162  19.071  0.00  0.00    +0.000 OA
BRANCH  19  20
ATOM     20  C   UNL     1       9.910  10.987  18.979  0.00  0.00    +0.000 A 
ATOM     21  C   UNL     1      10.474  11.369  20.198  0.00  0.00    +0.000 A 
ATOM     22  C   UNL     1      11.596  12.202  20.229  0.00  0.00    +0.000 A 
ATOM     23  C   UNL     1      12.170  12.641  19.038  0.00  0.00    +0.000 A 
ATOM     24  C   UNL     1      11.622  12.245  17.818  0.00  0.00    +0.000 A 
ATOM     25  C   UNL     1      10.495  11.419  17.786  0.00  0.00    +0.000 A 
ENDBRANCH  19  20
ENDBRANCH  18  19
ENDBRANCH  17  18
ENDBRANCH  16  17
ENDBRANCH   7  16
TORSDOF 6
ENDMDL
MODEL 5
REMARK VINA RESULT:      -7.3      5.457      8.726
REMARK  Name = 
REMARK  8 active torsions:
REMARK  status: ('A' for Active; 'I' for Inactive)
REMARK    1  A    between atoms: C_1  and  C_2
REMARK    2  A    between atoms: C_2  and  C_3
REMARK    3  A    between atoms: C_4  and  C_5
REMARK    4  A    between atoms: C_9  and  O_10
REMARK    5  A    between atoms: O_10  and  C_11
REMARK    6  A    between atoms: C_11  and  C_12
REMARK    7  A    between atoms: C_12  and  O_13
REMARK    8  A    between atoms: O_13  and  C_14
REMARK                            x       y       z     vdW  Elec       q    Type
REMARK                         _______ _______ _______ _____ _____    ______ ____
ROOT
ATOM      1  C   UNL     1       3.282   3.101  18.724  0.00  0.00    +0.000 A 
ATOM      2  C   UNL     1       4.399   2.810  19.429  0.00  0.00    +0.000 A 
ATOM      3  C   UNL     1       4.562   1.555  20.251  0.00  0.00    +0.000 C 
ATOM      4  N   UNL     1       5.497   3.648  19.451  0.00  0.00    +0.000 N 
ATOM      5  C   UNL     1       5.588   4.781  18.637  0.00  0.00    +0.000 A 
ATOM      6  C   UNL     1       6.784   5.500  18.548  0.00  0.00    +0.000 A 
ATOM      7  C   UNL     1       6.871   6.640  17.746  0.00  0.00    +0.000 A 
ATOM      8  C   UNL     1       5.741   7.072  17.044  0.00  0.00    +0.000 A 
ATOM      9  C   UNL     1       4.537   6.368  17.129  0.00  0.00    +0.000 A 
ATOM     10  C   UNL     1       4.471   5.219  17.918  0.00  0.00    +0.000 A 
ATOM     11  C   UNL     1       3.228   4.417  17.994  0.00  0.00    +0.000 A 
ATOM     12  O   UNL     1       2.201   4.811  17.455  0.00  0.00    +0.000 OA
ATOM     13  H   UNL     1       6.340   3.312  19.905  0.00  0.00    +0.000 HD
ENDROOT
BRANCH   1  15
ATOM     14  C   UNL     1       0.985   2.509  19.563  0.00  0.00    +0.000 C 
ATOM     15  C   UNL     1       2.079   2.215  18.550  0.00  0.00    +0.000 C 
ENDBRANCH   1  15
BRANCH   7  16
ATOM     16  O   UNL     1       7.989   7.408  17.563  0.00  0.00    +0.000 OA
BRANCH  16  17
ATOM     17  C   UNL     1       7.842   8.830  17.532  0.00  0.00    +0.000 C 
BRANCH  17  18
ATOM     18  C   UNL     1       8.748   9.506  18.559  0.00  0.00    +0.000 C 
BRANCH  18  19
ATOM     19  O   UNL     1       8.717  10.917  18.340  0.00  0.00    +0.000 OA
BRANCH  19  20
ATOM     20  C   UNL     1       9.933  11.547  18.375  0.00  0.00    +0.000 A 
ATOM     21  C   UNL     1      10.129  12.518  17.391  0.00  0.00    +0.000 A 
ATOM     22  C   UNL     1      11.328  13.234  17.332  0.00  0.00    +0.000 A 
ATOM     23  C   UNL     1      12.328  12.995  18.273  0.00  0.00    +0.000 A 
ATOM     24  C   UNL     1      12.127  12.042  19.270  0.00  0.00    +0.000 A 
ATOM     25  C   UNL     1      10.932  11.319  19.324  0.00  0.00    +0.000 A 
ENDBRANCH  19  20
ENDBRANCH  18  19
ENDBRANCH  17  18
ENDBRANCH  16  17
ENDBRANCH   7  16
TORSDOF 6
ENDMDL
MODEL 6
REMARK VINA RESULT:      -7.3      5.516      8.741
REMARK  Name = 
REMARK  8 active torsions:
REMARK  status: ('A' for Active; 'I' for Inactive)
REMARK    1  A    between atoms: C_1  and  C_2
REMARK    2  A    between atoms: C_2  and  C_3
REMARK    3  A    between atoms: C_4  and  C_5
REMARK    4  A    between atoms: C_9  and  O_10
REMARK    5  A    between atoms: O_10  and  C_11
REMARK    6  A    between atoms: C_11  and  C_12
REMARK    7  A    between atoms: C_12  and  O_13
REMARK    8  A    between atoms: O_13  and  C_14
REMARK                            x       y       z     vdW  Elec       q    Type
REMARK                         _______ _______ _______ _____ _____    ______ ____
ROOT
ATOM      1  C   UNL     1       3.252   3.688  19.003  0.00  0.00    +0.000 A 
ATOM      2  C   UNL     1       2.801   4.514  18.031  0.00  0.00    +0.000 A 
ATOM      3  C   UNL     1       1.368   4.539  17.559  0.00  0.00    +0.000 C 
ATOM      4  N   UNL     1       3.627   5.414  17.387  0.00  0.00    +0.000 N 
ATOM      5  C   UNL     1       4.947   5.636  17.789  0.00  0.00    +0.000 A 
ATOM      6  C   UNL     1       5.693   6.682  17.236  0.00  0.00    +0.000 A 
ATOM      7  C   UNL     1       7.018   6.896  17.627  0.00  0.00    +0.000 A 
ATOM      8  C   UNL     1       7.602   6.040  18.565  0.00  0.00    +0.000 A 
ATOM      9  C   UNL     1       6.871   4.986  19.120  0.00  0.00    +0.000 A 
ATOM     10  C   UNL     1       5.543   4.797  18.735  0.00  0.00    +0.000 A 
ATOM     11  C   UNL     1       4.720   3.723  19.338  0.00  0.00    +0.000 A 
ATOM     12  O   UNL     1       5.224   2.909  20.102  0.00  0.00    +0.000 OA
ATOM     13  H   UNL     1       3.198   6.079  16.752  0.00  0.00    +0.000 HD
ENDROOT
BRANCH   1  15
ATOM     14  C   UNL     1       1.840   3.425  21.069  0.00  0.00    +0.000 C 
ATOM     15  C   UNL     1       2.421   2.751  19.836  0.00  0.00    +0.000 C 
ENDBRANCH   1  15
BRANCH   7  16
ATOM     16  O   UNL     1       7.835   7.896  17.175  0.00  0.00    +0.000 OA
BRANCH  16  17
ATOM     17  C   UNL     1       7.636   9.219  17.679  0.00  0.00    +0.000 C 
BRANCH  17  18
ATOM     18  C   UNL     1       8.827   9.680  18.518  0.00  0.00    +0.000 C 
BRANCH  18  19
ATOM     19  O   UNL     1       9.666  10.506  17.709  0.00  0.00    +0.000 OA
BRANCH  19  20
ATOM     20  C   UNL     1      10.142  11.638  18.316  0.00  0.00    +0.000 A 
ATOM     21  C   UNL     1      10.736  11.441  19.564  0.00  0.00    +0.000 A 
ATOM     22  C   UNL     1      11.267  12.521  20.274  0.00  0.00    +0.000 A 
ATOM     23  C   UNL     1      11.224  13.802  19.727  0.00  0.00    +0.000 A 
ATOM     24  C   UNL     1      10.651  14.000  18.471  0.00  0.00    +0.000 A 
ATOM     25  C   UNL     1      10.112  12.921  17.765  0.00  0.00    +0.000 A 
ENDBRANCH  19  20
ENDBRANCH  18  19
ENDBRANCH  17  18
ENDBRANCH  16  17
ENDBRANCH   7  16
TORSDOF 6
ENDMDL
MODEL 7
REMARK VINA RESULT:      -7.2      2.634      5.838
REMARK  Name = 
REMARK  8 active torsions:
REMARK  status: ('A' for Active; 'I' for Inactive)
REMARK    1  A    between atoms: C_1  and  C_2
REMARK    2  A    between atoms: C_2  and  C_3
REMARK    3  A    between atoms: C_4  and  C_5
REMARK    4  A    between atoms: C_9  and  O_10
REMARK    5  A    between atoms: O_10  and  C_11
REMARK    6  A    between atoms: C_11  and  C_12
REMARK    7  A    between atoms: C_12  and  O_13
REMARK    8  A    between atoms: O_13  and  C_14
REMARK                            x       y       z     vdW  Elec       q    Type
REMARK                         _______ _______ _______ _____ _____    ______ ____
ROOT
ATOM      1  C   UNL     1       7.076   6.118  17.629  0.00  0.00    +0.000 A 
ATOM      2  C   UNL     1       7.242   5.546  18.844  0.00  0.00    +0.000 A 
ATOM      3  C   UNL     1       8.353   5.919  19.794  0.00  0.00    +0.000 C 
ATOM      4  N   UNL     1       6.396   4.563  19.318  0.00  0.00    +0.000 N 
ATOM      5  C   UNL     1       5.230   4.192  18.642  0.00  0.00    +0.000 A 
ATOM      6  C   UNL     1       4.305   3.330  19.240  0.00  0.00    +0.000 A 
ATOM      7  C   UNL     1       3.146   2.948  18.560  0.00  0.00    +0.000 A 
ATOM      8  C   UNL     1       2.926   3.419  17.261  0.00  0.00    +0.000 A 
ATOM      9  C   UNL     1       3.845   4.275  16.649  0.00  0.00    +0.000 A 
ATOM     10  C   UNL     1       4.989   4.665  17.349  0.00  0.00    +0.000 A 
ATOM     11  C   UNL     1       5.961   5.610  16.754  0.00  0.00    +0.000 A 
ATOM     12  O   UNL     1       5.838   5.978  15.592  0.00  0.00    +0.000 OA
ATOM     13  H   UNL     1       6.512   4.263  20.280  0.00  0.00    +0.000 HD
ENDROOT
BRANCH   1  15
ATOM     14  C   UNL     1       7.489   8.599  17.678  0.00  0.00    +0.000 C 
ATOM     15  C   UNL     1       7.872   7.263  17.063  0.00  0.00    +0.000 C 
ENDBRANCH   1  15
BRANCH   7  16
ATOM     16  O   UNL     1       2.162   2.132  19.049  0.00  0.00    +0.000 OA
BRANCH  16  17
ATOM     17  C   UNL     1       1.527   2.491  20.279  0.00  0.00    +0.000 C 
BRANCH  17  18
ATOM     18  C   UNL     1       0.852   3.858  20.179  0.00  0.00    +0.000 C 
BRANCH  18  19
ATOM     19  O   UNL     1       1.606   4.799  20.944  0.00  0.00    +0.000 OA
BRANCH  19  20
ATOM     20  C   UNL     1       1.686   6.060  20.416  0.00  0.00    +0.000 A 
ATOM     21  C   UNL     1       1.125   7.071  21.198  0.00  0.00    +0.000 A 
ATOM     22  C   UNL     1       1.157   8.400  20.767  0.00  0.00    +0.000 A 
ATOM     23  C   UNL     1       1.769   8.725  19.558  0.00  0.00    +0.000 A 
ATOM     24  C   UNL     1       2.349   7.721  18.784  0.00  0.00    +0.000 A 
ATOM     25  C   UNL     1       2.310   6.391  19.211  0.00  0.00    +0.000 A 
ENDBRANCH  19  20
ENDBRANCH  18  19
ENDBRANCH  17  18
ENDBRANCH  16  17
ENDBRANCH   7  16
TORSDOF 6
ENDMDL
MODEL 8
REMARK VINA RESULT:      -7.2      5.361      8.584
REMARK  Name = 
REMARK  8 active torsions:
REMARK  status: ('A' for Active; 'I' for Inactive)
REMARK    1  A    between atoms: C_1  and  C_2
REMARK    2  A    between atoms: C_2  and  C_3
REMARK    3  A    between atoms: C_4  and  C_5
REMARK    4  A    between atoms: C_9  and  O_10
REMARK    5  A    between atoms: O_10  and  C_11
REMARK    6  A    between atoms: C_11  and  C_12
REMARK    7  A    between atoms: C_12  and  O_13
REMARK    8  A    between atoms: O_13  and  C_14
REMARK                            x       y       z     vdW  Elec       q    Type
REMARK                         _______ _______ _______ _____ _____    ______ ____
ROOT
ATOM      1  C   UNL     1       3.159   3.480  19.018  0.00  0.00    +0.000 A 
ATOM      2  C   UNL     1       2.721   4.309  18.042  0.00  0.00    +0.000 A 
ATOM      3  C   UNL     1       1.292   4.344  17.558  0.00  0.00    +0.000 C 
ATOM      4  N   UNL     1       3.558   5.203  17.403  0.00  0.00    +0.000 N 
ATOM      5  C   UNL     1       4.877   5.416  17.816  0.00  0.00    +0.000 A 
ATOM      6  C   UNL     1       5.634   6.457  17.268  0.00  0.00    +0.000 A 
ATOM      7  C   UNL     1       6.957   6.662  17.669  0.00  0.00    +0.000 A 
ATOM      8  C   UNL     1       7.528   5.802  18.613  0.00  0.00    +0.000 A 
ATOM      9  C   UNL     1       6.785   4.753  19.162  0.00  0.00    +0.000 A 
ATOM     10  C   UNL     1       5.459   4.574  18.767  0.00  0.00    +0.000 A 
ATOM     11  C   UNL     1       4.624   3.505  19.363  0.00  0.00    +0.000 A 
ATOM     12  O   UNL     1       5.117   2.688  20.132  0.00  0.00    +0.000 OA
ATOM     13  H   UNL     1       3.139   5.871  16.765  0.00  0.00    +0.000 HD
ENDROOT
BRANCH   1  15
ATOM     14  C   UNL     1       1.689   3.240  21.045  0.00  0.00    +0.000 C 
ATOM     15  C   UNL     1       2.315   2.549  19.844  0.00  0.00    +0.000 C 
ENDBRANCH   1  15
BRANCH   7  16
ATOM     16  O   UNL     1       7.785   7.656  17.224  0.00  0.00    +0.000 OA
BRANCH  16  17
ATOM     17  C   UNL     1       7.509   9.002  17.622  0.00  0.00    +0.000 C 
BRANCH  17  18
ATOM     18  C   UNL     1       8.726   9.648  18.282  0.00  0.00    +0.000 C 
BRANCH  18  19
ATOM     19  O   UNL     1       8.741  11.038  17.957  0.00  0.00    +0.000 OA
BRANCH  19  20
ATOM     20  C   UNL     1       9.496  11.830  18.781  0.00  0.00    +0.000 A 
ATOM     21  C   UNL     1       9.289  13.204  18.643  0.00  0.00    +0.000 A 
ATOM     22  C   UNL     1       9.997  14.110  19.437  0.00  0.00    +0.000 A 
ATOM     23  C   UNL     1      10.901  13.642  20.388  0.00  0.00    +0.000 A 
ATOM     24  C   UNL     1      11.096  12.270  20.544  0.00  0.00    +0.000 A 
ATOM     25  C   UNL     1      10.395  11.364  19.744  0.00  0.00    +0.000 A 
ENDBRANCH  19  20
ENDBRANCH  18  19
ENDBRANCH  17  18
ENDBRANCH  16  17
ENDBRANCH   7  16
TORSDOF 6
ENDMDL
MODEL 9
REMARK VINA RESULT:      -7.1      5.165      8.399
REMARK  Name = 
REMARK  8 active torsions:
REMARK  status: ('A' for Active; 'I' for Inactive)
REMARK    1  A    between atoms: C_1  and  C_2
REMARK    2  A    between atoms: C_2  and  C_3
REMARK    3  A    between atoms: C_4  and  C_5
REMARK    4  A    between atoms: C_9  and  O_10
REMARK    5  A    between atoms: O_10  and  C_11
REMARK    6  A    between atoms: C_11  and  C_12
REMARK    7  A    between atoms: C_12  and  O_13
REMARK    8  A    between atoms: O_13  and  C_14
REMARK                            x       y       z     vdW  Elec       q    Type
REMARK                         _______ _______ _______ _____ _____    ______ ____
ROOT
ATOM      1  C   UNL     1       3.148   3.215  18.864  0.00  0.00    +0.000 A 
ATOM      2  C   UNL     1       4.341   2.958  19.448  0.00  0.00    +0.000 A 
ATOM      3  C   UNL     1       4.614   1.728  20.278  0.00  0.00    +0.000 C 
ATOM      4  N   UNL     1       5.419   3.813  19.329  0.00  0.00    +0.000 N 
ATOM      5  C   UNL     1       5.400   4.925  18.482  0.00  0.00    +0.000 A 
ATOM      6  C   UNL     1       6.567   5.660  18.245  0.00  0.00    +0.000 A 
ATOM      7  C   UNL     1       6.545   6.780  17.410  0.00  0.00    +0.000 A 
ATOM      8  C   UNL     1       5.338   7.177  16.827  0.00  0.00    +0.000 A 
ATOM      9  C   UNL     1       4.163   6.457  17.061  0.00  0.00    +0.000 A 
ATOM     10  C   UNL     1       4.204   5.328  17.880  0.00  0.00    +0.000 A 
ATOM     11  C   UNL     1       2.991   4.510  18.112  0.00  0.00    +0.000 A 
ATOM     12  O   UNL     1       1.904   4.875  17.680  0.00  0.00    +0.000 OA
ATOM     13  H   UNL     1       6.313   3.501  19.695  0.00  0.00    +0.000 HD
ENDROOT
BRANCH   1  15
ATOM     14  C   UNL     1       0.973   2.603  19.970  0.00  0.00    +0.000 C 
ATOM     15  C   UNL     1       1.949   2.306  18.844  0.00  0.00    +0.000 C 
ENDBRANCH   1  15
BRANCH   7  16
ATOM     16  O   UNL     1       7.623   7.559  17.087  0.00  0.00    +0.000 OA
BRANCH  16  17
ATOM     17  C   UNL     1       8.300   8.256  18.136  0.00  0.00    +0.000 C 
BRANCH  17  18
ATOM     18  C   UNL     1       8.123   9.768  18.004  0.00  0.00    +0.000 C 
BRANCH  18  19
ATOM     19  O   UNL     1       9.402  10.361  17.772  0.00  0.00    +0.000 OA
BRANCH  19  20
ATOM     20  C   UNL     1       9.708  11.435  18.564  0.00  0.00    +0.000 A 
ATOM     21  C   UNL     1      10.144  11.121  19.853  0.00  0.00    +0.000 A 
ATOM     22  C   UNL     1      10.494  12.135  20.748  0.00  0.00    +0.000 A 
ATOM     23  C   UNL     1      10.429  13.469  20.349  0.00  0.00    +0.000 A 
ATOM     24  C   UNL     1      10.015  13.786  19.056  0.00  0.00    +0.000 A 
ATOM     25  C   UNL     1       9.655  12.772  18.163  0.00  0.00    +0.000 A 
ENDBRANCH  19  20
ENDBRANCH  18  19
ENDBRANCH  17  18
ENDBRANCH  16  17
ENDBRANCH   7  16
TORSDOF 6
ENDMDL
