MODEL 1
REMARK VINA RESULT:      -7.8      0.000      0.000
REMARK  Name = 
REMARK  12 active torsions:
REMARK  status: ('A' for Active; 'I' for Inactive)
REMARK    1  A    between atoms: C_1  and  O_2
REMARK    2  A    between atoms: O_2  and  C_3
REMARK    3  A    between atoms: C_5  and  C_6
REMARK    4  A    between atoms: C_9  and  S_10
REMARK    5  A    between atoms: S_10  and  C_11
REMARK    6  A    between atoms: C_11  and  C_12
REMARK    7  A    between atoms: N_19  and  N_20
REMARK    8  A    between atoms: C_21  and  C_22
REMARK    9  A    between atoms: C_29  and  O_30
REMARK   10  A    between atoms: O_30  and  C_31
REMARK   11  A    between atoms: C_32  and  O_33
REMARK   12  A    between atoms: O_33  and  C_34
REMARK                            x       y       z     vdW  Elec       q    Type
REMARK                         _______ _______ _______ _____ _____    ______ ____
ROOT
ATOM      1  C   UNL     1       0.118  10.703  21.981  0.00  0.00    +0.000 A 
ATOM      2  N   UNL     1       0.846   9.972  22.812  0.00  0.00    +0.000 NA
ATOM      3  N   UNL     1       1.446   8.958  22.101  0.00  0.00    +0.000 NA
ATOM      4  C   UNL     1       1.052   9.061  20.855  0.00  0.00    +0.000 A 
ATOM      5  N   UNL     1       0.164  10.113  20.706  0.00  0.00    +0.000 N 
ENDROOT
BRANCH   1   8
ATOM      6  C   UNL     1      -1.217  14.229  22.168  0.00  0.00    +0.000 A 
ATOM      7  C   UNL     1      -0.317  13.152  22.134  0.00  0.00    +0.000 A 
ATOM      8  C   UNL     1      -0.741  11.842  22.334  0.00  0.00    +0.000 A 
ATOM      9  C   UNL     1      -2.046  11.647  22.788  0.00  0.00    +0.000 A 
ATOM     10  C   UNL     1      -2.947  12.723  22.933  0.00  0.00    +0.000 A 
ATOM     11  C   UNL     1      -2.544  14.036  22.599  0.00  0.00    +0.000 A 
BRANCH   6  13
ATOM     12  C   UNL     1       0.043  16.138  22.752  0.00  0.00    +0.000 C 
ATOM     13  O   UNL     1      -0.780  15.475  21.787  0.00  0.00    +0.000 OA
ENDBRANCH   6  13
BRANCH  10  14
ATOM     14  O   UNL     1      -4.178  12.293  23.370  0.00  0.00    +0.000 OA
ATOM     15  C   UNL     1      -4.505  12.386  24.749  0.00  0.00    +0.000 C 
ENDBRANCH  10  14
BRANCH  11  16
ATOM     16  O   UNL     1      -3.475  15.027  22.759  0.00  0.00    +0.000 OA
ATOM     17  C   UNL     1      -4.411  15.296  21.727  0.00  0.00    +0.000 C 
ENDBRANCH  11  16
ENDBRANCH   1   8
BRANCH   5  18
ATOM     18  N   UNL     1      -0.466  10.592  19.572  0.00  0.00    +0.000 NA
ATOM     19  C   UNL     1      -1.605  10.043  19.295  0.00  0.00    +0.000 C 
BRANCH  19  20
ATOM     20  C   UNL     1      -2.354  10.381  18.064  0.00  0.00    +0.000 A 
ATOM     21  C   UNL     1      -3.456  11.239  18.108  0.00  0.00    +0.000 A 
ATOM     22  C   UNL     1      -4.150  11.539  16.935  0.00  0.00    +0.000 A 
ATOM     23  C   UNL     1      -3.741  10.984  15.722  0.00  0.00    +0.000 A 
ATOM     24  C   UNL     1      -2.636  10.135  15.677  0.00  0.00    +0.000 A 
ATOM     25  C   UNL     1      -1.935   9.835  16.848  0.00  0.00    +0.000 A 
ENDBRANCH  19  20
ENDBRANCH   5  18
BRANCH   4  26
ATOM     26  S   UNL     1       1.603   8.092  19.521  0.00  0.00    +0.000 S 
BRANCH  26  27
ATOM     27  C   UNL     1       2.401   6.699  20.364  0.00  0.00    +0.000 C 
BRANCH  27  28
ATOM     28  C   UNL     1       2.005   5.391  19.714  0.00  0.00    +0.000 A 
ATOM     29  C   UNL     1       1.171   4.506  20.426  0.00  0.00    +0.000 A 
ATOM     30  C   UNL     1       0.801   3.272  19.886  0.00  0.00    +0.000 A 
ATOM     31  C   UNL     1       1.258   2.897  18.627  0.00  0.00    +0.000 A 
ATOM     32  C   UNL     1       2.093   3.754  17.911  0.00  0.00    +0.000 A 
ATOM     33  C   UNL     1       2.470   4.989  18.452  0.00  0.00    +0.000 A 
ATOM     34 CL   UNL     1       3.531   5.976  17.509  0.00  0.00    +0.000 Cl
ENDBRANCH  27  28
ENDBRANCH  26  27
ENDBRANCH   4  26
TORSDOF 9
ENDMDL
MODEL 2
REMARK VINA RESULT:      -7.8      0.604      1.061
REMARK  Name = 
REMARK  12 active torsions:
REMARK  status: ('A' for Active; 'I' for Inactive)
REMARK    1  A    between atoms: C_1  and  O_2
REMARK    2  A    between atoms: O_2  and  C_3
REMARK    3  A    between atoms: C_5  and  C_6
REMARK    4  A    between atoms: C_9  and  S_10
REMARK    5  A    between atoms: S_10  and  C_11
REMARK    6  A    between atoms: C_11  and  C_12
REMARK    7  A    between atoms: N_19  and  N_20
REMARK    8  A    between atoms: C_21  and  C_22
REMARK    9  A    between atoms: C_29  and  O_30
REMARK   10  A    between atoms: O_30  and  C_31
REMARK   11  A    between atoms: C_32  and  O_33
REMARK   12  A    between atoms: O_33  and  C_34
REMARK                            x       y       z     vdW  Elec       q    Type
REMARK                         _______ _______ _______ _____ _____    ______ ____
ROOT
ATOM      1  C   UNL     1       0.172  10.660  21.937  0.00  0.00    +0.000 A 
ATOM      2  N   UNL     1       0.873   9.962  22.818  0.00  0.00    +0.000 NA
ATOM      3  N   UNL     1       1.489   8.918  22.166  0.00  0.00    +0.000 NA
ATOM      4  C   UNL     1       1.132   8.971  20.907  0.00  0.00    +0.000 A 
ATOM      5  N   UNL     1       0.253  10.018  20.689  0.00  0.00    +0.000 N 
ENDROOT
BRANCH   1   8
ATOM      6  C   UNL     1      -1.206  14.173  21.865  0.00  0.00    +0.000 A 
ATOM      7  C   UNL     1      -0.293  13.108  21.896  0.00  0.00    +0.000 A 
ATOM      8  C   UNL     1      -0.692  11.814  22.218  0.00  0.00    +0.000 A 
ATOM      9  C   UNL     1      -1.981  11.643  22.725  0.00  0.00    +0.000 A 
ATOM     10  C   UNL     1      -2.893  12.717  22.806  0.00  0.00    +0.000 A 
ATOM     11  C   UNL     1      -2.518  14.001  22.351  0.00  0.00    +0.000 A 
BRANCH   6  13
ATOM     12  C   UNL     1      -0.927  15.523  19.949  0.00  0.00    +0.000 C 
ATOM     13  O   UNL     1      -0.799  15.387  21.369  0.00  0.00    +0.000 OA
ENDBRANCH   6  13
BRANCH  10  14
ATOM     14  O   UNL     1      -4.104  12.310  23.313  0.00  0.00    +0.000 OA
ATOM     15  C   UNL     1      -4.341  12.388  24.712  0.00  0.00    +0.000 C 
ENDBRANCH  10  14
BRANCH  11  16
ATOM     16  O   UNL     1      -3.458  14.992  22.454  0.00  0.00    +0.000 OA
ATOM     17  C   UNL     1      -3.480  15.835  23.595  0.00  0.00    +0.000 C 
ENDBRANCH  11  16
ENDBRANCH   1   8
BRANCH   5  18
ATOM     18  N   UNL     1      -0.342  10.452  19.519  0.00  0.00    +0.000 NA
ATOM     19  C   UNL     1      -1.582  10.112  19.365  0.00  0.00    +0.000 C 
BRANCH  19  20
ATOM     20  C   UNL     1      -2.327  10.420  18.124  0.00  0.00    +0.000 A 
ATOM     21  C   UNL     1      -1.891   9.936  16.888  0.00  0.00    +0.000 A 
ATOM     22  C   UNL     1      -2.607  10.244  15.730  0.00  0.00    +0.000 A 
ATOM     23  C   UNL     1      -3.757  11.031  15.810  0.00  0.00    +0.000 A 
ATOM     24  C   UNL     1      -4.196  11.506  17.045  0.00  0.00    +0.000 A 
ATOM     25  C   UNL     1      -3.485  11.197  18.207  0.00  0.00    +0.000 A 
ENDBRANCH  19  20
ENDBRANCH   5  18
BRANCH   4  26
ATOM     26  S   UNL     1       1.719   7.947  19.629  0.00  0.00    +0.000 S 
BRANCH  26  27
ATOM     27  C   UNL     1       2.308   6.496  20.543  0.00  0.00    +0.000 C 
BRANCH  27  28
ATOM     28  C   UNL     1       1.950   5.225  19.804  0.00  0.00    +0.000 A 
ATOM     29  C   UNL     1       1.098   4.294  20.430  0.00  0.00    +0.000 A 
ATOM     30  C   UNL     1       0.762   3.091  19.807  0.00  0.00    +0.000 A 
ATOM     31  C   UNL     1       1.271   2.792  18.547  0.00  0.00    +0.000 A 
ATOM     32  C   UNL     1       2.124   3.696  17.915  0.00  0.00    +0.000 A 
ATOM     33  C   UNL     1       2.468   4.900  18.539  0.00  0.00    +0.000 A 
ATOM     34 CL   UNL     1       3.554   5.948  17.697  0.00  0.00    +0.000 Cl
ENDBRANCH  27  28
ENDBRANCH  26  27
ENDBRANCH   4  26
TORSDOF 9
ENDMDL
MODEL 3
REMARK VINA RESULT:      -7.7      1.052      1.675
REMARK  Name = 
REMARK  12 active torsions:
REMARK  status: ('A' for Active; 'I' for Inactive)
REMARK    1  A    between atoms: C_1  and  O_2
REMARK    2  A    between atoms: O_2  and  C_3
REMARK    3  A    between atoms: C_5  and  C_6
REMARK    4  A    between atoms: C_9  and  S_10
REMARK    5  A    between atoms: S_10  and  C_11
REMARK    6  A    between atoms: C_11  and  C_12
REMARK    7  A    between atoms: N_19  and  N_20
REMARK    8  A    between atoms: C_21  and  C_22
REMARK    9  A    between atoms: C_29  and  O_30
REMARK   10  A    between atoms: O_30  and  C_31
REMARK   11  A    between atoms: C_32  and  O_33
REMARK   12  A    between atoms: O_33  and  C_34
REMARK                            x       y       z     vdW  Elec       q    Type
REMARK                         _______ _______ _______ _____ _____    ______ ____
ROOT
ATOM      1  C   UNL     1       0.210  10.753  21.765  0.00  0.00    +0.000 A 
ATOM      2  N   UNL     1       0.965  10.048  22.595  0.00  0.00    +0.000 NA
ATOM      3  N   UNL     1       1.579   9.040  21.886  0.00  0.00    +0.000 NA
ATOM      4  C   UNL     1       1.168   9.121  20.645  0.00  0.00    +0.000 A 
ATOM      5  N   UNL     1       0.254  10.151  20.496  0.00  0.00    +0.000 N 
ENDROOT
BRANCH   1   8
ATOM      6  C   UNL     1      -1.234  14.238  21.890  0.00  0.00    +0.000 A 
ATOM      7  C   UNL     1      -0.301  13.191  21.853  0.00  0.00    +0.000 A 
ATOM      8  C   UNL     1      -0.670  11.875  22.117  0.00  0.00    +0.000 A 
ATOM      9  C   UNL     1      -1.947  11.655  22.636  0.00  0.00    +0.000 A 
ATOM     10  C   UNL     1      -2.877  12.706  22.785  0.00  0.00    +0.000 A 
ATOM     11  C   UNL     1      -2.534  14.018  22.388  0.00  0.00    +0.000 A 
BRANCH   6  13
ATOM     12  C   UNL     1      -0.909  15.650  20.026  0.00  0.00    +0.000 C 
ATOM     13  O   UNL     1      -0.858  15.483  21.447  0.00  0.00    +0.000 OA
ENDBRANCH   6  13
BRANCH  10  14
ATOM     14  O   UNL     1      -4.072  12.252  23.292  0.00  0.00    +0.000 OA
ATOM     15  C   UNL     1      -4.354  12.412  24.675  0.00  0.00    +0.000 C 
ENDBRANCH  10  14
BRANCH  11  16
ATOM     16  O   UNL     1      -3.490  14.984  22.555  0.00  0.00    +0.000 OA
ATOM     17  C   UNL     1      -4.398  15.274  21.504  0.00  0.00    +0.000 C 
ENDBRANCH  11  16
ENDBRANCH   1   8
BRANCH   5  18
ATOM     18  N   UNL     1      -0.400  10.603  19.365  0.00  0.00    +0.000 NA
ATOM     19  C   UNL     1      -1.600  10.146  19.196  0.00  0.00    +0.000 C 
BRANCH  19  20
ATOM     20  C   UNL     1      -2.391  10.463  17.987  0.00  0.00    +0.000 A 
ATOM     21  C   UNL     1      -2.014   9.972  16.734  0.00  0.00    +0.000 A 
ATOM     22  C   UNL     1      -2.773  10.289  15.606  0.00  0.00    +0.000 A 
ATOM     23  C   UNL     1      -3.908  11.091  15.733  0.00  0.00    +0.000 A 
ATOM     24  C   UNL     1      -4.289  11.574  16.984  0.00  0.00    +0.000 A 
ATOM     25  C   UNL     1      -3.534  11.256  18.117  0.00  0.00    +0.000 A 
ENDBRANCH  19  20
ENDBRANCH   5  18
BRANCH   4  26
ATOM     26  S   UNL     1       1.726   8.152  19.314  0.00  0.00    +0.000 S 
BRANCH  26  27
ATOM     27  C   UNL     1       2.208   6.611  20.139  0.00  0.00    +0.000 C 
BRANCH  27  28
ATOM     28  C   UNL     1       2.620   5.571  19.119  0.00  0.00    +0.000 A 
ATOM     29  C   UNL     1       3.617   5.901  18.180  0.00  0.00    +0.000 A 
ATOM     30  C   UNL     1       4.012   4.990  17.198  0.00  0.00    +0.000 A 
ATOM     31  C   UNL     1       3.418   3.734  17.133  0.00  0.00    +0.000 A 
ATOM     32  C   UNL     1       2.422   3.392  18.046  0.00  0.00    +0.000 A 
ATOM     33  C   UNL     1       2.020   4.304  19.029  0.00  0.00    +0.000 A 
ATOM     34 CL   UNL     1       0.758   3.809  20.101  0.00  0.00    +0.000 Cl
ENDBRANCH  27  28
ENDBRANCH  26  27
ENDBRANCH   4  26
TORSDOF 9
ENDMDL
MODEL 4
REMARK VINA RESULT:      -7.5      0.434      2.162
REMARK  Name = 
REMARK  12 active torsions:
REMARK  status: ('A' for Active; 'I' for Inactive)
REMARK    1  A    between atoms: C_1  and  O_2
REMARK    2  A    between atoms: O_2  and  C_3
REMARK    3  A    between atoms: C_5  and  C_6
REMARK    4  A    between atoms: C_9  and  S_10
REMARK    5  A    between atoms: S_10  and  C_11
REMARK    6  A    between atoms: C_11  and  C_12
REMARK    7  A    between atoms: N_19  and  N_20
REMARK    8  A    between atoms: C_21  and  C_22
REMARK    9  A    between atoms: C_29  and  O_30
REMARK   10  A    between atoms: O_30  and  C_31
REMARK   11  A    between atoms: C_32  and  O_33
REMARK   12  A    between atoms: O_33  and  C_34
REMARK                            x       y       z     vdW  Elec       q    Type
REMARK                         _______ _______ _______ _____ _____    ______ ____
ROOT
ATOM      1  C   UNL     1       0.127  10.760  21.765  0.00  0.00    +0.000 A 
ATOM      2  N   UNL     1       0.846  10.073  22.640  0.00  0.00    +0.000 NA
ATOM      3  N   UNL     1       1.462   9.030  21.985  0.00  0.00    +0.000 NA
ATOM      4  C   UNL     1       1.086   9.073  20.731  0.00  0.00    +0.000 A 
ATOM      5  N   UNL     1       0.195  10.111  20.520  0.00  0.00    +0.000 N 
ENDROOT
BRANCH   1   8
ATOM      6  C   UNL     1      -2.866  12.760  22.899  0.00  0.00    +0.000 A 
ATOM      7  C   UNL     1      -2.096  11.737  22.326  0.00  0.00    +0.000 A 
ATOM      8  C   UNL     1      -0.743  11.909  22.052  0.00  0.00    +0.000 A 
ATOM      9  C   UNL     1      -0.222  13.199  22.157  0.00  0.00    +0.000 A 
ATOM     10  C   UNL     1      -1.001  14.276  22.632  0.00  0.00    +0.000 A 
ATOM     11  C   UNL     1      -2.339  14.060  23.033  0.00  0.00    +0.000 A 
BRANCH   6  13
ATOM     12  C   UNL     1      -4.296  12.347  24.732  0.00  0.00    +0.000 C 
ATOM     13  O   UNL     1      -4.145  12.480  23.314  0.00  0.00    +0.000 OA
ENDBRANCH   6  13
BRANCH  10  14
ATOM     14  O   UNL     1      -0.275  15.443  22.671  0.00  0.00    +0.000 OA
ATOM     15  C   UNL     1       0.872  15.583  21.845  0.00  0.00    +0.000 C 
ENDBRANCH  10  14
BRANCH  11  16
ATOM     16  O   UNL     1      -3.030  15.150  23.490  0.00  0.00    +0.000 OA
ATOM     17  C   UNL     1      -3.812  15.923  22.593  0.00  0.00    +0.000 C 
ENDBRANCH  11  16
ENDBRANCH   1   8
BRANCH   5  18
ATOM     18  N   UNL     1      -0.420  10.533  19.356  0.00  0.00    +0.000 NA
ATOM     19  C   UNL     1      -1.649  10.155  19.207  0.00  0.00    +0.000 C 
BRANCH  19  20
ATOM     20  C   UNL     1      -2.411  10.447  17.973  0.00  0.00    +0.000 A 
ATOM     21  C   UNL     1      -3.545  11.264  18.006  0.00  0.00    +0.000 A 
ATOM     22  C   UNL     1      -4.251  11.521  16.829  0.00  0.00    +0.000 A 
ATOM     23  C   UNL     1      -3.821  10.965  15.624  0.00  0.00    +0.000 A 
ATOM     24  C   UNL     1      -2.685  10.157  15.590  0.00  0.00    +0.000 A 
ATOM     25  C   UNL     1      -1.973   9.900  16.764  0.00  0.00    +0.000 A 
ENDBRANCH  19  20
ENDBRANCH   5  18
BRANCH   4  26
ATOM     26  S   UNL     1       1.662   8.046  19.451  0.00  0.00    +0.000 S 
BRANCH  26  27
ATOM     27  C   UNL     1       2.369   6.652  20.369  0.00  0.00    +0.000 C 
BRANCH  27  28
ATOM     28  C   UNL     1       1.996   5.341  19.710  0.00  0.00    +0.000 A 
ATOM     29  C   UNL     1       1.142   4.456  20.396  0.00  0.00    +0.000 A 
ATOM     30  C   UNL     1       0.792   3.220  19.847  0.00  0.00    +0.000 A 
ATOM     31  C   UNL     1       1.289   2.844  18.604  0.00  0.00    +0.000 A 
ATOM     32  C   UNL     1       2.145   3.702  17.913  0.00  0.00    +0.000 A 
ATOM     33  C   UNL     1       2.502   4.938  18.463  0.00  0.00    +0.000 A 
ATOM     34 CL   UNL     1       3.590   5.926  17.552  0.00  0.00    +0.000 Cl
ENDBRANCH  27  28
ENDBRANCH  26  27
ENDBRANCH   4  26
TORSDOF 9
ENDMDL
MODEL 5
REMARK VINA RESULT:      -7.5      1.132      2.718
REMARK  Name = 
REMARK  12 active torsions:
REMARK  status: ('A' for Active; 'I' for Inactive)
REMARK    1  A    between atoms: C_1  and  O_2
REMARK    2  A    between atoms: O_2  and  C_3
REMARK    3  A    between atoms: C_5  and  C_6
REMARK    4  A    between atoms: C_9  and  S_10
REMARK    5  A    between atoms: S_10  and  C_11
REMARK    6  A    between atoms: C_11  and  C_12
REMARK    7  A    between atoms: N_19  and  N_20
REMARK    8  A    between atoms: C_21  and  C_22
REMARK    9  A    between atoms: C_29  and  O_30
REMARK   10  A    between atoms: O_30  and  C_31
REMARK   11  A    between atoms: C_32  and  O_33
REMARK   12  A    between atoms: O_33  and  C_34
REMARK                            x       y       z     vdW  Elec       q    Type
REMARK                         _______ _______ _______ _____ _____    ______ ____
ROOT
ATOM      1  C   UNL     1       0.087  10.704  21.876  0.00  0.00    +0.000 A 
ATOM      2  N   UNL     1       0.833   9.996  22.710  0.00  0.00    +0.000 NA
ATOM      3  N   UNL     1       1.483   9.013  21.999  0.00  0.00    +0.000 NA
ATOM      4  C   UNL     1       1.101   9.111  20.749  0.00  0.00    +0.000 A 
ATOM      5  N   UNL     1       0.173  10.127  20.597  0.00  0.00    +0.000 N 
ENDROOT
BRANCH   1   8
ATOM      6  C   UNL     1      -2.774  12.585  23.463  0.00  0.00    +0.000 A 
ATOM      7  C   UNL     1      -2.043  11.558  22.847  0.00  0.00    +0.000 A 
ATOM      8  C   UNL     1      -0.822  11.804  22.227  0.00  0.00    +0.000 A 
ATOM      9  C   UNL     1      -0.448  13.135  22.041  0.00  0.00    +0.000 A 
ATOM     10  C   UNL     1      -1.217  14.199  22.559  0.00  0.00    +0.000 A 
ATOM     11  C   UNL     1      -2.388  13.931  23.303  0.00  0.00    +0.000 A 
BRANCH   6  13
ATOM     12  C   UNL     1      -5.129  12.631  23.624  0.00  0.00    +0.000 C 
ATOM     13  O   UNL     1      -3.878  12.261  24.213  0.00  0.00    +0.000 OA
ENDBRANCH   6  13
BRANCH  10  14
ATOM     14  O   UNL     1      -0.646  15.417  22.274  0.00  0.00    +0.000 OA
ATOM     15  C   UNL     1       0.198  16.038  23.233  0.00  0.00    +0.000 C 
ENDBRANCH  10  14
BRANCH  11  16
ATOM     16  O   UNL     1      -3.078  15.013  23.780  0.00  0.00    +0.000 OA
ATOM     17  C   UNL     1      -2.960  15.386  25.144  0.00  0.00    +0.000 C 
ENDBRANCH  11  16
ENDBRANCH   1   8
BRANCH   5  18
ATOM     18  N   UNL     1      -0.461  10.590  19.459  0.00  0.00    +0.000 NA
ATOM     19  C   UNL     1      -1.621  10.068  19.218  0.00  0.00    +0.000 C 
BRANCH  19  20
ATOM     20  C   UNL     1      -2.380  10.391  17.989  0.00  0.00    +0.000 A 
ATOM     21  C   UNL     1      -1.994   9.871  16.750  0.00  0.00    +0.000 A 
ATOM     22  C   UNL     1      -2.723  10.194  15.604  0.00  0.00    +0.000 A 
ATOM     23  C   UNL     1      -3.835  11.031  15.698  0.00  0.00    +0.000 A 
ATOM     24  C   UNL     1      -4.225  11.542  16.936  0.00  0.00    +0.000 A 
ATOM     25  C   UNL     1      -3.502  11.219  18.086  0.00  0.00    +0.000 A 
ENDBRANCH  19  20
ENDBRANCH   5  18
BRANCH   4  26
ATOM     26  S   UNL     1       1.709   8.177  19.414  0.00  0.00    +0.000 S 
BRANCH  26  27
ATOM     27  C   UNL     1       2.221   6.639  20.226  0.00  0.00    +0.000 C 
BRANCH  27  28
ATOM     28  C   UNL     1       2.621   5.604  19.196  0.00  0.00    +0.000 A 
ATOM     29  C   UNL     1       3.621   5.932  18.259  0.00  0.00    +0.000 A 
ATOM     30  C   UNL     1       4.005   5.026  17.268  0.00  0.00    +0.000 A 
ATOM     31  C   UNL     1       3.396   3.778  17.190  0.00  0.00    +0.000 A 
ATOM     32  C   UNL     1       2.396   3.439  18.101  0.00  0.00    +0.000 A 
ATOM     33  C   UNL     1       2.005   4.346  19.093  0.00  0.00    +0.000 A 
ATOM     34 CL   UNL     1       0.738   3.855  20.161  0.00  0.00    +0.000 Cl
ENDBRANCH  27  28
ENDBRANCH  26  27
ENDBRANCH   4  26
TORSDOF 9
ENDMDL
MODEL 6
REMARK VINA RESULT:      -7.5      0.686      2.396
REMARK  Name = 
REMARK  12 active torsions:
REMARK  status: ('A' for Active; 'I' for Inactive)
REMARK    1  A    between atoms: C_1  and  O_2
REMARK    2  A    between atoms: O_2  and  C_3
REMARK    3  A    between atoms: C_5  and  C_6
REMARK    4  A    between atoms: C_9  and  S_10
REMARK    5  A    between atoms: S_10  and  C_11
REMARK    6  A    between atoms: C_11  and  C_12
REMARK    7  A    between atoms: N_19  and  N_20
REMARK    8  A    between atoms: C_21  and  C_22
REMARK    9  A    between atoms: C_29  and  O_30
REMARK   10  A    between atoms: O_30  and  C_31
REMARK   11  A    between atoms: C_32  and  O_33
REMARK   12  A    between atoms: O_33  and  C_34
REMARK                            x       y       z     vdW  Elec       q    Type
REMARK                         _______ _______ _______ _____ _____    ______ ____
ROOT
ATOM      1  C   UNL     1       0.181  10.712  21.902  0.00  0.00    +0.000 A 
ATOM      2  N   UNL     1       0.877  10.001  22.775  0.00  0.00    +0.000 NA
ATOM      3  N   UNL     1       1.455   8.937  22.120  0.00  0.00    +0.000 NA
ATOM      4  C   UNL     1       1.079   8.993  20.866  0.00  0.00    +0.000 A 
ATOM      5  N   UNL     1       0.224  10.061  20.656  0.00  0.00    +0.000 N 
ENDROOT
BRANCH   1   8
ATOM      6  C   UNL     1      -2.501  12.889  23.425  0.00  0.00    +0.000 A 
ATOM      7  C   UNL     1      -1.855  11.772  22.873  0.00  0.00    +0.000 A 
ATOM      8  C   UNL     1      -0.649  11.891  22.190  0.00  0.00    +0.000 A 
ATOM      9  C   UNL     1      -0.207  13.177  21.877  0.00  0.00    +0.000 A 
ATOM     10  C   UNL     1      -0.892  14.325  22.329  0.00  0.00    +0.000 A 
ATOM     11  C   UNL     1      -2.045  14.191  23.135  0.00  0.00    +0.000 A 
BRANCH   6  13
ATOM     12  C   UNL     1      -4.855  12.789  23.576  0.00  0.00    +0.000 C 
ATOM     13  O   UNL     1      -3.589  12.696  24.240  0.00  0.00    +0.000 OA
ENDBRANCH   6  13
BRANCH  10  14
ATOM     14  O   UNL     1      -0.265  15.478  21.920  0.00  0.00    +0.000 OA
ATOM     15  C   UNL     1       0.915  15.907  22.583  0.00  0.00    +0.000 C 
ENDBRANCH  10  14
BRANCH  11  16
ATOM     16  O   UNL     1      -2.652  15.349  23.543  0.00  0.00    +0.000 OA
ATOM     17  C   UNL     1      -2.300  15.936  24.786  0.00  0.00    +0.000 C 
ENDBRANCH  11  16
ENDBRANCH   1   8
BRANCH   5  18
ATOM     18  N   UNL     1      -0.378  10.504  19.493  0.00  0.00    +0.000 NA
ATOM     19  C   UNL     1      -1.594  10.099  19.307  0.00  0.00    +0.000 C 
BRANCH  19  20
ATOM     20  C   UNL     1      -2.338  10.411  18.066  0.00  0.00    +0.000 A 
ATOM     21  C   UNL     1      -1.914   9.911  16.831  0.00  0.00    +0.000 A 
ATOM     22  C   UNL     1      -2.628  10.222  15.673  0.00  0.00    +0.000 A 
ATOM     23  C   UNL     1      -3.764  11.028  15.751  0.00  0.00    +0.000 A 
ATOM     24  C   UNL     1      -4.192  11.519  16.984  0.00  0.00    +0.000 A 
ATOM     25  C   UNL     1      -3.483  11.207  18.147  0.00  0.00    +0.000 A 
ENDBRANCH  19  20
ENDBRANCH   5  18
BRANCH   4  26
ATOM     26  S   UNL     1       1.617   7.947  19.585  0.00  0.00    +0.000 S 
BRANCH  26  27
ATOM     27  C   UNL     1       2.255   6.518  20.502  0.00  0.00    +0.000 C 
BRANCH  27  28
ATOM     28  C   UNL     1       1.934   5.233  19.770  0.00  0.00    +0.000 A 
ATOM     29  C   UNL     1       1.074   4.301  20.383  0.00  0.00    +0.000 A 
ATOM     30  C   UNL     1       0.769   3.086  19.765  0.00  0.00    +0.000 A 
ATOM     31  C   UNL     1       1.319   2.778  18.524  0.00  0.00    +0.000 A 
ATOM     32  C   UNL     1       2.180   3.683  17.906  0.00  0.00    +0.000 A 
ATOM     33  C   UNL     1       2.492   4.899  18.525  0.00  0.00    +0.000 A 
ATOM     34 CL   UNL     1       3.591   5.949  17.701  0.00  0.00    +0.000 Cl
ENDBRANCH  27  28
ENDBRANCH  26  27
ENDBRANCH   4  26
TORSDOF 9
ENDMDL
MODEL 7
REMARK VINA RESULT:      -7.5      1.044      2.551
REMARK  Name = 
REMARK  12 active torsions:
REMARK  status: ('A' for Active; 'I' for Inactive)
REMARK    1  A    between atoms: C_1  and  O_2
REMARK    2  A    between atoms: O_2  and  C_3
REMARK    3  A    between atoms: C_5  and  C_6
REMARK    4  A    between atoms: C_9  and  S_10
REMARK    5  A    between atoms: S_10  and  C_11
REMARK    6  A    between atoms: C_11  and  C_12
REMARK    7  A    between atoms: N_19  and  N_20
REMARK    8  A    between atoms: C_21  and  C_22
REMARK    9  A    between atoms: C_29  and  O_30
REMARK   10  A    between atoms: O_30  and  C_31
REMARK   11  A    between atoms: C_32  and  O_33
REMARK   12  A    between atoms: O_33  and  C_34
REMARK                            x       y       z     vdW  Elec       q    Type
REMARK                         _______ _______ _______ _____ _____    ______ ____
ROOT
ATOM      1  C   UNL     1      -0.170  11.095  21.777  0.00  0.00    +0.000 A 
ATOM      2  N   UNL     1       0.583  10.460  22.661  0.00  0.00    +0.000 NA
ATOM      3  N   UNL     1       1.300   9.481  22.012  0.00  0.00    +0.000 NA
ATOM      4  C   UNL     1       0.953   9.508  20.749  0.00  0.00    +0.000 A 
ATOM      5  N   UNL     1      -0.018  10.470  20.527  0.00  0.00    +0.000 N 
ENDROOT
BRANCH   1   8
ATOM      6  C   UNL     1      -3.297  12.837  22.975  0.00  0.00    +0.000 A 
ATOM      7  C   UNL     1      -2.453  11.868  22.412  0.00  0.00    +0.000 A 
ATOM      8  C   UNL     1      -1.141  12.163  22.054  0.00  0.00    +0.000 A 
ATOM      9  C   UNL     1      -0.755  13.504  22.064  0.00  0.00    +0.000 A 
ATOM     10  C   UNL     1      -1.618  14.519  22.527  0.00  0.00    +0.000 A 
ATOM     11  C   UNL     1      -2.904  14.190  23.014  0.00  0.00    +0.000 A 
BRANCH   6  13
ATOM     12  C   UNL     1      -4.563  12.320  24.900  0.00  0.00    +0.000 C 
ATOM     13  O   UNL     1      -4.517  12.450  23.475  0.00  0.00    +0.000 OA
ENDBRANCH   6  13
BRANCH  10  14
ATOM     14  O   UNL     1      -1.019  15.755  22.467  0.00  0.00    +0.000 OA
ATOM     15  C   UNL     1       0.369  15.876  22.744  0.00  0.00    +0.000 C 
ENDBRANCH  10  14
BRANCH  11  16
ATOM     16  O   UNL     1      -3.682  15.226  23.454  0.00  0.00    +0.000 OA
ATOM     17  C   UNL     1      -4.585  15.865  22.564  0.00  0.00    +0.000 C 
ENDBRANCH  11  16
ENDBRANCH   1   8
BRANCH   5  18
ATOM     18  N   UNL     1      -0.639  10.853  19.352  0.00  0.00    +0.000 NA
ATOM     19  C   UNL     1      -1.771  10.275  19.107  0.00  0.00    +0.000 C 
BRANCH  19  20
ATOM     20  C   UNL     1      -2.509  10.509  17.846  0.00  0.00    +0.000 A 
ATOM     21  C   UNL     1      -3.658  11.304  17.824  0.00  0.00    +0.000 A 
ATOM     22  C   UNL     1      -4.341  11.506  16.624  0.00  0.00    +0.000 A 
ATOM     23  C   UNL     1      -3.873  10.917  15.449  0.00  0.00    +0.000 A 
ATOM     24  C   UNL     1      -2.722  10.131  15.469  0.00  0.00    +0.000 A 
ATOM     25  C   UNL     1      -2.032   9.929  16.667  0.00  0.00    +0.000 A 
ENDBRANCH  19  20
ENDBRANCH   5  18
BRANCH   4  26
ATOM     26  S   UNL     1       1.644   8.550  19.473  0.00  0.00    +0.000 S 
BRANCH  26  27
ATOM     27  C   UNL     1       1.863   6.941  20.280  0.00  0.00    +0.000 C 
BRANCH  27  28
ATOM     28  C   UNL     1       2.439   5.936  19.306  0.00  0.00    +0.000 A 
ATOM     29  C   UNL     1       3.397   6.371  18.369  0.00  0.00    +0.000 A 
ATOM     30  C   UNL     1       3.938   5.492  17.428  0.00  0.00    +0.000 A 
ATOM     31  C   UNL     1       3.531   4.162  17.403  0.00  0.00    +0.000 A 
ATOM     32  C   UNL     1       2.576   3.714  18.315  0.00  0.00    +0.000 A 
ATOM     33  C   UNL     1       2.028   4.594  19.256  0.00  0.00    +0.000 A 
ATOM     34 CL   UNL     1       0.830   3.961  20.329  0.00  0.00    +0.000 Cl
ENDBRANCH  27  28
ENDBRANCH  26  27
ENDBRANCH   4  26
TORSDOF 9
ENDMDL
MODEL 8
REMARK VINA RESULT:      -7.4      4.197      8.287
REMARK  Name = 
REMARK  12 active torsions:
REMARK  status: ('A' for Active; 'I' for Inactive)
REMARK    1  A    between atoms: C_1  and  O_2
REMARK    2  A    between atoms: O_2  and  C_3
REMARK    3  A    between atoms: C_5  and  C_6
REMARK    4  A    between atoms: C_9  and  S_10
REMARK    5  A    between atoms: S_10  and  C_11
REMARK    6  A    between atoms: C_11  and  C_12
REMARK    7  A    between atoms: N_19  and  N_20
REMARK    8  A    between atoms: C_21  and  C_22
REMARK    9  A    between atoms: C_29  and  O_30
REMARK   10  A    between atoms: O_30  and  C_31
REMARK   11  A    between atoms: C_32  and  O_33
REMARK   12  A    between atoms: O_33  and  C_34
REMARK                            x       y       z     vdW  Elec       q    Type
REMARK                         _______ _______ _______ _____ _____    ______ ____
ROOT
ATOM      1  C   UNL     1       1.086   8.924  21.085  0.00  0.00    +0.000 A 
ATOM      2  N   UNL     1       1.435   9.214  22.329  0.00  0.00    +0.000 NA
ATOM      3  N   UNL     1       0.872  10.421  22.678  0.00  0.00    +0.000 NA
ATOM      4  C   UNL     1       0.217  10.868  21.636  0.00  0.00    +0.000 A 
ATOM      5  N   UNL     1       0.348  10.001  20.564  0.00  0.00    +0.000 N 
ENDROOT
BRANCH   1   8
ATOM      6  C   UNL     1       2.810   6.877  18.424  0.00  0.00    +0.000 A 
ATOM      7  C   UNL     1       2.114   7.923  19.047  0.00  0.00    +0.000 A 
ATOM      8  C   UNL     1       1.523   7.764  20.297  0.00  0.00    +0.000 A 
ATOM      9  C   UNL     1       1.452   6.471  20.817  0.00  0.00    +0.000 A 
ATOM     10  C   UNL     1       2.053   5.375  20.162  0.00  0.00    +0.000 A 
ATOM     11  C   UNL     1       2.765   5.573  18.957  0.00  0.00    +0.000 A 
BRANCH   6  13
ATOM     12  C   UNL     1       4.942   6.997  17.417  0.00  0.00    +0.000 C 
ATOM     13  O   UNL     1       3.524   7.139  17.280  0.00  0.00    +0.000 OA
ENDBRANCH   6  13
BRANCH  10  14
ATOM     14  O   UNL     1       1.875   4.208  20.867  0.00  0.00    +0.000 OA
ATOM     15  C   UNL     1       0.876   3.286  20.455  0.00  0.00    +0.000 C 
ENDBRANCH  10  14
BRANCH  11  16
ATOM     16  O   UNL     1       3.328   4.465  18.383  0.00  0.00    +0.000 OA
ATOM     17  C   UNL     1       2.647   3.780  17.343  0.00  0.00    +0.000 C 
ENDBRANCH  11  16
ENDBRANCH   1   8
BRANCH   5  18
ATOM     18  N   UNL     1      -0.197  10.067  19.295  0.00  0.00    +0.000 NA
ATOM     19  C   UNL     1      -1.428  10.464  19.238  0.00  0.00    +0.000 C 
BRANCH  19  20
ATOM     20  C   UNL     1      -2.178  10.496  17.963  0.00  0.00    +0.000 A 
ATOM     21  C   UNL     1      -1.767   9.728  16.870  0.00  0.00    +0.000 A 
ATOM     22  C   UNL     1      -2.488   9.778  15.675  0.00  0.00    +0.000 A 
ATOM     23  C   UNL     1      -3.618  10.591  15.576  0.00  0.00    +0.000 A 
ATOM     24  C   UNL     1      -4.032  11.350  16.670  0.00  0.00    +0.000 A 
ATOM     25  C   UNL     1      -3.317  11.300  17.869  0.00  0.00    +0.000 A 
ENDBRANCH  19  20
ENDBRANCH   5  18
BRANCH   4  26
ATOM     26  S   UNL     1      -0.766  12.301  21.578  0.00  0.00    +0.000 S 
BRANCH  26  27
ATOM     27  C   UNL     1      -2.078  11.911  22.768  0.00  0.00    +0.000 C 
BRANCH  27  28
ATOM     28  C   UNL     1      -3.385  12.545  22.341  0.00  0.00    +0.000 A 
ATOM     29  C   UNL     1      -3.525  12.976  21.007  0.00  0.00    +0.000 A 
ATOM     30  C   UNL     1      -4.697  13.596  20.569  0.00  0.00    +0.000 A 
ATOM     31  C   UNL     1      -5.751  13.799  21.454  0.00  0.00    +0.000 A 
ATOM     32  C   UNL     1      -5.628  13.389  22.781  0.00  0.00    +0.000 A 
ATOM     33  C   UNL     1      -4.452  12.773  23.225  0.00  0.00    +0.000 A 
ATOM     34 CL   UNL     1      -4.374  12.323  24.892  0.00  0.00    +0.000 Cl
ENDBRANCH  27  28
ENDBRANCH  26  27
ENDBRANCH   4  26
TORSDOF 9
ENDMDL
MODEL 9
REMARK VINA RESULT:      -7.3      4.204      7.848
REMARK  Name = 
REMARK  12 active torsions:
REMARK  status: ('A' for Active; 'I' for Inactive)
REMARK    1  A    between atoms: C_1  and  O_2
REMARK    2  A    between atoms: O_2  and  C_3
REMARK    3  A    between atoms: C_5  and  C_6
REMARK    4  A    between atoms: C_9  and  S_10
REMARK    5  A    between atoms: S_10  and  C_11
REMARK    6  A    between atoms: C_11  and  C_12
REMARK    7  A    between atoms: N_19  and  N_20
REMARK    8  A    between atoms: C_21  and  C_22
REMARK    9  A    between atoms: C_29  and  O_30
REMARK   10  A    between atoms: O_30  and  C_31
REMARK   11  A    between atoms: C_32  and  O_33
REMARK   12  A    between atoms: O_33  and  C_34
REMARK                            x       y       z     vdW  Elec       q    Type
REMARK                         _______ _______ _______ _____ _____    ______ ____
ROOT
ATOM      1  C   UNL     1       1.101   8.495  21.282  0.00  0.00    +0.000 A 
ATOM      2  N   UNL     1       1.728   8.847  22.393  0.00  0.00    +0.000 NA
ATOM      3  N   UNL     1       1.039   9.884  22.982  0.00  0.00    +0.000 NA
ATOM      4  C   UNL     1       0.022  10.173  22.208  0.00  0.00    +0.000 A 
ATOM      5  N   UNL     1       0.020   9.372  21.079  0.00  0.00    +0.000 N 
ENDROOT
BRANCH   1   8
ATOM      6  C   UNL     1       2.885   6.886  18.371  0.00  0.00    +0.000 A 
ATOM      7  C   UNL     1       2.199   7.834  19.144  0.00  0.00    +0.000 A 
ATOM      8  C   UNL     1       1.533   7.478  20.313  0.00  0.00    +0.000 A 
ATOM      9  C   UNL     1       1.379   6.117  20.579  0.00  0.00    +0.000 A 
ATOM     10  C   UNL     1       1.970   5.131  19.761  0.00  0.00    +0.000 A 
ATOM     11  C   UNL     1       2.757   5.511  18.650  0.00  0.00    +0.000 A 
BRANCH   6  13
ATOM     12  C   UNL     1       5.080   7.164  17.546  0.00  0.00    +0.000 C 
ATOM     13  O   UNL     1       3.673   7.316  17.331  0.00  0.00    +0.000 OA
ENDBRANCH   6  13
BRANCH  10  14
ATOM     14  O   UNL     1       1.704   3.865  20.227  0.00  0.00    +0.000 OA
ATOM     15  C   UNL     1       2.252   3.446  21.469  0.00  0.00    +0.000 C 
ENDBRANCH  10  14
BRANCH  11  16
ATOM     16  O   UNL     1       3.304   4.499  17.907  0.00  0.00    +0.000 OA
ATOM     17  C   UNL     1       4.434   3.791  18.393  0.00  0.00    +0.000 C 
ENDBRANCH  11  16
ENDBRANCH   1   8
BRANCH   5  18
ATOM     18  N   UNL     1      -0.875   9.318  20.027  0.00  0.00    +0.000 NA
ATOM     19  C   UNL     1      -0.901  10.363  19.263  0.00  0.00    +0.000 C 
BRANCH  19  20
ATOM     20  C   UNL     1      -1.871  10.496  18.154  0.00  0.00    +0.000 A 
ATOM     21  C   UNL     1      -1.729   9.745  16.984  0.00  0.00    +0.000 A 
ATOM     22  C   UNL     1      -2.654   9.891  15.949  0.00  0.00    +0.000 A 
ATOM     23  C   UNL     1      -3.719  10.782  16.086  0.00  0.00    +0.000 A 
ATOM     24  C   UNL     1      -3.866  11.524  17.258  0.00  0.00    +0.000 A 
ATOM     25  C   UNL     1      -2.945  11.378  18.299  0.00  0.00    +0.000 A 
ENDBRANCH  19  20
ENDBRANCH   5  18
BRANCH   4  26
ATOM     26  S   UNL     1      -1.228  11.333  22.546  0.00  0.00    +0.000 S 
BRANCH  26  27
ATOM     27  C   UNL     1      -0.326  12.903  22.459  0.00  0.00    +0.000 C 
BRANCH  27  28
ATOM     28  C   UNL     1       0.106  13.187  21.036  0.00  0.00    +0.000 A 
ATOM     29  C   UNL     1       1.414  12.838  20.643  0.00  0.00    +0.000 A 
ATOM     30  C   UNL     1       1.874  13.106  19.352  0.00  0.00    +0.000 A 
ATOM     31  C   UNL     1       1.039  13.729  18.429  0.00  0.00    +0.000 A 
ATOM     32  C   UNL     1      -0.254  14.091  18.803  0.00  0.00    +0.000 A 
ATOM     33  C   UNL     1      -0.717  13.829  20.097  0.00  0.00    +0.000 A 
ATOM     34 CL   UNL     1      -2.323  14.338  20.483  0.00  0.00    +0.000 Cl
ENDBRANCH  27  28
ENDBRANCH  26  27
ENDBRANCH   4  26
TORSDOF 9
ENDMDL
