MODEL 1
REMARK VINA RESULT:      -7.0      0.000      0.000
REMARK  Name = 
REMARK  8 active torsions:
REMARK  status: ('A' for Active; 'I' for Inactive)
REMARK    1  A    between atoms: C_1  and  C_2
REMARK    2  A    between atoms: C_2  and  C_3
REMARK    3  A    between atoms: C_3  and  C_4
REMARK    4  A    between atoms: C_4  and  N_5
REMARK    5  A    between atoms: C_4  and  C_16
REMARK    6  A    between atoms: N_5  and  S_6
REMARK    7  A    between atoms: S_6  and  C_9
REMARK    8  A    between atoms: C_16  and  O_18
REMARK                            x       y       z     vdW  Elec       q    Type
REMARK                         _______ _______ _______ _____ _____    ______ ____
ROOT
ATOM      1  N   UNL     1       5.109   3.234  19.465  0.00  0.00    +0.000 NA
ATOM      2  H   UNL     1       5.705   2.557  18.982  0.00  0.00    +0.000 HD
ENDROOT
BRANCH   1   3
ATOM      3  S   UNL     1       5.629   4.794  19.075  0.00  0.00    +0.000 S 
ATOM      4  O   UNL     1       4.479   5.628  19.350  0.00  0.00    +0.000 OA
ATOM      5  O   UNL     1       6.901   5.051  19.705  0.00  0.00    +0.000 OA
BRANCH   3   6
ATOM      6  C   UNL     1       5.866   4.801  17.311  0.00  0.00    +0.000 A 
ATOM      7  C   UNL     1       7.158   4.958  16.791  0.00  0.00    +0.000 A 
ATOM      8  C   UNL     1       7.387   4.744  15.429  0.00  0.00    +0.000 A 
ATOM      9  C   UNL     1       6.329   4.375  14.595  0.00  0.00    +0.000 A 
ATOM     10 BR   UNL     1       6.662   3.999  12.772  0.00  0.00    +0.000 Br
ATOM     11  C   UNL     1       5.040   4.241  15.101  0.00  0.00    +0.000 A 
ATOM     12  C   UNL     1       4.807   4.446  16.468  0.00  0.00    +0.000 A 
ENDBRANCH   3   6
ENDBRANCH   1   3
BRANCH   1  13
ATOM     13  C   UNL     1       3.662   2.889  19.524  0.00  0.00    +0.000 C 
BRANCH  13  14
ATOM     14  C   UNL     1       3.333   1.777  18.535  0.00  0.00    +0.000 C 
ATOM     15  O   UNL     1       2.371   1.741  17.786  0.00  0.00    +0.000 OA
BRANCH  14  16
ATOM     16  O   UNL     1       4.274   0.793  18.548  0.00  0.00    +0.000 OA
ATOM     17  H   UNL     1       4.029   0.053  17.957  0.00  0.00    +0.000 HD
ENDBRANCH  14  16
ENDBRANCH  13  14
BRANCH  13  18
ATOM     18  C   UNL     1       3.107   2.612  20.927  0.00  0.00    +0.000 C 
BRANCH  18  20
ATOM     19  C   UNL     1       1.026   4.034  20.498  0.00  0.00    +0.000 C 
ATOM     20  C   UNL     1       2.113   3.635  21.483  0.00  0.00    +0.000 C 
ENDBRANCH  18  20
ENDBRANCH  13  18
ENDBRANCH   1  13
TORSDOF 7
ENDMDL
MODEL 2
REMARK VINA RESULT:      -6.7      3.872      5.972
REMARK  Name = 
REMARK  8 active torsions:
REMARK  status: ('A' for Active; 'I' for Inactive)
REMARK    1  A    between atoms: C_1  and  C_2
REMARK    2  A    between atoms: C_2  and  C_3
REMARK    3  A    between atoms: C_3  and  C_4
REMARK    4  A    between atoms: C_4  and  N_5
REMARK    5  A    between atoms: C_4  and  C_16
REMARK    6  A    between atoms: N_5  and  S_6
REMARK    7  A    between atoms: S_6  and  C_9
REMARK    8  A    between atoms: C_16  and  O_18
REMARK                            x       y       z     vdW  Elec       q    Type
REMARK                         _______ _______ _______ _____ _____    ______ ____
ROOT
ATOM      1  N   UNL     1       7.051   6.604  16.504  0.00  0.00    +0.000 NA
ATOM      2  H   UNL     1       7.854   6.292  15.951  0.00  0.00    +0.000 HD
ENDROOT
BRANCH   1   3
ATOM      3  S   UNL     1       5.649   5.903  15.872  0.00  0.00    +0.000 S 
ATOM      4  O   UNL     1       5.008   6.984  15.154  0.00  0.00    +0.000 OA
ATOM      5  O   UNL     1       5.985   4.667  15.208  0.00  0.00    +0.000 OA
BRANCH   3   6
ATOM      6  C   UNL     1       4.619   5.526  17.273  0.00  0.00    +0.000 A 
ATOM      7  C   UNL     1       3.865   6.548  17.867  0.00  0.00    +0.000 A 
ATOM      8  C   UNL     1       2.891   6.226  18.816  0.00  0.00    +0.000 A 
ATOM      9  C   UNL     1       2.674   4.893  19.167  0.00  0.00    +0.000 A 
ATOM     10 BR   UNL     1       1.294   4.457  20.385  0.00  0.00    +0.000 Br
ATOM     11  C   UNL     1       3.435   3.876  18.598  0.00  0.00    +0.000 A 
ATOM     12  C   UNL     1       4.408   4.192  17.639  0.00  0.00    +0.000 A 
ENDBRANCH   3   6
ENDBRANCH   1   3
BRANCH   1  13
ATOM     13  C   UNL     1       7.280   6.697  17.972  0.00  0.00    +0.000 C 
BRANCH  13  14
ATOM     14  C   UNL     1       7.627   5.330  18.551  0.00  0.00    +0.000 C 
ATOM     15  O   UNL     1       8.104   4.390  17.937  0.00  0.00    +0.000 OA
BRANCH  14  16
ATOM     16  O   UNL     1       7.367   5.264  19.885  0.00  0.00    +0.000 OA
ATOM     17  H   UNL     1       7.124   6.140  20.248  0.00  0.00    +0.000 HD
ENDBRANCH  14  16
ENDBRANCH  13  14
BRANCH  13  18
ATOM     18  C   UNL     1       8.260   7.790  18.419  0.00  0.00    +0.000 C 
BRANCH  18  20
ATOM     19  C   UNL     1       8.905  10.264  18.439  0.00  0.00    +0.000 C 
ATOM     20  C   UNL     1       8.077   9.170  17.783  0.00  0.00    +0.000 C 
ENDBRANCH  18  20
ENDBRANCH  13  18
ENDBRANCH   1  13
TORSDOF 7
ENDMDL
MODEL 3
REMARK VINA RESULT:      -6.6      3.832      5.833
REMARK  Name = 
REMARK  8 active torsions:
REMARK  status: ('A' for Active; 'I' for Inactive)
REMARK    1  A    between atoms: C_1  and  C_2
REMARK    2  A    between atoms: C_2  and  C_3
REMARK    3  A    between atoms: C_3  and  C_4
REMARK    4  A    between atoms: C_4  and  N_5
REMARK    5  A    between atoms: C_4  and  C_16
REMARK    6  A    between atoms: N_5  and  S_6
REMARK    7  A    between atoms: S_6  and  C_9
REMARK    8  A    between atoms: C_16  and  O_18
REMARK                            x       y       z     vdW  Elec       q    Type
REMARK                         _______ _______ _______ _____ _____    ______ ____
ROOT
ATOM      1  N   UNL     1       7.124   6.163  16.412  0.00  0.00    +0.000 NA
ATOM      2  H   UNL     1       7.992   5.799  16.009  0.00  0.00    +0.000 HD
ENDROOT
BRANCH   1   3
ATOM      3  S   UNL     1       5.816   5.364  15.701  0.00  0.00    +0.000 S 
ATOM      4  O   UNL     1       5.373   6.269  14.662  0.00  0.00    +0.000 OA
ATOM      5  O   UNL     1       6.190   4.005  15.392  0.00  0.00    +0.000 OA
BRANCH   3   6
ATOM      6  C   UNL     1       4.537   5.328  16.938  0.00  0.00    +0.000 A 
ATOM      7  C   UNL     1       4.160   4.101  17.501  0.00  0.00    +0.000 A 
ATOM      8  C   UNL     1       3.324   4.082  18.621  0.00  0.00    +0.000 A 
ATOM      9  C   UNL     1       2.870   5.281  19.172  0.00  0.00    +0.000 A 
ATOM     10 BR   UNL     1       1.813   5.251  20.740  0.00  0.00    +0.000 Br
ATOM     11  C   UNL     1       3.222   6.501  18.602  0.00  0.00    +0.000 A 
ATOM     12  C   UNL     1       4.067   6.527  17.484  0.00  0.00    +0.000 A 
ENDBRANCH   3   6
ENDBRANCH   1   3
BRANCH   1  13
ATOM     13  C   UNL     1       7.163   6.443  17.874  0.00  0.00    +0.000 C 
BRANCH  13  14
ATOM     14  C   UNL     1       7.316   5.149  18.665  0.00  0.00    +0.000 C 
ATOM     15  O   UNL     1       6.863   4.927  19.775  0.00  0.00    +0.000 OA
BRANCH  14  16
ATOM     16  O   UNL     1       8.016   4.210  17.971  0.00  0.00    +0.000 OA
ATOM     17  H   UNL     1       7.452   3.756  17.312  0.00  0.00    +0.000 HD
ENDBRANCH  14  16
ENDBRANCH  13  14
BRANCH  13  18
ATOM     18  C   UNL     1       8.163   7.521  18.312  0.00  0.00    +0.000 C 
BRANCH  18  20
ATOM     19  C   UNL     1       8.767  10.003  18.450  0.00  0.00    +0.000 C 
ATOM     20  C   UNL     1       7.918   8.935  17.778  0.00  0.00    +0.000 C 
ENDBRANCH  18  20
ENDBRANCH  13  18
ENDBRANCH   1  13
TORSDOF 7
ENDMDL
MODEL 4
REMARK VINA RESULT:      -6.5      3.812      5.949
REMARK  Name = 
REMARK  8 active torsions:
REMARK  status: ('A' for Active; 'I' for Inactive)
REMARK    1  A    between atoms: C_1  and  C_2
REMARK    2  A    between atoms: C_2  and  C_3
REMARK    3  A    between atoms: C_3  and  C_4
REMARK    4  A    between atoms: C_4  and  N_5
REMARK    5  A    between atoms: C_4  and  C_16
REMARK    6  A    between atoms: N_5  and  S_6
REMARK    7  A    between atoms: S_6  and  C_9
REMARK    8  A    between atoms: C_16  and  O_18
REMARK                            x       y       z     vdW  Elec       q    Type
REMARK                         _______ _______ _______ _____ _____    ______ ____
ROOT
ATOM      1  N   UNL     1       4.938   4.302  16.719  0.00  0.00    +0.000 NA
ATOM      2  H   UNL     1       4.642   3.601  16.034  0.00  0.00    +0.000 HD
ENDROOT
BRANCH   1   3
ATOM      3  S   UNL     1       4.465   3.790  18.259  0.00  0.00    +0.000 S 
ATOM      4  O   UNL     1       3.688   2.596  18.010  0.00  0.00    +0.000 OA
ATOM      5  O   UNL     1       5.613   3.761  19.132  0.00  0.00    +0.000 OA
BRANCH   3   6
ATOM      6  C   UNL     1       3.335   5.029  18.857  0.00  0.00    +0.000 A 
ATOM      7  C   UNL     1       2.670   4.823  20.073  0.00  0.00    +0.000 A 
ATOM      8  C   UNL     1       1.959   5.874  20.660  0.00  0.00    +0.000 A 
ATOM      9  C   UNL     1       1.915   7.120  20.033  0.00  0.00    +0.000 A 
ATOM     10 BR   UNL     1       1.028   8.562  20.876  0.00  0.00    +0.000 Br
ATOM     11  C   UNL     1       2.555   7.324  18.814  0.00  0.00    +0.000 A 
ATOM     12  C   UNL     1       3.276   6.276  18.225  0.00  0.00    +0.000 A 
ENDBRANCH   3   6
ENDBRANCH   1   3
BRANCH   1  13
ATOM     13  C   UNL     1       6.276   4.910  16.479  0.00  0.00    +0.000 C 
BRANCH  13  14
ATOM     14  C   UNL     1       6.770   4.585  15.073  0.00  0.00    +0.000 C 
ATOM     15  O   UNL     1       6.326   3.720  14.337  0.00  0.00    +0.000 OA
BRANCH  14  16
ATOM     16  O   UNL     1       7.782   5.411  14.689  0.00  0.00    +0.000 OA
ATOM     17  H   UNL     1       7.460   6.318  14.516  0.00  0.00    +0.000 HD
ENDBRANCH  14  16
ENDBRANCH  13  14
BRANCH  13  18
ATOM     18  C   UNL     1       6.389   6.403  16.812  0.00  0.00    +0.000 C 
BRANCH  18  20
ATOM     19  C   UNL     1       7.967   8.212  17.694  0.00  0.00    +0.000 C 
ATOM     20  C   UNL     1       7.447   6.792  17.848  0.00  0.00    +0.000 C 
ENDBRANCH  18  20
ENDBRANCH  13  18
ENDBRANCH   1  13
TORSDOF 7
ENDMDL
MODEL 5
REMARK VINA RESULT:      -6.5      3.655      5.873
REMARK  Name = 
REMARK  8 active torsions:
REMARK  status: ('A' for Active; 'I' for Inactive)
REMARK    1  A    between atoms: C_1  and  C_2
REMARK    2  A    between atoms: C_2  and  C_3
REMARK    3  A    between atoms: C_3  and  C_4
REMARK    4  A    between atoms: C_4  and  N_5
REMARK    5  A    between atoms: C_4  and  C_16
REMARK    6  A    between atoms: N_5  and  S_6
REMARK    7  A    between atoms: S_6  and  C_9
REMARK    8  A    between atoms: C_16  and  O_18
REMARK                            x       y       z     vdW  Elec       q    Type
REMARK                         _______ _______ _______ _____ _____    ______ ____
ROOT
ATOM      1  N   UNL     1       6.947   5.302  16.743  0.00  0.00    +0.000 NA
ATOM      2  H   UNL     1       7.253   4.357  16.990  0.00  0.00    +0.000 HD
ENDROOT
BRANCH   1   3
ATOM      3  S   UNL     1       5.558   5.192  15.788  0.00  0.00    +0.000 S 
ATOM      4  O   UNL     1       5.333   6.548  15.335  0.00  0.00    +0.000 OA
ATOM      5  O   UNL     1       5.704   4.109  14.846  0.00  0.00    +0.000 OA
BRANCH   3   6
ATOM      6  C   UNL     1       4.230   4.790  16.903  0.00  0.00    +0.000 A 
ATOM      7  C   UNL     1       4.051   3.459  17.306  0.00  0.00    +0.000 A 
ATOM      8  C   UNL     1       3.162   3.165  18.345  0.00  0.00    +0.000 A 
ATOM      9  C   UNL     1       2.461   4.195  18.974  0.00  0.00    +0.000 A 
ATOM     10 BR   UNL     1       1.329   3.801  20.437  0.00  0.00    +0.000 Br
ATOM     11  C   UNL     1       2.618   5.515  18.562  0.00  0.00    +0.000 A 
ATOM     12  C   UNL     1       3.514   5.817  17.527  0.00  0.00    +0.000 A 
ENDBRANCH   3   6
ENDBRANCH   1   3
BRANCH   1  13
ATOM     13  C   UNL     1       7.070   6.320  17.823  0.00  0.00    +0.000 C 
BRANCH  13  14
ATOM     14  C   UNL     1       7.245   5.647  19.180  0.00  0.00    +0.000 C 
ATOM     15  O   UNL     1       8.306   5.416  19.736  0.00  0.00    +0.000 OA
BRANCH  14  16
ATOM     16  O   UNL     1       6.049   5.338  19.751  0.00  0.00    +0.000 OA
ATOM     17  H   UNL     1       5.384   5.085  19.078  0.00  0.00    +0.000 HD
ENDBRANCH  14  16
ENDBRANCH  13  14
BRANCH  13  18
ATOM     18  C   UNL     1       8.108   7.422  17.575  0.00  0.00    +0.000 C 
BRANCH  18  20
ATOM     19  C   UNL     1       8.711   9.761  18.416  0.00  0.00    +0.000 C 
ATOM     20  C   UNL     1       7.644   8.861  17.812  0.00  0.00    +0.000 C 
ENDBRANCH  18  20
ENDBRANCH  13  18
ENDBRANCH   1  13
TORSDOF 7
ENDMDL
MODEL 6
REMARK VINA RESULT:      -6.4      2.989      3.553
REMARK  Name = 
REMARK  8 active torsions:
REMARK  status: ('A' for Active; 'I' for Inactive)
REMARK    1  A    between atoms: C_1  and  C_2
REMARK    2  A    between atoms: C_2  and  C_3
REMARK    3  A    between atoms: C_3  and  C_4
REMARK    4  A    between atoms: C_4  and  N_5
REMARK    5  A    between atoms: C_4  and  C_16
REMARK    6  A    between atoms: N_5  and  S_6
REMARK    7  A    between atoms: S_6  and  C_9
REMARK    8  A    between atoms: C_16  and  O_18
REMARK                            x       y       z     vdW  Elec       q    Type
REMARK                         _______ _______ _______ _____ _____    ______ ____
ROOT
ATOM      1  N   UNL     1       4.992   3.251  19.377  0.00  0.00    +0.000 NA
ATOM      2  H   UNL     1       5.670   2.493  19.492  0.00  0.00    +0.000 HD
ENDROOT
BRANCH   1   3
ATOM      3  S   UNL     1       5.543   4.296  18.168  0.00  0.00    +0.000 S 
ATOM      4  O   UNL     1       6.878   4.656  18.596  0.00  0.00    +0.000 OA
ATOM      5  O   UNL     1       5.312   3.703  16.874  0.00  0.00    +0.000 OA
BRANCH   3   6
ATOM      6  C   UNL     1       4.542   5.763  18.300  0.00  0.00    +0.000 A 
ATOM      7  C   UNL     1       4.563   6.704  17.262  0.00  0.00    +0.000 A 
ATOM      8  C   UNL     1       3.624   7.740  17.249  0.00  0.00    +0.000 A 
ATOM      9  C   UNL     1       2.673   7.830  18.267  0.00  0.00    +0.000 A 
ATOM     10 BR   UNL     1       1.350   9.180  18.195  0.00  0.00    +0.000 Br
ATOM     11  C   UNL     1       2.663   6.912  19.312  0.00  0.00    +0.000 A 
ATOM     12  C   UNL     1       3.597   5.867  19.326  0.00  0.00    +0.000 A 
ENDBRANCH   3   6
ENDBRANCH   1   3
BRANCH   1  13
ATOM     13  C   UNL     1       3.561   2.850  19.465  0.00  0.00    +0.000 C 
BRANCH  13  14
ATOM     14  C   UNL     1       3.221   1.826  18.388  0.00  0.00    +0.000 C 
ATOM     15  O   UNL     1       2.382   1.955  17.512  0.00  0.00    +0.000 OA
BRANCH  14  16
ATOM     16  O   UNL     1       3.999   0.714  18.484  0.00  0.00    +0.000 OA
ATOM     17  H   UNL     1       4.546   0.726  19.295  0.00  0.00    +0.000 HD
ENDBRANCH  14  16
ENDBRANCH  13  14
BRANCH  13  18
ATOM     18  C   UNL     1       3.082   2.419  20.858  0.00  0.00    +0.000 C 
BRANCH  18  20
ATOM     19  C   UNL     1       0.934   3.669  20.255  0.00  0.00    +0.000 C 
ATOM     20  C   UNL     1       1.780   3.051  21.357  0.00  0.00    +0.000 C 
ENDBRANCH  18  20
ENDBRANCH  13  18
ENDBRANCH   1  13
TORSDOF 7
ENDMDL
MODEL 7
REMARK VINA RESULT:      -6.3      4.086      6.076
REMARK  Name = 
REMARK  8 active torsions:
REMARK  status: ('A' for Active; 'I' for Inactive)
REMARK    1  A    between atoms: C_1  and  C_2
REMARK    2  A    between atoms: C_2  and  C_3
REMARK    3  A    between atoms: C_3  and  C_4
REMARK    4  A    between atoms: C_4  and  N_5
REMARK    5  A    between atoms: C_4  and  C_16
REMARK    6  A    between atoms: N_5  and  S_6
REMARK    7  A    between atoms: S_6  and  C_9
REMARK    8  A    between atoms: C_16  and  O_18
REMARK                            x       y       z     vdW  Elec       q    Type
REMARK                         _______ _______ _______ _____ _____    ______ ____
ROOT
ATOM      1  N   UNL     1       7.023   6.292  16.630  0.00  0.00    +0.000 NA
ATOM      2  H   UNL     1       7.831   5.874  16.160  0.00  0.00    +0.000 HD
ENDROOT
BRANCH   1   3
ATOM      3  S   UNL     1       5.624   5.494  16.118  0.00  0.00    +0.000 S 
ATOM      4  O   UNL     1       5.349   6.065  14.817  0.00  0.00    +0.000 OA
ATOM      5  O   UNL     1       5.791   4.071  16.284  0.00  0.00    +0.000 OA
BRANCH   3   6
ATOM      6  C   UNL     1       4.326   6.037  17.208  0.00  0.00    +0.000 A 
ATOM      7  C   UNL     1       3.921   5.206  18.262  0.00  0.00    +0.000 A 
ATOM      8  C   UNL     1       3.068   5.708  19.249  0.00  0.00    +0.000 A 
ATOM      9  C   UNL     1       2.627   7.031  19.183  0.00  0.00    +0.000 A 
ATOM     10 BR   UNL     1       1.548   7.729  20.570  0.00  0.00    +0.000 Br
ATOM     11  C   UNL     1       3.008   7.853  18.126  0.00  0.00    +0.000 A 
ATOM     12  C   UNL     1       3.869   7.358  17.138  0.00  0.00    +0.000 A 
ENDBRANCH   3   6
ENDBRANCH   1   3
BRANCH   1  13
ATOM     13  C   UNL     1       7.229   6.661  18.057  0.00  0.00    +0.000 C 
BRANCH  13  14
ATOM     14  C   UNL     1       7.430   5.414  18.912  0.00  0.00    +0.000 C 
ATOM     15  O   UNL     1       7.056   5.263  20.063  0.00  0.00    +0.000 OA
BRANCH  14  16
ATOM     16  O   UNL     1       8.071   4.428  18.226  0.00  0.00    +0.000 OA
ATOM     17  H   UNL     1       7.727   4.342  17.314  0.00  0.00    +0.000 HD
ENDBRANCH  14  16
ENDBRANCH  13  14
BRANCH  13  18
ATOM     18  C   UNL     1       8.302   7.728  18.313  0.00  0.00    +0.000 C 
BRANCH  18  20
ATOM     19  C   UNL     1       8.903  10.212  18.411  0.00  0.00    +0.000 C 
ATOM     20  C   UNL     1       7.976   9.148  17.844  0.00  0.00    +0.000 C 
ENDBRANCH  18  20
ENDBRANCH  13  18
ENDBRANCH   1  13
TORSDOF 7
ENDMDL
MODEL 8
REMARK VINA RESULT:      -6.3      3.320      5.793
REMARK  Name = 
REMARK  8 active torsions:
REMARK  status: ('A' for Active; 'I' for Inactive)
REMARK    1  A    between atoms: C_1  and  C_2
REMARK    2  A    between atoms: C_2  and  C_3
REMARK    3  A    between atoms: C_3  and  C_4
REMARK    4  A    between atoms: C_4  and  N_5
REMARK    5  A    between atoms: C_4  and  C_16
REMARK    6  A    between atoms: N_5  and  S_6
REMARK    7  A    between atoms: S_6  and  C_9
REMARK    8  A    between atoms: C_16  and  O_18
REMARK                            x       y       z     vdW  Elec       q    Type
REMARK                         _______ _______ _______ _____ _____    ______ ____
ROOT
ATOM      1  N   UNL     1       5.254   3.707  17.643  0.00  0.00    +0.000 NA
ATOM      2  H   UNL     1       5.610   2.759  17.793  0.00  0.00    +0.000 HD
ENDROOT
BRANCH   1   3
ATOM      3  S   UNL     1       4.968   4.426  19.146  0.00  0.00    +0.000 S 
ATOM      4  O   UNL     1       4.270   3.405  19.897  0.00  0.00    +0.000 OA
ATOM      5  O   UNL     1       6.191   5.008  19.643  0.00  0.00    +0.000 OA
BRANCH   3   6
ATOM      6  C   UNL     1       3.803   5.737  18.845  0.00  0.00    +0.000 A 
ATOM      7  C   UNL     1       2.857   6.055  19.829  0.00  0.00    +0.000 A 
ATOM      8  C   UNL     1       2.090   7.216  19.701  0.00  0.00    +0.000 A 
ATOM      9  C   UNL     1       2.269   8.052  18.597  0.00  0.00    +0.000 A 
ATOM     10 BR   UNL     1       1.292   9.667  18.475  0.00  0.00    +0.000 Br
ATOM     11  C   UNL     1       3.191   7.728  17.605  0.00  0.00    +0.000 A 
ATOM     12  C   UNL     1       3.969   6.569  17.733  0.00  0.00    +0.000 A 
ENDBRANCH   3   6
ENDBRANCH   1   3
BRANCH   1  13
ATOM     13  C   UNL     1       5.889   4.463  16.528  0.00  0.00    +0.000 C 
BRANCH  13  14
ATOM     14  C   UNL     1       7.313   4.866  16.894  0.00  0.00    +0.000 C 
ATOM     15  O   UNL     1       8.236   4.107  17.136  0.00  0.00    +0.000 OA
BRANCH  14  16
ATOM     16  O   UNL     1       7.471   6.218  16.898  0.00  0.00    +0.000 OA
ATOM     17  H   UNL     1       7.064   6.626  17.689  0.00  0.00    +0.000 HD
ENDBRANCH  14  16
ENDBRANCH  13  14
BRANCH  13  18
ATOM     18  C   UNL     1       5.803   3.798  15.149  0.00  0.00    +0.000 C 
BRANCH  18  20
ATOM     19  C   UNL     1       6.521   3.719  12.695  0.00  0.00    +0.000 C 
ATOM     20  C   UNL     1       6.608   4.453  14.024  0.00  0.00    +0.000 C 
ENDBRANCH  18  20
ENDBRANCH  13  18
ENDBRANCH   1  13
TORSDOF 7
ENDMDL
MODEL 9
REMARK VINA RESULT:      -6.3      3.736      5.788
REMARK  Name = 
REMARK  8 active torsions:
REMARK  status: ('A' for Active; 'I' for Inactive)
REMARK    1  A    between atoms: C_1  and  C_2
REMARK    2  A    between atoms: C_2  and  C_3
REMARK    3  A    between atoms: C_3  and  C_4
REMARK    4  A    between atoms: C_4  and  N_5
REMARK    5  A    between atoms: C_4  and  C_16
REMARK    6  A    between atoms: N_5  and  S_6
REMARK    7  A    between atoms: S_6  and  C_9
REMARK    8  A    between atoms: C_16  and  O_18
REMARK                            x       y       z     vdW  Elec       q    Type
REMARK                         _______ _______ _______ _____ _____    ______ ____
ROOT
ATOM      1  N   UNL     1       4.355   4.203  16.559  0.00  0.00    +0.000 NA
ATOM      2  H   UNL     1       4.126   3.775  15.657  0.00  0.00    +0.000 HD
ENDROOT
BRANCH   1   3
ATOM      3  S   UNL     1       3.397   3.493  17.757  0.00  0.00    +0.000 S 
ATOM      4  O   UNL     1       2.356   2.812  17.019  0.00  0.00    +0.000 OA
ATOM      5  O   UNL     1       4.238   2.779  18.686  0.00  0.00    +0.000 OA
BRANCH   3   6
ATOM      6  C   UNL     1       2.623   4.842  18.624  0.00  0.00    +0.000 A 
ATOM      7  C   UNL     1       2.100   4.625  19.905  0.00  0.00    +0.000 A 
ATOM      8  C   UNL     1       1.693   5.715  20.680  0.00  0.00    +0.000 A 
ATOM      9  C   UNL     1       1.811   7.011  20.174  0.00  0.00    +0.000 A 
ATOM     10 BR   UNL     1       1.344   8.487  21.261  0.00  0.00    +0.000 Br
ATOM     11  C   UNL     1       2.308   7.230  18.893  0.00  0.00    +0.000 A 
ATOM     12  C   UNL     1       2.725   6.141  18.115  0.00  0.00    +0.000 A 
ENDBRANCH   3   6
ENDBRANCH   1   3
BRANCH   1  13
ATOM     13  C   UNL     1       5.798   4.490  16.785  0.00  0.00    +0.000 C 
BRANCH  13  14
ATOM     14  C   UNL     1       6.558   4.503  15.463  0.00  0.00    +0.000 C 
ATOM     15  O   UNL     1       6.380   3.746  14.524  0.00  0.00    +0.000 OA
BRANCH  14  16
ATOM     16  O   UNL     1       7.478   5.506  15.418  0.00  0.00    +0.000 OA
ATOM     17  H   UNL     1       7.185   6.285  15.933  0.00  0.00    +0.000 HD
ENDBRANCH  14  16
ENDBRANCH  13  14
BRANCH  13  18
ATOM     18  C   UNL     1       6.097   5.723  17.647  0.00  0.00    +0.000 C 
BRANCH  18  20
ATOM     19  C   UNL     1       7.988   5.697  19.369  0.00  0.00    +0.000 C 
ATOM     20  C   UNL     1       6.511   5.458  19.097  0.00  0.00    +0.000 C 
ENDBRANCH  18  20
ENDBRANCH  13  18
ENDBRANCH   1  13
TORSDOF 7
ENDMDL
