MODEL 1
REMARK VINA RESULT:      -6.5      0.000      0.000
REMARK  Name = 
REMARK  6 active torsions:
REMARK  status: ('A' for Active; 'I' for Inactive)
REMARK    1  A    between atoms: C_1  and  C_2
REMARK    2  A    between atoms: C_2  and  C_3
REMARK    3  A    between atoms: C_2  and  N_10
REMARK    4  A    between atoms: C_3  and  N_4
REMARK    5  A    between atoms: N_16  and  S_17
REMARK    6  A    between atoms: S_17  and  C_18
REMARK                            x       y       z     vdW  Elec       q    Type
REMARK                         _______ _______ _______ _____ _____    ______ ____
ROOT
ATOM      1  N   UNL     1       1.809   8.325  19.089  0.00  0.00    +0.000 N 
ATOM      2  C   UNL     1       2.587   7.685  18.158  0.00  0.00    +0.000 C 
ATOM      3  O   UNL     1       2.980   8.230  17.132  0.00  0.00    +0.000 OA
ATOM      4  N   UNL     1       2.913   6.382  18.499  0.00  0.00    +0.000 N 
ATOM      5  C   UNL     1       3.767   5.639  17.571  0.00  0.00    +0.000 C 
ATOM      6  C   UNL     1       4.554   4.528  18.282  0.00  0.00    +0.000 C 
ATOM      7  N   UNL     1       3.681   3.643  19.117  0.00  0.00    +0.000 NA
ATOM      8  C   UNL     1       2.839   4.446  20.056  0.00  0.00    +0.000 C 
ATOM      9  C   UNL     1       2.045   5.540  19.333  0.00  0.00    +0.000 C 
ATOM     10  H   UNL     1       2.095   8.118  20.038  0.00  0.00    +0.000 HD
ENDROOT
BRANCH   7  11
ATOM     11  S   UNL     1       2.903   2.357  18.333  0.00  0.00    +0.000 S 
ATOM     12  C   UNL     1       1.560   2.010  19.449  0.00  0.00    +0.000 C 
ATOM     13  O   UNL     1       2.324   2.869  17.106  0.00  0.00    +0.000 OA
ATOM     14  O   UNL     1       3.801   1.226  18.316  0.00  0.00    +0.000 OA
ENDBRANCH   7  11
BRANCH   1  16
ATOM     15  C   UNL     1       0.254   9.861  17.922  0.00  0.00    +0.000 C 
ATOM     16  C   UNL     1       1.401   9.716  18.924  0.00  0.00    +0.000 C 
BRANCH  16  17
ATOM     17  C   UNL     1       0.985  10.298  20.305  0.00  0.00    +0.000 C 
BRANCH  17  18
ATOM     18  N   UNL     1      -0.411   9.973  20.700  0.00  0.00    +0.000 NA
ATOM     19  C   UNL     1      -1.138  11.192  21.139  0.00  0.00    +0.000 C 
ATOM     20  C   UNL     1      -0.714  11.727  22.521  0.00  0.00    +0.000 C 
ATOM     21  O   UNL     1      -0.783  10.712  23.531  0.00  0.00    +0.000 OA
ATOM     22  C   UNL     1      -0.008   9.567  23.161  0.00  0.00    +0.000 C 
ATOM     23  C   UNL     1      -0.484   8.998  21.815  0.00  0.00    +0.000 C 
ENDBRANCH  17  18
ENDBRANCH  16  17
ENDBRANCH   1  16
TORSDOF 4
ENDMDL
MODEL 2
REMARK VINA RESULT:      -6.5      2.597      7.591
REMARK  Name = 
REMARK  6 active torsions:
REMARK  status: ('A' for Active; 'I' for Inactive)
REMARK    1  A    between atoms: C_1  and  C_2
REMARK    2  A    between atoms: C_2  and  C_3
REMARK    3  A    between atoms: C_2  and  N_10
REMARK    4  A    between atoms: C_3  and  N_4
REMARK    5  A    between atoms: N_16  and  S_17
REMARK    6  A    between atoms: S_17  and  C_18
REMARK                            x       y       z     vdW  Elec       q    Type
REMARK                         _______ _______ _______ _____ _____    ______ ____
ROOT
ATOM      1  N   UNL     1       2.598   7.091  18.608  0.00  0.00    +0.000 N 
ATOM      2  C   UNL     1       2.155   8.323  18.200  0.00  0.00    +0.000 C 
ATOM      3  O   UNL     1       2.499   8.835  17.140  0.00  0.00    +0.000 OA
ATOM      4  N   UNL     1       1.261   8.916  19.077  0.00  0.00    +0.000 N 
ATOM      5  C   UNL     1       0.717  10.222  18.699  0.00  0.00    +0.000 C 
ATOM      6  C   UNL     1      -0.650  10.482  19.349  0.00  0.00    +0.000 C 
ATOM      7  N   UNL     1      -0.640  10.254  20.830  0.00  0.00    +0.000 NA
ATOM      8  C   UNL     1      -0.089   8.904  21.163  0.00  0.00    +0.000 C 
ATOM      9  C   UNL     1       1.283   8.662  20.524  0.00  0.00    +0.000 C 
ATOM     10  H   UNL     1       1.860   6.531  19.017  0.00  0.00    +0.000 HD
ENDROOT
BRANCH   7  11
ATOM     11  S   UNL     1      -0.119  11.534  21.810  0.00  0.00    +0.000 S 
ATOM     12  C   UNL     1      -1.239  12.834  21.337  0.00  0.00    +0.000 C 
ATOM     13  O   UNL     1      -0.413  11.189  23.187  0.00  0.00    +0.000 OA
ATOM     14  O   UNL     1       1.219  11.899  21.404  0.00  0.00    +0.000 OA
ENDBRANCH   7  11
BRANCH   1  16
ATOM     15  C   UNL     1       4.962   6.436  18.258  0.00  0.00    +0.000 C 
ATOM     16  C   UNL     1       3.511   6.293  17.795  0.00  0.00    +0.000 C 
BRANCH  16  17
ATOM     17  C   UNL     1       3.075   4.802  17.843  0.00  0.00    +0.000 C 
BRANCH  17  18
ATOM     18  N   UNL     1       2.972   4.249  19.219  0.00  0.00    +0.000 NA
ATOM     19  C   UNL     1       3.779   3.008  19.356  0.00  0.00    +0.000 C 
ATOM     20  C   UNL     1       3.179   1.773  18.655  0.00  0.00    +0.000 C 
ATOM     21  O   UNL     1       1.824   1.537  19.059  0.00  0.00    +0.000 OA
ATOM     22  C   UNL     1       1.014   2.697  18.842  0.00  0.00    +0.000 C 
ATOM     23  C   UNL     1       1.581   3.907  19.602  0.00  0.00    +0.000 C 
ENDBRANCH  17  18
ENDBRANCH  16  17
ENDBRANCH   1  16
TORSDOF 4
ENDMDL
MODEL 3
REMARK VINA RESULT:      -6.4      3.398      8.024
REMARK  Name = 
REMARK  6 active torsions:
REMARK  status: ('A' for Active; 'I' for Inactive)
REMARK    1  A    between atoms: C_1  and  C_2
REMARK    2  A    between atoms: C_2  and  C_3
REMARK    3  A    between atoms: C_2  and  N_10
REMARK    4  A    between atoms: C_3  and  N_4
REMARK    5  A    between atoms: N_16  and  S_17
REMARK    6  A    between atoms: S_17  and  C_18
REMARK                            x       y       z     vdW  Elec       q    Type
REMARK                         _______ _______ _______ _____ _____    ______ ____
ROOT
ATOM      1  N   UNL     1       2.773   6.582  18.796  0.00  0.00    +0.000 N 
ATOM      2  C   UNL     1       1.989   7.060  19.815  0.00  0.00    +0.000 C 
ATOM      3  O   UNL     1       1.659   6.375  20.778  0.00  0.00    +0.000 OA
ATOM      4  N   UNL     1       1.634   8.392  19.672  0.00  0.00    +0.000 N 
ATOM      5  C   UNL     1       0.821   8.988  20.734  0.00  0.00    +0.000 C 
ATOM      6  C   UNL     1       1.013  10.509  20.816  0.00  0.00    +0.000 C 
ATOM      7  N   UNL     1       0.842  11.188  19.492  0.00  0.00    +0.000 NA
ATOM      8  C   UNL     1       1.700  10.552  18.445  0.00  0.00    +0.000 C 
ATOM      9  C   UNL     1       1.487   9.037  18.360  0.00  0.00    +0.000 C 
ATOM     10  H   UNL     1       3.472   7.251  18.501  0.00  0.00    +0.000 HD
ENDROOT
BRANCH   7  11
ATOM     11  S   UNL     1      -0.738  11.582  19.020  0.00  0.00    +0.000 S 
ATOM     12  C   UNL     1      -0.508  13.185  18.280  0.00  0.00    +0.000 C 
ATOM     13  O   UNL     1      -1.128  10.669  17.963  0.00  0.00    +0.000 OA
ATOM     14  O   UNL     1      -1.543  11.727  20.211  0.00  0.00    +0.000 OA
ENDBRANCH   7  11
BRANCH   1  16
ATOM     15  C   UNL     1       2.368   4.265  18.016  0.00  0.00    +0.000 C 
ATOM     16  C   UNL     1       3.281   5.213  18.795  0.00  0.00    +0.000 C 
BRANCH  16  17
ATOM     17  C   UNL     1       4.714   5.197  18.191  0.00  0.00    +0.000 C 
BRANCH  17  18
ATOM     18  N   UNL     1       4.850   5.991  16.942  0.00  0.00    +0.000 NA
ATOM     19  C   UNL     1       5.282   5.132  15.809  0.00  0.00    +0.000 C 
ATOM     20  C   UNL     1       6.758   4.691  15.866  0.00  0.00    +0.000 C 
ATOM     21  O   UNL     1       7.644   5.809  16.012  0.00  0.00    +0.000 OA
ATOM     22  C   UNL     1       7.295   6.593  17.158  0.00  0.00    +0.000 C 
ATOM     23  C   UNL     1       5.843   7.087  17.059  0.00  0.00    +0.000 C 
ENDBRANCH  17  18
ENDBRANCH  16  17
ENDBRANCH   1  16
TORSDOF 4
ENDMDL
MODEL 4
REMARK VINA RESULT:      -6.4      2.659      7.521
REMARK  Name = 
REMARK  6 active torsions:
REMARK  status: ('A' for Active; 'I' for Inactive)
REMARK    1  A    between atoms: C_1  and  C_2
REMARK    2  A    between atoms: C_2  and  C_3
REMARK    3  A    between atoms: C_2  and  N_10
REMARK    4  A    between atoms: C_3  and  N_4
REMARK    5  A    between atoms: N_16  and  S_17
REMARK    6  A    between atoms: S_17  and  C_18
REMARK                            x       y       z     vdW  Elec       q    Type
REMARK                         _______ _______ _______ _____ _____    ______ ____
ROOT
ATOM      1  N   UNL     1       2.710   7.084  18.607  0.00  0.00    +0.000 N 
ATOM      2  C   UNL     1       2.170   8.274  18.190  0.00  0.00    +0.000 C 
ATOM      3  O   UNL     1       2.429   8.775  17.101  0.00  0.00    +0.000 OA
ATOM      4  N   UNL     1       1.284   8.836  19.094  0.00  0.00    +0.000 N 
ATOM      5  C   UNL     1       0.640  10.093  18.710  0.00  0.00    +0.000 C 
ATOM      6  C   UNL     1      -0.707  10.287  19.421  0.00  0.00    +0.000 C 
ATOM      7  N   UNL     1      -0.612  10.103  20.905  0.00  0.00    +0.000 NA
ATOM      8  C   UNL     1       0.040   8.801  21.246  0.00  0.00    +0.000 C 
ATOM      9  C   UNL     1       1.392   8.626  20.545  0.00  0.00    +0.000 C 
ATOM     10  H   UNL     1       2.030   6.492  19.067  0.00  0.00    +0.000 HD
ENDROOT
BRANCH   7  11
ATOM     11  S   UNL     1      -0.125  11.442  21.824  0.00  0.00    +0.000 S 
ATOM     12  C   UNL     1      -1.252  12.700  21.258  0.00  0.00    +0.000 C 
ATOM     13  O   UNL     1      -0.444  11.169  23.212  0.00  0.00    +0.000 OA
ATOM     14  O   UNL     1       1.216  11.802  21.425  0.00  0.00    +0.000 OA
ENDBRANCH   7  11
BRANCH   1  16
ATOM     15  C   UNL     1       5.025   6.951  17.734  0.00  0.00    +0.000 C 
ATOM     16  C   UNL     1       3.632   6.322  17.770  0.00  0.00    +0.000 C 
BRANCH  16  17
ATOM     17  C   UNL     1       3.715   4.860  18.295  0.00  0.00    +0.000 C 
BRANCH  17  18
ATOM     18  N   UNL     1       2.920   3.889  17.499  0.00  0.00    +0.000 NA
ATOM     19  C   UNL     1       1.487   3.927  17.890  0.00  0.00    +0.000 C 
ATOM     20  C   UNL     1       1.179   3.285  19.258  0.00  0.00    +0.000 C 
ATOM     21  O   UNL     1       1.687   1.948  19.346  0.00  0.00    +0.000 OA
ATOM     22  C   UNL     1       3.090   1.912  19.063  0.00  0.00    +0.000 C 
ATOM     23  C   UNL     1       3.380   2.489  17.669  0.00  0.00    +0.000 C 
ENDBRANCH  17  18
ENDBRANCH  16  17
ENDBRANCH   1  16
TORSDOF 4
ENDMDL
MODEL 5
REMARK VINA RESULT:      -6.3      3.496      8.312
REMARK  Name = 
REMARK  6 active torsions:
REMARK  status: ('A' for Active; 'I' for Inactive)
REMARK    1  A    between atoms: C_1  and  C_2
REMARK    2  A    between atoms: C_2  and  C_3
REMARK    3  A    between atoms: C_2  and  N_10
REMARK    4  A    between atoms: C_3  and  N_4
REMARK    5  A    between atoms: N_16  and  S_17
REMARK    6  A    between atoms: S_17  and  C_18
REMARK                            x       y       z     vdW  Elec       q    Type
REMARK                         _______ _______ _______ _____ _____    ______ ____
ROOT
ATOM      1  N   UNL     1       2.597   7.161  18.639  0.00  0.00    +0.000 N 
ATOM      2  C   UNL     1       1.871   7.605  19.715  0.00  0.00    +0.000 C 
ATOM      3  O   UNL     1       1.586   6.885  20.666  0.00  0.00    +0.000 OA
ATOM      4  N   UNL     1       1.522   8.944  19.643  0.00  0.00    +0.000 N 
ATOM      5  C   UNL     1       0.771   9.503  20.768  0.00  0.00    +0.000 C 
ATOM      6  C   UNL     1       0.981  11.019  20.900  0.00  0.00    +0.000 C 
ATOM      7  N   UNL     1       0.747  11.750  19.613  0.00  0.00    +0.000 NA
ATOM      8  C   UNL     1       1.544  11.150  18.499  0.00  0.00    +0.000 C 
ATOM      9  C   UNL     1       1.313   9.641  18.366  0.00  0.00    +0.000 C 
ATOM     10  H   UNL     1       3.286   7.837  18.333  0.00  0.00    +0.000 HD
ENDROOT
BRANCH   7  11
ATOM     11  S   UNL     1      -0.852  12.174  19.241  0.00  0.00    +0.000 S 
ATOM     12  C   UNL     1      -1.357  13.025  20.721  0.00  0.00    +0.000 C 
ATOM     13  O   UNL     1      -0.815  13.152  18.171  0.00  0.00    +0.000 OA
ATOM     14  O   UNL     1      -1.624  10.959  19.113  0.00  0.00    +0.000 OA
ENDBRANCH   7  11
BRANCH   1  16
ATOM     15  C   UNL     1       2.039   4.835  17.994  0.00  0.00    +0.000 C 
ATOM     16  C   UNL     1       3.092   5.790  18.558  0.00  0.00    +0.000 C 
BRANCH  16  17
ATOM     17  C   UNL     1       4.374   5.757  17.678  0.00  0.00    +0.000 C 
BRANCH  17  18
ATOM     18  N   UNL     1       5.034   4.427  17.626  0.00  0.00    +0.000 NA
ATOM     19  C   UNL     1       6.295   4.426  18.412  0.00  0.00    +0.000 C 
ATOM     20  C   UNL     1       7.459   5.195  17.755  0.00  0.00    +0.000 C 
ATOM     21  O   UNL     1       7.704   4.748  16.415  0.00  0.00    +0.000 OA
ATOM     22  C   UNL     1       6.516   4.833  15.621  0.00  0.00    +0.000 C 
ATOM     23  C   UNL     1       5.382   4.007  16.247  0.00  0.00    +0.000 C 
ENDBRANCH  17  18
ENDBRANCH  16  17
ENDBRANCH   1  16
TORSDOF 4
ENDMDL
MODEL 6
REMARK VINA RESULT:      -6.2      3.434      7.985
REMARK  Name = 
REMARK  6 active torsions:
REMARK  status: ('A' for Active; 'I' for Inactive)
REMARK    1  A    between atoms: C_1  and  C_2
REMARK    2  A    between atoms: C_2  and  C_3
REMARK    3  A    between atoms: C_2  and  N_10
REMARK    4  A    between atoms: C_3  and  N_4
REMARK    5  A    between atoms: N_16  and  S_17
REMARK    6  A    between atoms: S_17  and  C_18
REMARK                            x       y       z     vdW  Elec       q    Type
REMARK                         _______ _______ _______ _____ _____    ______ ____
ROOT
ATOM      1  N   UNL     1       2.745   6.266  18.542  0.00  0.00    +0.000 N 
ATOM      2  C   UNL     1       2.065   6.813  19.600  0.00  0.00    +0.000 C 
ATOM      3  O   UNL     1       1.783   6.175  20.609  0.00  0.00    +0.000 OA
ATOM      4  N   UNL     1       1.759   8.155  19.438  0.00  0.00    +0.000 N 
ATOM      5  C   UNL     1       1.059   8.820  20.538  0.00  0.00    +0.000 C 
ATOM      6  C   UNL     1       1.323  10.333  20.552  0.00  0.00    +0.000 C 
ATOM      7  N   UNL     1       1.078  10.977  19.221  0.00  0.00    +0.000 NA
ATOM      8  C   UNL     1       1.823  10.269  18.135  0.00  0.00    +0.000 C 
ATOM      9  C   UNL     1       1.538   8.763  18.119  0.00  0.00    +0.000 C 
ATOM     10  H   UNL     1       3.448   6.893  18.170  0.00  0.00    +0.000 HD
ENDROOT
BRANCH   7  11
ATOM     11  S   UNL     1      -0.515  11.428  18.859  0.00  0.00    +0.000 S 
ATOM     12  C   UNL     1      -1.208  11.651  20.484  0.00  0.00    +0.000 C 
ATOM     13  O   UNL     1      -0.475  12.731  18.224  0.00  0.00    +0.000 OA
ATOM     14  O   UNL     1      -1.169  10.309  18.221  0.00  0.00    +0.000 OA
ENDBRANCH   7  11
BRANCH   1  16
ATOM     15  C   UNL     1       2.028   3.902  18.364  0.00  0.00    +0.000 C 
ATOM     16  C   UNL     1       3.192   4.877  18.549  0.00  0.00    +0.000 C 
BRANCH  16  17
ATOM     17  C   UNL     1       4.250   4.670  17.429  0.00  0.00    +0.000 C 
BRANCH  17  18
ATOM     18  N   UNL     1       5.176   5.819  17.255  0.00  0.00    +0.000 NA
ATOM     19  C   UNL     1       5.538   6.000  15.825  0.00  0.00    +0.000 C 
ATOM     20  C   UNL     1       6.513   4.941  15.273  0.00  0.00    +0.000 C 
ATOM     21  O   UNL     1       7.694   4.831  16.079  0.00  0.00    +0.000 OA
ATOM     22  C   UNL     1       7.359   4.562  17.445  0.00  0.00    +0.000 C 
ATOM     23  C   UNL     1       6.444   5.661  18.008  0.00  0.00    +0.000 C 
ENDBRANCH  17  18
ENDBRANCH  16  17
ENDBRANCH   1  16
TORSDOF 4
ENDMDL
MODEL 7
REMARK VINA RESULT:      -6.1      2.711      3.625
REMARK  Name = 
REMARK  6 active torsions:
REMARK  status: ('A' for Active; 'I' for Inactive)
REMARK    1  A    between atoms: C_1  and  C_2
REMARK    2  A    between atoms: C_2  and  C_3
REMARK    3  A    between atoms: C_2  and  N_10
REMARK    4  A    between atoms: C_3  and  N_4
REMARK    5  A    between atoms: N_16  and  S_17
REMARK    6  A    between atoms: S_17  and  C_18
REMARK                            x       y       z     vdW  Elec       q    Type
REMARK                         _______ _______ _______ _____ _____    ______ ____
ROOT
ATOM      1  N   UNL     1       1.210   9.127  19.576  0.00  0.00    +0.000 N 
ATOM      2  C   UNL     1       1.472   8.126  20.476  0.00  0.00    +0.000 C 
ATOM      3  O   UNL     1       1.218   8.223  21.672  0.00  0.00    +0.000 OA
ATOM      4  N   UNL     1       2.017   6.986  19.905  0.00  0.00    +0.000 N 
ATOM      5  C   UNL     1       2.299   5.859  20.794  0.00  0.00    +0.000 C 
ATOM      6  C   UNL     1       2.284   4.519  20.043  0.00  0.00    +0.000 C 
ATOM      7  N   UNL     1       3.145   4.533  18.818  0.00  0.00    +0.000 NA
ATOM      8  C   UNL     1       2.811   5.694  17.936  0.00  0.00    +0.000 C 
ATOM      9  C   UNL     1       2.846   7.027  18.693  0.00  0.00    +0.000 C 
ATOM     10  H   UNL     1       0.824   8.775  18.709  0.00  0.00    +0.000 HD
ENDROOT
BRANCH   7  11
ATOM     11  S   UNL     1       4.796   4.206  19.025  0.00  0.00    +0.000 S 
ATOM     12  C   UNL     1       5.362   4.107  17.340  0.00  0.00    +0.000 C 
ATOM     13  O   UNL     1       5.410   5.378  19.619  0.00  0.00    +0.000 OA
ATOM     14  O   UNL     1       4.926   2.905  19.640  0.00  0.00    +0.000 OA
ENDBRANCH   7  11
BRANCH   1  16
ATOM     15  C   UNL     1       1.316  11.595  19.386  0.00  0.00    +0.000 C 
ATOM     16  C   UNL     1       0.594  10.386  19.984  0.00  0.00    +0.000 C 
BRANCH  16  17
ATOM     17  C   UNL     1      -0.902  10.389  19.562  0.00  0.00    +0.000 C 
BRANCH  17  18
ATOM     18  N   UNL     1      -1.145  10.964  18.213  0.00  0.00    +0.000 NA
ATOM     19  C   UNL     1      -2.087  12.112  18.284  0.00  0.00    +0.000 C 
ATOM     20  C   UNL     1      -3.555  11.720  18.545  0.00  0.00    +0.000 C 
ATOM     21  O   UNL     1      -4.023  10.746  17.603  0.00  0.00    +0.000 OA
ATOM     22  C   UNL     1      -3.175   9.593  17.593  0.00  0.00    +0.000 C 
ATOM     23  C   UNL     1      -1.726   9.985  17.262  0.00  0.00    +0.000 C 
ENDBRANCH  17  18
ENDBRANCH  16  17
ENDBRANCH   1  16
TORSDOF 4
ENDMDL
MODEL 8
REMARK VINA RESULT:      -6.1      2.897      7.354
REMARK  Name = 
REMARK  6 active torsions:
REMARK  status: ('A' for Active; 'I' for Inactive)
REMARK    1  A    between atoms: C_1  and  C_2
REMARK    2  A    between atoms: C_2  and  C_3
REMARK    3  A    between atoms: C_2  and  N_10
REMARK    4  A    between atoms: C_3  and  N_4
REMARK    5  A    between atoms: N_16  and  S_17
REMARK    6  A    between atoms: S_17  and  C_18
REMARK                            x       y       z     vdW  Elec       q    Type
REMARK                         _______ _______ _______ _____ _____    ______ ____
ROOT
ATOM      1  N   UNL     1       2.519   7.023  18.965  0.00  0.00    +0.000 N 
ATOM      2  C   UNL     1       2.135   8.168  18.315  0.00  0.00    +0.000 C 
ATOM      3  O   UNL     1       2.527   8.455  17.188  0.00  0.00    +0.000 OA
ATOM      4  N   UNL     1       1.241   8.948  19.031  0.00  0.00    +0.000 N 
ATOM      5  C   UNL     1       0.759  10.174  18.392  0.00  0.00    +0.000 C 
ATOM      6  C   UNL     1      -0.613  10.599  18.933  0.00  0.00    +0.000 C 
ATOM      7  N   UNL     1      -0.653  10.659  20.430  0.00  0.00    +0.000 NA
ATOM      8  C   UNL     1      -0.165   9.381  21.034  0.00  0.00    +0.000 C 
ATOM      9  C   UNL     1       1.214   8.976  20.499  0.00  0.00    +0.000 C 
ATOM     10  H   UNL     1       1.748   6.577  19.448  0.00  0.00    +0.000 HD
ENDROOT
BRANCH   7  11
ATOM     11  S   UNL     1      -0.109  12.087  21.165  0.00  0.00    +0.000 S 
ATOM     12  C   UNL     1      -0.964  12.042  22.725  0.00  0.00    +0.000 C 
ATOM     13  O   UNL     1       1.306  11.932  21.442  0.00  0.00    +0.000 OA
ATOM     14  O   UNL     1      -0.597  13.207  20.395  0.00  0.00    +0.000 OA
ENDBRANCH   7  11
BRANCH   1  16
ATOM     15  C   UNL     1       4.723   6.706  17.879  0.00  0.00    +0.000 C 
ATOM     16  C   UNL     1       3.421   6.055  18.350  0.00  0.00    +0.000 C 
BRANCH  16  17
ATOM     17  C   UNL     1       3.726   4.917  19.366  0.00  0.00    +0.000 C 
BRANCH  17  18
ATOM     18  N   UNL     1       3.116   3.611  19.008  0.00  0.00    +0.000 NA
ATOM     19  C   UNL     1       1.641   3.732  18.868  0.00  0.00    +0.000 C 
ATOM     20  C   UNL     1       0.882   3.889  20.201  0.00  0.00    +0.000 C 
ATOM     21  O   UNL     1       1.213   2.848  21.129  0.00  0.00    +0.000 OA
ATOM     22  C   UNL     1       2.627   2.783  21.345  0.00  0.00    +0.000 C 
ATOM     23  C   UNL     1       3.371   2.556  20.019  0.00  0.00    +0.000 C 
ENDBRANCH  17  18
ENDBRANCH  16  17
ENDBRANCH   1  16
TORSDOF 4
ENDMDL
MODEL 9
REMARK VINA RESULT:      -6.1      2.812      8.026
REMARK  Name = 
REMARK  6 active torsions:
REMARK  status: ('A' for Active; 'I' for Inactive)
REMARK    1  A    between atoms: C_1  and  C_2
REMARK    2  A    between atoms: C_2  and  C_3
REMARK    3  A    between atoms: C_2  and  N_10
REMARK    4  A    between atoms: C_3  and  N_4
REMARK    5  A    between atoms: N_16  and  S_17
REMARK    6  A    between atoms: S_17  and  C_18
REMARK                            x       y       z     vdW  Elec       q    Type
REMARK                         _______ _______ _______ _____ _____    ______ ____
ROOT
ATOM      1  N   UNL     1       2.214   7.465  18.735  0.00  0.00    +0.000 N 
ATOM      2  C   UNL     1       1.826   8.696  18.270  0.00  0.00    +0.000 C 
ATOM      3  O   UNL     1       2.171   9.132  17.177  0.00  0.00    +0.000 OA
ATOM      4  N   UNL     1       0.985   9.382  19.132  0.00  0.00    +0.000 N 
ATOM      5  C   UNL     1       0.502  10.693  18.695  0.00  0.00    +0.000 C 
ATOM      6  C   UNL     1      -0.833  11.061  19.359  0.00  0.00    +0.000 C 
ATOM      7  N   UNL     1      -0.801  10.911  20.849  0.00  0.00    +0.000 NA
ATOM      8  C   UNL     1      -0.313   9.553  21.244  0.00  0.00    +0.000 C 
ATOM      9  C   UNL     1       1.029   9.205  20.590  0.00  0.00    +0.000 C 
ATOM     10  H   UNL     1       1.457   6.968  19.189  0.00  0.00    +0.000 HD
ENDROOT
BRANCH   7  11
ATOM     11  S   UNL     1      -0.189  12.212  21.747  0.00  0.00    +0.000 S 
ATOM     12  C   UNL     1      -1.142  13.574  21.110  0.00  0.00    +0.000 C 
ATOM     13  O   UNL     1      -0.579  12.021  23.131  0.00  0.00    +0.000 OA
ATOM     14  O   UNL     1       1.197  12.401  21.384  0.00  0.00    +0.000 OA
ENDBRANCH   7  11
BRANCH   1  16
ATOM     15  C   UNL     1       4.494   7.107  17.836  0.00  0.00    +0.000 C 
ATOM     16  C   UNL     1       3.064   6.578  17.947  0.00  0.00    +0.000 C 
BRANCH  16  17
ATOM     17  C   UNL     1       3.063   5.161  18.587  0.00  0.00    +0.000 C 
BRANCH  17  18
ATOM     18  N   UNL     1       4.196   4.303  18.153  0.00  0.00    +0.000 NA
ATOM     19  C   UNL     1       3.744   3.273  17.182  0.00  0.00    +0.000 C 
ATOM     20  C   UNL     1       2.920   2.126  17.804  0.00  0.00    +0.000 C 
ATOM     21  O   UNL     1       3.606   1.512  18.903  0.00  0.00    +0.000 OA
ATOM     22  C   UNL     1       3.965   2.484  19.891  0.00  0.00    +0.000 C 
ATOM     23  C   UNL     1       4.844   3.586  19.278  0.00  0.00    +0.000 C 
ENDBRANCH  17  18
ENDBRANCH  16  17
ENDBRANCH   1  16
TORSDOF 4
ENDMDL
