MODEL 1
REMARK VINA RESULT:      -8.1      0.000      0.000
REMARK  Name = 
REMARK  5 active torsions:
REMARK  status: ('A' for Active; 'I' for Inactive)
REMARK    1  A    between atoms: C_1  and  C_2
REMARK    2  A    between atoms: C_5  and  C_6
REMARK    3  A    between atoms: C_10  and  N_11
REMARK    4  A    between atoms: C_12  and  C_14
REMARK    5  A    between atoms: C_18  and  C_19
REMARK                            x       y       z     vdW  Elec       q    Type
REMARK                         _______ _______ _______ _____ _____    ______ ____
ROOT
ATOM      1  C   UNL     1       2.595   5.023  20.238  0.00  0.00    +0.000 A 
ATOM      2  C   UNL     1       2.124   4.211  21.322  0.00  0.00    +0.000 A 
ATOM      3  C   UNL     1       2.594   2.916  21.250  0.00  0.00    +0.000 A 
ATOM      4  S   UNL     1       3.556   2.671  19.854  0.00  0.00    +0.000 S 
ATOM      5  C   UNL     1       3.465   4.319  19.434  0.00  0.00    +0.000 A 
ENDROOT
BRANCH   1  10
ATOM      6  C   UNL     1       1.896   9.410  18.143  0.00  0.00    +0.000 C 
ATOM      7  C   UNL     1       1.846   8.312  19.124  0.00  0.00    +0.000 A 
ATOM      8  N   UNL     1       1.342   8.468  20.355  0.00  0.00    +0.000 NA
ATOM      9  O   UNL     1       1.525   7.216  20.926  0.00  0.00    +0.000 OA
ATOM     10  C   UNL     1       2.118   6.418  19.985  0.00  0.00    +0.000 A 
ATOM     11  N   UNL     1       2.333   7.063  18.852  0.00  0.00    +0.000 NA
ENDBRANCH   1  10
BRANCH   5  12
ATOM     12  N   UNL     1       4.262   4.647  18.352  0.00  0.00    +0.000 N 
ATOM     13  C   UNL     1       5.579   5.019  18.564  0.00  0.00    +0.000 C 
ATOM     14  O   UNL     1       6.097   5.097  19.674  0.00  0.00    +0.000 OA
ATOM     15  H   UNL     1       4.069   4.136  17.504  0.00  0.00    +0.000 HD
BRANCH  13  16
ATOM     16  C   UNL     1       6.377   5.244  17.371  0.00  0.00    +0.000 A 
ATOM     17  C   UNL     1       6.529   4.319  16.309  0.00  0.00    +0.000 A 
ATOM     18  N   UNL     1       7.321   4.773  15.340  0.00  0.00    +0.000 NA
ATOM     19  O   UNL     1       7.725   6.024  15.760  0.00  0.00    +0.000 OA
ATOM     20  C   UNL     1       7.168   6.307  16.972  0.00  0.00    +0.000 A 
ATOM     21  C   UNL     1       7.560   7.616  17.534  0.00  0.00    +0.000 C 
ENDBRANCH  13  16
ENDBRANCH   5  12
TORSDOF 3
ENDMDL
MODEL 2
REMARK VINA RESULT:      -7.9      1.167      1.686
REMARK  Name = 
REMARK  5 active torsions:
REMARK  status: ('A' for Active; 'I' for Inactive)
REMARK    1  A    between atoms: C_1  and  C_2
REMARK    2  A    between atoms: C_5  and  C_6
REMARK    3  A    between atoms: C_10  and  N_11
REMARK    4  A    between atoms: C_12  and  C_14
REMARK    5  A    between atoms: C_18  and  C_19
REMARK                            x       y       z     vdW  Elec       q    Type
REMARK                         _______ _______ _______ _____ _____    ______ ____
ROOT
ATOM      1  C   UNL     1       2.651   4.960  20.203  0.00  0.00    +0.000 A 
ATOM      2  C   UNL     1       1.907   4.080  21.056  0.00  0.00    +0.000 A 
ATOM      3  C   UNL     1       2.435   2.806  21.085  0.00  0.00    +0.000 A 
ATOM      4  S   UNL     1       3.791   2.662  20.047  0.00  0.00    +0.000 S 
ATOM      5  C   UNL     1       3.758   4.325  19.682  0.00  0.00    +0.000 A 
ENDROOT
BRANCH   1  10
ATOM      6  C   UNL     1       2.089   9.242  17.864  0.00  0.00    +0.000 C 
ATOM      7  C   UNL     1       1.997   8.199  18.902  0.00  0.00    +0.000 A 
ATOM      8  N   UNL     1       1.478   8.433  20.113  0.00  0.00    +0.000 NA
ATOM      9  O   UNL     1       1.623   7.210  20.755  0.00  0.00    +0.000 OA
ATOM     10  C   UNL     1       2.211   6.350  19.868  0.00  0.00    +0.000 A 
ATOM     11  N   UNL     1       2.459   6.927  18.705  0.00  0.00    +0.000 NA
ENDBRANCH   1  10
BRANCH   5  12
ATOM     12  N   UNL     1       4.833   4.733  18.913  0.00  0.00    +0.000 N 
ATOM     13  C   UNL     1       4.758   4.636  17.533  0.00  0.00    +0.000 C 
ATOM     14  O   UNL     1       3.787   4.186  16.931  0.00  0.00    +0.000 OA
ATOM     15  H   UNL     1       5.356   5.512  19.282  0.00  0.00    +0.000 HD
BRANCH  13  16
ATOM     16  C   UNL     1       5.883   5.182  16.795  0.00  0.00    +0.000 A 
ATOM     17  C   UNL     1       6.687   6.268  17.225  0.00  0.00    +0.000 A 
ATOM     18  N   UNL     1       7.648   6.573  16.355  0.00  0.00    +0.000 NA
ATOM     19  O   UNL     1       7.483   5.688  15.309  0.00  0.00    +0.000 OA
ATOM     20  C   UNL     1       6.431   4.860  15.566  0.00  0.00    +0.000 A 
ATOM     21  C   UNL     1       6.143   3.887  14.492  0.00  0.00    +0.000 C 
ENDBRANCH  13  16
ENDBRANCH   5  12
TORSDOF 3
ENDMDL
MODEL 3
REMARK VINA RESULT:      -7.9      1.419      1.538
REMARK  Name = 
REMARK  5 active torsions:
REMARK  status: ('A' for Active; 'I' for Inactive)
REMARK    1  A    between atoms: C_1  and  C_2
REMARK    2  A    between atoms: C_5  and  C_6
REMARK    3  A    between atoms: C_10  and  N_11
REMARK    4  A    between atoms: C_12  and  C_14
REMARK    5  A    between atoms: C_18  and  C_19
REMARK                            x       y       z     vdW  Elec       q    Type
REMARK                         _______ _______ _______ _____ _____    ______ ____
ROOT
ATOM      1  C   UNL     1       2.170   4.446  19.431  0.00  0.00    +0.000 A 
ATOM      2  C   UNL     1       1.428   3.432  20.122  0.00  0.00    +0.000 A 
ATOM      3  C   UNL     1       1.586   2.186  19.551  0.00  0.00    +0.000 A 
ATOM      4  S   UNL     1       2.583   2.252  18.159  0.00  0.00    +0.000 S 
ATOM      5  C   UNL     1       2.918   3.903  18.409  0.00  0.00    +0.000 A 
ENDROOT
BRANCH   1  10
ATOM      6  C   UNL     1       0.890   8.676  21.574  0.00  0.00    +0.000 C 
ATOM      7  C   UNL     1       1.482   7.722  20.620  0.00  0.00    +0.000 A 
ATOM      8  N   UNL     1       2.063   8.112  19.479  0.00  0.00    +0.000 NA
ATOM      9  O   UNL     1       2.439   6.910  18.895  0.00  0.00    +0.000 OA
ATOM     10  C   UNL     1       2.056   5.905  19.742  0.00  0.00    +0.000 A 
ATOM     11  N   UNL     1       1.458   6.369  20.825  0.00  0.00    +0.000 NA
ENDBRANCH   1  10
BRANCH   5  12
ATOM     12  N   UNL     1       3.861   4.405  17.530  0.00  0.00    +0.000 N 
ATOM     13  C   UNL     1       5.197   4.409  17.895  0.00  0.00    +0.000 C 
ATOM     14  O   UNL     1       5.612   4.006  18.978  0.00  0.00    +0.000 OA
ATOM     15  H   UNL     1       3.662   4.255  16.553  0.00  0.00    +0.000 HD
BRANCH  13  16
ATOM     16  C   UNL     1       6.134   4.852  16.877  0.00  0.00    +0.000 A 
ATOM     17  C   UNL     1       6.334   4.217  15.626  0.00  0.00    +0.000 A 
ATOM     18  N   UNL     1       7.257   4.824  14.882  0.00  0.00    +0.000 NA
ATOM     19  O   UNL     1       7.701   5.882  15.650  0.00  0.00    +0.000 OA
ATOM     20  C   UNL     1       7.037   5.900  16.841  0.00  0.00    +0.000 A 
ATOM     21  C   UNL     1       7.459   6.978  17.758  0.00  0.00    +0.000 C 
ENDBRANCH  13  16
ENDBRANCH   5  12
TORSDOF 3
ENDMDL
MODEL 4
REMARK VINA RESULT:      -7.8      1.114      1.120
REMARK  Name = 
REMARK  5 active torsions:
REMARK  status: ('A' for Active; 'I' for Inactive)
REMARK    1  A    between atoms: C_1  and  C_2
REMARK    2  A    between atoms: C_5  and  C_6
REMARK    3  A    between atoms: C_10  and  N_11
REMARK    4  A    between atoms: C_12  and  C_14
REMARK    5  A    between atoms: C_18  and  C_19
REMARK                            x       y       z     vdW  Elec       q    Type
REMARK                         _______ _______ _______ _____ _____    ______ ____
ROOT
ATOM      1  C   UNL     1       2.925   4.764  20.103  0.00  0.00    +0.000 A 
ATOM      2  C   UNL     1       2.241   3.908  21.029  0.00  0.00    +0.000 A 
ATOM      3  C   UNL     1       2.788   2.642  21.075  0.00  0.00    +0.000 A 
ATOM      4  S   UNL     1       4.085   2.475  19.968  0.00  0.00    +0.000 S 
ATOM      5  C   UNL     1       4.010   4.123  19.545  0.00  0.00    +0.000 A 
ENDROOT
BRANCH   1  10
ATOM      6  C   UNL     1       2.259   8.990  17.691  0.00  0.00    +0.000 C 
ATOM      7  C   UNL     1       2.189   7.962  18.745  0.00  0.00    +0.000 A 
ATOM      8  N   UNL     1       1.654   8.201  19.949  0.00  0.00    +0.000 NA
ATOM      9  O   UNL     1       1.829   6.993  20.611  0.00  0.00    +0.000 OA
ATOM     10  C   UNL     1       2.448   6.135  19.742  0.00  0.00    +0.000 A 
ATOM     11  N   UNL     1       2.688   6.701  18.573  0.00  0.00    +0.000 NA
ENDBRANCH   1  10
BRANCH   5  12
ATOM     12  N   UNL     1       5.035   4.514  18.702  0.00  0.00    +0.000 N 
ATOM     13  C   UNL     1       4.876   4.382  17.333  0.00  0.00    +0.000 C 
ATOM     14  O   UNL     1       3.873   3.915  16.801  0.00  0.00    +0.000 OA
ATOM     15  H   UNL     1       5.576   5.304  19.019  0.00  0.00    +0.000 HD
BRANCH  13  16
ATOM     16  C   UNL     1       5.953   4.913  16.514  0.00  0.00    +0.000 A 
ATOM     17  C   UNL     1       6.274   4.469  15.207  0.00  0.00    +0.000 A 
ATOM     18  N   UNL     1       7.311   5.119  14.682  0.00  0.00    +0.000 NA
ATOM     19  O   UNL     1       7.710   6.009  15.658  0.00  0.00    +0.000 OA
ATOM     20  C   UNL     1       6.906   5.887  16.752  0.00  0.00    +0.000 A 
ATOM     21  C   UNL     1       7.265   6.777  17.876  0.00  0.00    +0.000 C 
ENDBRANCH  13  16
ENDBRANCH   5  12
TORSDOF 3
ENDMDL
MODEL 5
REMARK VINA RESULT:      -7.7      0.942      1.099
REMARK  Name = 
REMARK  5 active torsions:
REMARK  status: ('A' for Active; 'I' for Inactive)
REMARK    1  A    between atoms: C_1  and  C_2
REMARK    2  A    between atoms: C_5  and  C_6
REMARK    3  A    between atoms: C_10  and  N_11
REMARK    4  A    between atoms: C_12  and  C_14
REMARK    5  A    between atoms: C_18  and  C_19
REMARK                            x       y       z     vdW  Elec       q    Type
REMARK                         _______ _______ _______ _____ _____    ______ ____
ROOT
ATOM      1  C   UNL     1       2.570   5.158  20.192  0.00  0.00    +0.000 A 
ATOM      2  C   UNL     1       2.040   4.299  21.211  0.00  0.00    +0.000 A 
ATOM      3  C   UNL     1       2.419   2.984  21.039  0.00  0.00    +0.000 A 
ATOM      4  S   UNL     1       3.366   2.781  19.625  0.00  0.00    +0.000 S 
ATOM      5  C   UNL     1       3.391   4.459  19.334  0.00  0.00    +0.000 A 
ENDROOT
BRANCH   1  10
ATOM      6  C   UNL     1       0.501   9.540  20.986  0.00  0.00    +0.000 C 
ATOM      7  C   UNL     1       1.280   8.463  20.350  0.00  0.00    +0.000 A 
ATOM      8  N   UNL     1       1.816   8.586  19.130  0.00  0.00    +0.000 NA
ATOM      9  O   UNL     1       2.416   7.350  18.928  0.00  0.00    +0.000 OA
ATOM     10  C   UNL     1       2.191   6.598  20.049  0.00  0.00    +0.000 A 
ATOM     11  N   UNL     1       1.489   7.254  20.956  0.00  0.00    +0.000 NA
ENDBRANCH   1  10
BRANCH   5  12
ATOM     12  N   UNL     1       4.212   4.814  18.279  0.00  0.00    +0.000 N 
ATOM     13  C   UNL     1       5.539   5.124  18.524  0.00  0.00    +0.000 C 
ATOM     14  O   UNL     1       6.047   5.123  19.641  0.00  0.00    +0.000 OA
ATOM     15  H   UNL     1       4.011   4.355  17.403  0.00  0.00    +0.000 HD
BRANCH  13  16
ATOM     16  C   UNL     1       6.359   5.382  17.352  0.00  0.00    +0.000 A 
ATOM     17  C   UNL     1       6.475   4.517  16.235  0.00  0.00    +0.000 A 
ATOM     18  N   UNL     1       7.298   4.989  15.301  0.00  0.00    +0.000 NA
ATOM     19  O   UNL     1       7.760   6.190  15.801  0.00  0.00    +0.000 OA
ATOM     20  C   UNL     1       7.206   6.426  17.024  0.00  0.00    +0.000 A 
ATOM     21  C   UNL     1       7.658   7.676  17.668  0.00  0.00    +0.000 C 
ENDBRANCH  13  16
ENDBRANCH   5  12
TORSDOF 3
ENDMDL
MODEL 6
REMARK VINA RESULT:      -7.5      1.461      1.974
REMARK  Name = 
REMARK  5 active torsions:
REMARK  status: ('A' for Active; 'I' for Inactive)
REMARK    1  A    between atoms: C_1  and  C_2
REMARK    2  A    between atoms: C_5  and  C_6
REMARK    3  A    between atoms: C_10  and  N_11
REMARK    4  A    between atoms: C_12  and  C_14
REMARK    5  A    between atoms: C_18  and  C_19
REMARK                            x       y       z     vdW  Elec       q    Type
REMARK                         _______ _______ _______ _____ _____    ______ ____
ROOT
ATOM      1  C   UNL     1       2.613   5.035  20.247  0.00  0.00    +0.000 A 
ATOM      2  C   UNL     1       1.813   4.161  21.055  0.00  0.00    +0.000 A 
ATOM      3  C   UNL     1       2.253   2.854  21.007  0.00  0.00    +0.000 A 
ATOM      4  S   UNL     1       3.592   2.678  19.954  0.00  0.00    +0.000 S 
ATOM      5  C   UNL     1       3.672   4.358  19.684  0.00  0.00    +0.000 A 
ENDROOT
BRANCH   1  10
ATOM      6  C   UNL     1       0.597   9.494  20.667  0.00  0.00    +0.000 C 
ATOM      7  C   UNL     1       1.380   8.365  20.136  0.00  0.00    +0.000 A 
ATOM      8  N   UNL     1       1.966   8.397  18.932  0.00  0.00    +0.000 NA
ATOM      9  O   UNL     1       2.549   7.141  18.837  0.00  0.00    +0.000 OA
ATOM     10  C   UNL     1       2.267   6.469  19.995  0.00  0.00    +0.000 A 
ATOM     11  N   UNL     1       1.543   7.196  20.828  0.00  0.00    +0.000 NA
ENDBRANCH   1  10
BRANCH   5  12
ATOM     12  N   UNL     1       4.770   4.735  18.932  0.00  0.00    +0.000 N 
ATOM     13  C   UNL     1       4.669   4.770  17.551  0.00  0.00    +0.000 C 
ATOM     14  O   UNL     1       3.654   4.466  16.931  0.00  0.00    +0.000 OA
ATOM     15  H   UNL     1       5.367   5.428  19.358  0.00  0.00    +0.000 HD
BRANCH  13  16
ATOM     16  C   UNL     1       5.830   5.278  16.841  0.00  0.00    +0.000 A 
ATOM     17  C   UNL     1       6.630   6.367  17.266  0.00  0.00    +0.000 A 
ATOM     18  N   UNL     1       7.630   6.631  16.426  0.00  0.00    +0.000 NA
ATOM     19  O   UNL     1       7.495   5.713  15.405  0.00  0.00    +0.000 OA
ATOM     20  C   UNL     1       6.422   4.907  15.646  0.00  0.00    +0.000 A 
ATOM     21  C   UNL     1       6.165   3.901  14.595  0.00  0.00    +0.000 C 
ENDBRANCH  13  16
ENDBRANCH   5  12
TORSDOF 3
ENDMDL
MODEL 7
REMARK VINA RESULT:      -7.5      1.420      1.986
REMARK  Name = 
REMARK  5 active torsions:
REMARK  status: ('A' for Active; 'I' for Inactive)
REMARK    1  A    between atoms: C_1  and  C_2
REMARK    2  A    between atoms: C_5  and  C_6
REMARK    3  A    between atoms: C_10  and  N_11
REMARK    4  A    between atoms: C_12  and  C_14
REMARK    5  A    between atoms: C_18  and  C_19
REMARK                            x       y       z     vdW  Elec       q    Type
REMARK                         _______ _______ _______ _____ _____    ______ ____
ROOT
ATOM      1  C   UNL     1       2.173   4.642  19.677  0.00  0.00    +0.000 A 
ATOM      2  C   UNL     1       1.449   3.592  20.333  0.00  0.00    +0.000 A 
ATOM      3  C   UNL     1       1.672   2.360  19.751  0.00  0.00    +0.000 A 
ATOM      4  S   UNL     1       2.707   2.483  18.392  0.00  0.00    +0.000 S 
ATOM      5  C   UNL     1       2.972   4.142  18.673  0.00  0.00    +0.000 A 
ENDROOT
BRANCH   1  10
ATOM      6  C   UNL     1       0.713   8.789  21.867  0.00  0.00    +0.000 C 
ATOM      7  C   UNL     1       1.343   7.872  20.901  0.00  0.00    +0.000 A 
ATOM      8  N   UNL     1       1.899   8.299  19.761  0.00  0.00    +0.000 NA
ATOM      9  O   UNL     1       2.326   7.120  19.164  0.00  0.00    +0.000 OA
ATOM     10  C   UNL     1       1.994   6.092  20.003  0.00  0.00    +0.000 A 
ATOM     11  N   UNL     1       1.382   6.518  21.093  0.00  0.00    +0.000 NA
ENDBRANCH   1  10
BRANCH   5  12
ATOM     12  N   UNL     1       3.921   4.690  17.830  0.00  0.00    +0.000 N 
ATOM     13  C   UNL     1       5.240   4.760  18.245  0.00  0.00    +0.000 C 
ATOM     14  O   UNL     1       5.633   4.376  19.343  0.00  0.00    +0.000 OA
ATOM     15  H   UNL     1       3.766   4.532  16.845  0.00  0.00    +0.000 HD
BRANCH  13  16
ATOM     16  C   UNL     1       6.192   5.250  17.262  0.00  0.00    +0.000 A 
ATOM     17  C   UNL     1       7.015   6.392  17.428  0.00  0.00    +0.000 A 
ATOM     18  N   UNL     1       7.791   6.625  16.371  0.00  0.00    +0.000 NA
ATOM     19  O   UNL     1       7.477   5.631  15.467  0.00  0.00    +0.000 OA
ATOM     20  C   UNL     1       6.522   4.812  15.992  0.00  0.00    +0.000 A 
ATOM     21  C   UNL     1       6.086   3.726  15.091  0.00  0.00    +0.000 C 
ENDBRANCH  13  16
ENDBRANCH   5  12
TORSDOF 3
ENDMDL
MODEL 8
REMARK VINA RESULT:      -7.5      1.377      1.477
REMARK  Name = 
REMARK  5 active torsions:
REMARK  status: ('A' for Active; 'I' for Inactive)
REMARK    1  A    between atoms: C_1  and  C_2
REMARK    2  A    between atoms: C_5  and  C_6
REMARK    3  A    between atoms: C_10  and  N_11
REMARK    4  A    between atoms: C_12  and  C_14
REMARK    5  A    between atoms: C_18  and  C_19
REMARK                            x       y       z     vdW  Elec       q    Type
REMARK                         _______ _______ _______ _____ _____    ______ ____
ROOT
ATOM      1  C   UNL     1       2.886   5.080  20.056  0.00  0.00    +0.000 A 
ATOM      2  C   UNL     1       2.149   4.271  20.982  0.00  0.00    +0.000 A 
ATOM      3  C   UNL     1       2.604   2.968  21.017  0.00  0.00    +0.000 A 
ATOM      4  S   UNL     1       3.878   2.715  19.900  0.00  0.00    +0.000 S 
ATOM      5  C   UNL     1       3.918   4.367  19.486  0.00  0.00    +0.000 A 
ENDROOT
BRANCH   1  10
ATOM      6  C   UNL     1       0.805   9.527  20.202  0.00  0.00    +0.000 C 
ATOM      7  C   UNL     1       1.590   8.372  19.732  0.00  0.00    +0.000 A 
ATOM      8  N   UNL     1       2.133   8.320  18.509  0.00  0.00    +0.000 NA
ATOM      9  O   UNL     1       2.736   7.069  18.490  0.00  0.00    +0.000 OA
ATOM     10  C   UNL     1       2.506   6.484  19.706  0.00  0.00    +0.000 A 
ATOM     11  N   UNL     1       1.798   7.263  20.506  0.00  0.00    +0.000 NA
ENDBRANCH   1  10
BRANCH   5  12
ATOM     12  N   UNL     1       4.962   4.688  18.637  0.00  0.00    +0.000 N 
ATOM     13  C   UNL     1       4.806   4.517  17.272  0.00  0.00    +0.000 C 
ATOM     14  O   UNL     1       3.788   4.073  16.750  0.00  0.00    +0.000 OA
ATOM     15  H   UNL     1       5.533   5.466  18.932  0.00  0.00    +0.000 HD
BRANCH  13  16
ATOM     16  C   UNL     1       5.908   4.977  16.443  0.00  0.00    +0.000 A 
ATOM     17  C   UNL     1       6.214   4.481  15.152  0.00  0.00    +0.000 A 
ATOM     18  N   UNL     1       7.280   5.070  14.613  0.00  0.00    +0.000 NA
ATOM     19  O   UNL     1       7.713   5.971  15.565  0.00  0.00    +0.000 OA
ATOM     20  C   UNL     1       6.900   5.916  16.658  0.00  0.00    +0.000 A 
ATOM     21  C   UNL     1       7.293   6.822  17.757  0.00  0.00    +0.000 C 
ENDBRANCH  13  16
ENDBRANCH   5  12
TORSDOF 3
ENDMDL
MODEL 9
REMARK VINA RESULT:      -7.3      0.606      1.365
REMARK  Name = 
REMARK  5 active torsions:
REMARK  status: ('A' for Active; 'I' for Inactive)
REMARK    1  A    between atoms: C_1  and  C_2
REMARK    2  A    between atoms: C_5  and  C_6
REMARK    3  A    between atoms: C_10  and  N_11
REMARK    4  A    between atoms: C_12  and  C_14
REMARK    5  A    between atoms: C_18  and  C_19
REMARK                            x       y       z     vdW  Elec       q    Type
REMARK                         _______ _______ _______ _____ _____    ______ ____
ROOT
ATOM      1  C   UNL     1       2.515   5.075  20.199  0.00  0.00    +0.000 A 
ATOM      2  C   UNL     1       2.015   4.213  21.231  0.00  0.00    +0.000 A 
ATOM      3  C   UNL     1       2.489   2.923  21.112  0.00  0.00    +0.000 A 
ATOM      4  S   UNL     1       3.491   2.743  19.734  0.00  0.00    +0.000 S 
ATOM      5  C   UNL     1       3.409   4.409  19.389  0.00  0.00    +0.000 A 
ENDROOT
BRANCH   1  10
ATOM      6  C   UNL     1       1.866   9.553  18.291  0.00  0.00    +0.000 C 
ATOM      7  C   UNL     1       1.791   8.411  19.218  0.00  0.00    +0.000 A 
ATOM      8  N   UNL     1       1.253   8.510  20.440  0.00  0.00    +0.000 NA
ATOM      9  O   UNL     1       1.423   7.233  20.959  0.00  0.00    +0.000 OA
ATOM     10  C   UNL     1       2.042   6.480  19.998  0.00  0.00    +0.000 A 
ATOM     11  N   UNL     1       2.288   7.176  18.903  0.00  0.00    +0.000 NA
ENDBRANCH   1  10
BRANCH   5  12
ATOM     12  N   UNL     1       4.236   4.788  18.346  0.00  0.00    +0.000 N 
ATOM     13  C   UNL     1       5.503   5.272  18.625  0.00  0.00    +0.000 C 
ATOM     14  O   UNL     1       5.950   5.408  19.760  0.00  0.00    +0.000 OA
ATOM     15  H   UNL     1       4.135   4.250  17.499  0.00  0.00    +0.000 HD
BRANCH  13  16
ATOM     16  C   UNL     1       6.346   5.547  17.473  0.00  0.00    +0.000 A 
ATOM     17  C   UNL     1       7.203   6.668  17.343  0.00  0.00    +0.000 A 
ATOM     18  N   UNL     1       7.858   6.684  16.184  0.00  0.00    +0.000 NA
ATOM     19  O   UNL     1       7.427   5.560  15.510  0.00  0.00    +0.000 OA
ATOM     20  C   UNL     1       6.523   4.882  16.273  0.00  0.00    +0.000 A 
ATOM     21  C   UNL     1       5.968   3.672  15.632  0.00  0.00    +0.000 C 
ENDBRANCH  13  16
ENDBRANCH   5  12
TORSDOF 3
ENDMDL
