MODEL 1
REMARK VINA RESULT:      -8.0      0.000      0.000
REMARK  Name = 
REMARK  2 active torsions:
REMARK  status: ('A' for Active; 'I' for Inactive)
REMARK    1  A    between atoms: C_6  and  N_7
REMARK    2  A    between atoms: N_7  and  C_8
REMARK                            x       y       z     vdW  Elec       q    Type
REMARK                         _______ _______ _______ _____ _____    ______ ____
ROOT
ATOM      1  C   UNL     1       2.259   5.510  19.941  0.00  0.00    +0.000 A 
ATOM      2  N   UNL     1       1.353   4.918  20.738  0.00  0.00    +0.000 NA
ATOM      3  C   UNL     1       1.010   3.664  20.428  0.00  0.00    +0.000 A 
ATOM      4  N   UNL     1       1.485   2.939  19.409  0.00  0.00    +0.000 NA
ATOM      5  C   UNL     1       2.384   3.530  18.618  0.00  0.00    +0.000 A 
ATOM      6  C   UNL     1       2.927   2.801  17.572  0.00  0.00    +0.000 A 
ATOM      7  C   UNL     1       3.878   3.338  16.690  0.00  0.00    +0.000 A 
ATOM      8  C   UNL     1       4.300   4.665  16.865  0.00  0.00    +0.000 A 
ATOM      9  C   UNL     1       5.214   5.507  16.177  0.00  0.00    +0.000 A 
ATOM     10  C   UNL     1       5.235   6.721  16.825  0.00  0.00    +0.000 A 
ATOM     11  N   UNL     1       4.388   6.633  17.897  0.00  0.00    +0.000 N 
ATOM     12  C   UNL     1       3.771   5.400  17.926  0.00  0.00    +0.000 A 
ATOM     13  C   UNL     1       2.804   4.853  18.824  0.00  0.00    +0.000 A 
ATOM     14  H   UNL     1       4.238   7.356  18.589  0.00  0.00    +0.000 HD
ENDROOT
BRANCH   1  15
ATOM     15  N   UNL     1       2.619   6.858  20.220  0.00  0.00    +0.000 N 
ATOM     16  H   UNL     1       3.471   7.057  19.705  0.00  0.00    +0.000 HD
BRANCH  15  22
ATOM     17 BR   UNL     1      -0.596  10.081  22.944  0.00  0.00    +0.000 Br
ATOM     18  C   UNL     1       0.263   9.522  21.355  0.00  0.00    +0.000 A 
ATOM     19  C   UNL     1       0.088  10.249  20.182  0.00  0.00    +0.000 A 
ATOM     20  C   UNL     1       0.744   9.844  19.021  0.00  0.00    +0.000 A 
ATOM     21  C   UNL     1       1.565   8.710  19.035  0.00  0.00    +0.000 A 
ATOM     22  C   UNL     1       1.716   7.949  20.201  0.00  0.00    +0.000 A 
ATOM     23  C   UNL     1       1.078   8.390  21.372  0.00  0.00    +0.000 A 
ENDBRANCH  15  22
ENDBRANCH   1  15
TORSDOF 2
ENDMDL
MODEL 2
REMARK VINA RESULT:      -7.5      4.119      7.246
REMARK  Name = 
REMARK  2 active torsions:
REMARK  status: ('A' for Active; 'I' for Inactive)
REMARK    1  A    between atoms: C_6  and  N_7
REMARK    2  A    between atoms: N_7  and  C_8
REMARK                            x       y       z     vdW  Elec       q    Type
REMARK                         _______ _______ _______ _____ _____    ______ ____
ROOT
ATOM      1  C   UNL     1       5.013   5.337  16.829  0.00  0.00    +0.000 A 
ATOM      2  N   UNL     1       5.232   6.624  16.510  0.00  0.00    +0.000 NA
ATOM      3  C   UNL     1       4.386   7.522  17.023  0.00  0.00    +0.000 A 
ATOM      4  N   UNL     1       3.348   7.267  17.828  0.00  0.00    +0.000 NA
ATOM      5  C   UNL     1       3.131   5.987  18.143  0.00  0.00    +0.000 A 
ATOM      6  C   UNL     1       2.088   5.683  19.003  0.00  0.00    +0.000 A 
ATOM      7  C   UNL     1       1.786   4.369  19.389  0.00  0.00    +0.000 A 
ATOM      8  C   UNL     1       2.564   3.312  18.890  0.00  0.00    +0.000 A 
ATOM      9  C   UNL     1       2.538   1.902  19.060  0.00  0.00    +0.000 A 
ATOM     10  C   UNL     1       3.575   1.373  18.328  0.00  0.00    +0.000 A 
ATOM     11  N   UNL     1       4.245   2.414  17.743  0.00  0.00    +0.000 N 
ATOM     12  C   UNL     1       3.626   3.612  18.037  0.00  0.00    +0.000 A 
ATOM     13  C   UNL     1       3.935   4.950  17.644  0.00  0.00    +0.000 A 
ATOM     14  H   UNL     1       5.086   2.334  17.186  0.00  0.00    +0.000 HD
ENDROOT
BRANCH   1  15
ATOM     15  N   UNL     1       5.873   4.351  16.269  0.00  0.00    +0.000 N 
ATOM     16  H   UNL     1       5.584   3.451  16.640  0.00  0.00    +0.000 HD
BRANCH  15  22
ATOM     17 BR   UNL     1       4.443   3.026  11.336  0.00  0.00    +0.000 Br
ATOM     18  C   UNL     1       5.651   3.763  12.590  0.00  0.00    +0.000 A 
ATOM     19  C   UNL     1       6.844   4.329  12.151  0.00  0.00    +0.000 A 
ATOM     20  C   UNL     1       7.718   4.891  13.080  0.00  0.00    +0.000 A 
ATOM     21  C   UNL     1       7.400   4.879  14.443  0.00  0.00    +0.000 A 
ATOM     22  C   UNL     1       6.221   4.276  14.898  0.00  0.00    +0.000 A 
ATOM     23  C   UNL     1       5.333   3.747  13.948  0.00  0.00    +0.000 A 
ENDBRANCH  15  22
ENDBRANCH   1  15
TORSDOF 2
ENDMDL
MODEL 3
REMARK VINA RESULT:      -7.4      1.146      3.311
REMARK  Name = 
REMARK  2 active torsions:
REMARK  status: ('A' for Active; 'I' for Inactive)
REMARK    1  A    between atoms: C_6  and  N_7
REMARK    2  A    between atoms: N_7  and  C_8
REMARK                            x       y       z     vdW  Elec       q    Type
REMARK                         _______ _______ _______ _____ _____    ______ ____
ROOT
ATOM      1  C   UNL     1       3.642   5.949  18.601  0.00  0.00    +0.000 A 
ATOM      2  N   UNL     1       4.325   6.484  17.574  0.00  0.00    +0.000 NA
ATOM      3  C   UNL     1       4.744   5.640  16.626  0.00  0.00    +0.000 A 
ATOM      4  N   UNL     1       4.545   4.317  16.596  0.00  0.00    +0.000 NA
ATOM      5  C   UNL     1       3.867   3.787  17.618  0.00  0.00    +0.000 A 
ATOM      6  C   UNL     1       3.609   2.426  17.606  0.00  0.00    +0.000 A 
ATOM      7  C   UNL     1       2.905   1.782  18.635  0.00  0.00    +0.000 A 
ATOM      8  C   UNL     1       2.442   2.537  19.724  0.00  0.00    +0.000 A 
ATOM      9  C   UNL     1       1.723   2.221  20.908  0.00  0.00    +0.000 A 
ATOM     10  C   UNL     1       1.531   3.391  21.606  0.00  0.00    +0.000 A 
ATOM     11  N   UNL     1       2.084   4.407  20.873  0.00  0.00    +0.000 N 
ATOM     12  C   UNL     1       2.684   3.911  19.734  0.00  0.00    +0.000 A 
ATOM     13  C   UNL     1       3.399   4.566  18.687  0.00  0.00    +0.000 A 
ATOM     14  H   UNL     1       2.050   5.390  21.112  0.00  0.00    +0.000 HD
ENDROOT
BRANCH   1  15
ATOM     15  N   UNL     1       3.214   6.814  19.645  0.00  0.00    +0.000 N 
ATOM     16  H   UNL     1       4.047   7.174  20.101  0.00  0.00    +0.000 HD
BRANCH  15  22
ATOM     17 BR   UNL     1      -0.322   9.993  21.996  0.00  0.00    +0.000 Br
ATOM     18  C   UNL     1       0.604   9.349  20.479  0.00  0.00    +0.000 A 
ATOM     19  C   UNL     1       0.374   9.923  19.233  0.00  0.00    +0.000 A 
ATOM     20  C   UNL     1       1.079   9.458  18.124  0.00  0.00    +0.000 A 
ATOM     21  C   UNL     1       2.003   8.417  18.263  0.00  0.00    +0.000 A 
ATOM     22  C   UNL     1       2.212   7.805  19.505  0.00  0.00    +0.000 A 
ATOM     23  C   UNL     1       1.523   8.308  20.620  0.00  0.00    +0.000 A 
ENDBRANCH  15  22
ENDBRANCH   1  15
TORSDOF 2
ENDMDL
MODEL 4
REMARK VINA RESULT:      -7.4      1.166      1.499
REMARK  Name = 
REMARK  2 active torsions:
REMARK  status: ('A' for Active; 'I' for Inactive)
REMARK    1  A    between atoms: C_6  and  N_7
REMARK    2  A    between atoms: N_7  and  C_8
REMARK                            x       y       z     vdW  Elec       q    Type
REMARK                         _______ _______ _______ _____ _____    ______ ____
ROOT
ATOM      1  C   UNL     1       2.831   5.123  18.872  0.00  0.00    +0.000 A 
ATOM      2  N   UNL     1       1.709   4.407  19.068  0.00  0.00    +0.000 NA
ATOM      3  C   UNL     1       1.536   3.337  18.287  0.00  0.00    +0.000 A 
ATOM      4  N   UNL     1       2.371   2.904  17.335  0.00  0.00    +0.000 NA
ATOM      5  C   UNL     1       3.484   3.616  17.141  0.00  0.00    +0.000 A 
ATOM      6  C   UNL     1       4.392   3.181  16.190  0.00  0.00    +0.000 A 
ATOM      7  C   UNL     1       5.587   3.864  15.918  0.00  0.00    +0.000 A 
ATOM      8  C   UNL     1       5.883   5.037  16.631  0.00  0.00    +0.000 A 
ATOM      9  C   UNL     1       6.965   5.957  16.611  0.00  0.00    +0.000 A 
ATOM     10  C   UNL     1       6.715   6.918  17.563  0.00  0.00    +0.000 A 
ATOM     11  N   UNL     1       5.535   6.597  18.177  0.00  0.00    +0.000 N 
ATOM     12  C   UNL     1       4.981   5.472  17.603  0.00  0.00    +0.000 A 
ATOM     13  C   UNL     1       3.765   4.776  17.880  0.00  0.00    +0.000 A 
ATOM     14  H   UNL     1       5.122   7.095  18.956  0.00  0.00    +0.000 HD
ENDROOT
BRANCH   1  15
ATOM     15  N   UNL     1       3.028   6.289  19.661  0.00  0.00    +0.000 N 
ATOM     16  H   UNL     1       4.016   6.523  19.613  0.00  0.00    +0.000 HD
BRANCH  15  22
ATOM     17 BR   UNL     1      -0.093   9.699  22.263  0.00  0.00    +0.000 Br
ATOM     18  C   UNL     1       0.806   9.098  20.712  0.00  0.00    +0.000 A 
ATOM     19  C   UNL     1       0.741   9.847  19.541  0.00  0.00    +0.000 A 
ATOM     20  C   UNL     1       1.426   9.409  18.410  0.00  0.00    +0.000 A 
ATOM     21  C   UNL     1       2.165   8.222  18.449  0.00  0.00    +0.000 A 
ATOM     22  C   UNL     1       2.204   7.441  19.611  0.00  0.00    +0.000 A 
ATOM     23  C   UNL     1       1.540   7.912  20.754  0.00  0.00    +0.000 A 
ENDBRANCH  15  22
ENDBRANCH   1  15
TORSDOF 2
ENDMDL
MODEL 5
REMARK VINA RESULT:      -7.3      1.087      1.502
REMARK  Name = 
REMARK  2 active torsions:
REMARK  status: ('A' for Active; 'I' for Inactive)
REMARK    1  A    between atoms: C_6  and  N_7
REMARK    2  A    between atoms: N_7  and  C_8
REMARK                            x       y       z     vdW  Elec       q    Type
REMARK                         _______ _______ _______ _____ _____    ______ ____
ROOT
ATOM      1  C   UNL     1       2.226   5.820  19.853  0.00  0.00    +0.000 A 
ATOM      2  N   UNL     1       1.318   5.279  20.684  0.00  0.00    +0.000 NA
ATOM      3  C   UNL     1       0.985   4.004  20.462  0.00  0.00    +0.000 A 
ATOM      4  N   UNL     1       1.472   3.212  19.499  0.00  0.00    +0.000 NA
ATOM      5  C   UNL     1       2.373   3.752  18.674  0.00  0.00    +0.000 A 
ATOM      6  C   UNL     1       2.928   2.955  17.686  0.00  0.00    +0.000 A 
ATOM      7  C   UNL     1       3.881   3.434  16.775  0.00  0.00    +0.000 A 
ATOM      8  C   UNL     1       4.294   4.773  16.858  0.00  0.00    +0.000 A 
ATOM      9  C   UNL     1       5.207   5.571  16.118  0.00  0.00    +0.000 A 
ATOM     10  C   UNL     1       5.215   6.828  16.679  0.00  0.00    +0.000 A 
ATOM     11  N   UNL     1       4.361   6.810  17.748  0.00  0.00    +0.000 N 
ATOM     12  C   UNL     1       3.752   5.578  17.861  0.00  0.00    +0.000 A 
ATOM     13  C   UNL     1       2.783   5.089  18.789  0.00  0.00    +0.000 A 
ATOM     14  H   UNL     1       4.202   7.580  18.387  0.00  0.00    +0.000 HD
ENDROOT
BRANCH   1  15
ATOM     15  N   UNL     1       2.575   7.187  20.038  0.00  0.00    +0.000 N 
ATOM     16  H   UNL     1       3.170   7.456  19.260  0.00  0.00    +0.000 HD
BRANCH  15  22
ATOM     17 BR   UNL     1      -0.883  10.868  18.415  0.00  0.00    +0.000 Br
ATOM     18  C   UNL     1       0.007   9.881  19.761  0.00  0.00    +0.000 A 
ATOM     19  C   UNL     1      -0.317  10.088  21.098  0.00  0.00    +0.000 A 
ATOM     20  C   UNL     1       0.326   9.340  22.082  0.00  0.00    +0.000 A 
ATOM     21  C   UNL     1       1.296   8.396  21.727  0.00  0.00    +0.000 A 
ATOM     22  C   UNL     1       1.657   8.208  20.387  0.00  0.00    +0.000 A 
ATOM     23  C   UNL     1       0.975   8.942  19.404  0.00  0.00    +0.000 A 
ENDBRANCH  15  22
ENDBRANCH   1  15
TORSDOF 2
ENDMDL
MODEL 6
REMARK VINA RESULT:      -7.3      2.873      5.447
REMARK  Name = 
REMARK  2 active torsions:
REMARK  status: ('A' for Active; 'I' for Inactive)
REMARK    1  A    between atoms: C_6  and  N_7
REMARK    2  A    between atoms: N_7  and  C_8
REMARK                            x       y       z     vdW  Elec       q    Type
REMARK                         _______ _______ _______ _____ _____    ______ ____
ROOT
ATOM      1  C   UNL     1       3.859   4.103  17.675  0.00  0.00    +0.000 A 
ATOM      2  N   UNL     1       4.198   2.910  17.157  0.00  0.00    +0.000 NA
ATOM      3  C   UNL     1       3.580   1.839  17.662  0.00  0.00    +0.000 A 
ATOM      4  N   UNL     1       2.654   1.838  18.628  0.00  0.00    +0.000 NA
ATOM      5  C   UNL     1       2.319   3.024  19.142  0.00  0.00    +0.000 A 
ATOM      6  C   UNL     1       1.337   3.070  20.119  0.00  0.00    +0.000 A 
ATOM      7  C   UNL     1       0.921   4.269  20.716  0.00  0.00    +0.000 A 
ATOM      8  C   UNL     1       1.518   5.476  20.316  0.00  0.00    +0.000 A 
ATOM      9  C   UNL     1       1.351   6.833  20.701  0.00  0.00    +0.000 A 
ATOM     10  C   UNL     1       2.208   7.593  19.939  0.00  0.00    +0.000 A 
ATOM     11  N   UNL     1       2.867   6.747  19.088  0.00  0.00    +0.000 N 
ATOM     12  C   UNL     1       2.495   5.439  19.321  0.00  0.00    +0.000 A 
ATOM     13  C   UNL     1       2.918   4.219  18.713  0.00  0.00    +0.000 A 
ATOM     14  H   UNL     1       3.525   7.028  18.371  0.00  0.00    +0.000 HD
ENDROOT
BRANCH   1  15
ATOM     15  N   UNL     1       4.525   5.261  17.185  0.00  0.00    +0.000 N 
ATOM     16  H   UNL     1       3.840   6.010  17.144  0.00  0.00    +0.000 HD
BRANCH  15  22
ATOM     17 BR   UNL     1       7.992   9.257  17.577  0.00  0.00    +0.000 Br
ATOM     18  C   UNL     1       7.423   7.490  17.937  0.00  0.00    +0.000 A 
ATOM     19  C   UNL     1       8.200   6.665  18.745  0.00  0.00    +0.000 A 
ATOM     20  C   UNL     1       7.761   5.372  19.024  0.00  0.00    +0.000 A 
ATOM     21  C   UNL     1       6.555   4.906  18.490  0.00  0.00    +0.000 A 
ATOM     22  C   UNL     1       5.786   5.715  17.644  0.00  0.00    +0.000 A 
ATOM     23  C   UNL     1       6.221   7.028  17.401  0.00  0.00    +0.000 A 
ENDBRANCH  15  22
ENDBRANCH   1  15
TORSDOF 2
ENDMDL
MODEL 7
REMARK VINA RESULT:      -7.1      3.107      6.705
REMARK  Name = 
REMARK  2 active torsions:
REMARK  status: ('A' for Active; 'I' for Inactive)
REMARK    1  A    between atoms: C_6  and  N_7
REMARK    2  A    between atoms: N_7  and  C_8
REMARK                            x       y       z     vdW  Elec       q    Type
REMARK                         _______ _______ _______ _____ _____    ______ ____
ROOT
ATOM      1  C   UNL     1       2.047   7.700  19.627  0.00  0.00    +0.000 A 
ATOM      2  N   UNL     1       2.633   7.416  18.451  0.00  0.00    +0.000 NA
ATOM      3  C   UNL     1       2.546   8.347  17.496  0.00  0.00    +0.000 A 
ATOM      4  N   UNL     1       1.938   9.535  17.598  0.00  0.00    +0.000 NA
ATOM      5  C   UNL     1       1.356   9.815  18.767  0.00  0.00    +0.000 A 
ATOM      6  C   UNL     1       0.747  11.049  18.926  0.00  0.00    +0.000 A 
ATOM      7  C   UNL     1       0.111  11.430  20.117  0.00  0.00    +0.000 A 
ATOM      8  C   UNL     1       0.083  10.532  21.195  0.00  0.00    +0.000 A 
ATOM      9  C   UNL     1      -0.462  10.583  22.506  0.00  0.00    +0.000 A 
ATOM     10  C   UNL     1      -0.157   9.396  23.133  0.00  0.00    +0.000 A 
ATOM     11  N   UNL     1       0.577   8.642  22.258  0.00  0.00    +0.000 N 
ATOM     12  C   UNL     1       0.708   9.294  21.049  0.00  0.00    +0.000 A 
ATOM     13  C   UNL     1       1.356   8.906  19.837  0.00  0.00    +0.000 A 
ATOM     14  H   UNL     1       0.989   7.739  22.460  0.00  0.00    +0.000 HD
ENDROOT
BRANCH   1  15
ATOM     15  N   UNL     1       2.090   6.715  20.652  0.00  0.00    +0.000 N 
ATOM     16  H   UNL     1       1.460   7.018  21.390  0.00  0.00    +0.000 HD
BRANCH  15  22
ATOM     17 BR   UNL     1       4.653   2.098  20.150  0.00  0.00    +0.000 Br
ATOM     18  C   UNL     1       3.077   3.139  20.240  0.00  0.00    +0.000 A 
ATOM     19  C   UNL     1       1.834   2.517  20.188  0.00  0.00    +0.000 A 
ATOM     20  C   UNL     1       0.678   3.289  20.279  0.00  0.00    +0.000 A 
ATOM     21  C   UNL     1       0.768   4.679  20.413  0.00  0.00    +0.000 A 
ATOM     22  C   UNL     1       2.014   5.318  20.427  0.00  0.00    +0.000 A 
ATOM     23  C   UNL     1       3.171   4.525  20.371  0.00  0.00    +0.000 A 
ENDBRANCH  15  22
ENDBRANCH   1  15
TORSDOF 2
ENDMDL
MODEL 8
REMARK VINA RESULT:      -7.1      3.627      6.324
REMARK  Name = 
REMARK  2 active torsions:
REMARK  status: ('A' for Active; 'I' for Inactive)
REMARK    1  A    between atoms: C_6  and  N_7
REMARK    2  A    between atoms: N_7  and  C_8
REMARK                            x       y       z     vdW  Elec       q    Type
REMARK                         _______ _______ _______ _____ _____    ______ ____
ROOT
ATOM      1  C   UNL     1       3.327   3.486  17.692  0.00  0.00    +0.000 A 
ATOM      2  N   UNL     1       3.518   2.158  17.787  0.00  0.00    +0.000 NA
ATOM      3  C   UNL     1       3.253   1.597  18.970  0.00  0.00    +0.000 A 
ATOM      4  N   UNL     1       2.811   2.224  20.066  0.00  0.00    +0.000 NA
ATOM      5  C   UNL     1       2.622   3.543  19.970  0.00  0.00    +0.000 A 
ATOM      6  C   UNL     1       2.130   4.224  21.072  0.00  0.00    +0.000 A 
ATOM      7  C   UNL     1       1.900   5.608  21.064  0.00  0.00    +0.000 A 
ATOM      8  C   UNL     1       2.179   6.341  19.899  0.00  0.00    +0.000 A 
ATOM      9  C   UNL     1       2.075   7.714  19.550  0.00  0.00    +0.000 A 
ATOM     10  C   UNL     1       2.477   7.845  18.241  0.00  0.00    +0.000 A 
ATOM     11  N   UNL     1       2.793   6.597  17.777  0.00  0.00    +0.000 N 
ATOM     12  C   UNL     1       2.658   5.659  18.781  0.00  0.00    +0.000 A 
ATOM     13  C   UNL     1       2.891   4.251  18.788  0.00  0.00    +0.000 A 
ATOM     14  H   UNL     1       3.072   6.374  16.830  0.00  0.00    +0.000 HD
ENDROOT
BRANCH   1  15
ATOM     15  N   UNL     1       3.635   4.121  16.457  0.00  0.00    +0.000 N 
ATOM     16  H   UNL     1       3.073   4.966  16.403  0.00  0.00    +0.000 HD
BRANCH  15  22
ATOM     17 BR   UNL     1       6.944   3.996  12.313  0.00  0.00    +0.000 Br
ATOM     18  C   UNL     1       6.539   4.358  14.124  0.00  0.00    +0.000 A 
ATOM     19  C   UNL     1       7.507   4.921  14.950  0.00  0.00    +0.000 A 
ATOM     20  C   UNL     1       7.192   5.206  16.278  0.00  0.00    +0.000 A 
ATOM     21  C   UNL     1       5.916   4.922  16.776  0.00  0.00    +0.000 A 
ATOM     22  C   UNL     1       4.948   4.320  15.963  0.00  0.00    +0.000 A 
ATOM     23  C   UNL     1       5.266   4.071  14.619  0.00  0.00    +0.000 A 
ENDBRANCH  15  22
ENDBRANCH   1  15
TORSDOF 2
ENDMDL
MODEL 9
REMARK VINA RESULT:      -7.1      3.925      6.893
REMARK  Name = 
REMARK  2 active torsions:
REMARK  status: ('A' for Active; 'I' for Inactive)
REMARK    1  A    between atoms: C_6  and  N_7
REMARK    2  A    between atoms: N_7  and  C_8
REMARK                            x       y       z     vdW  Elec       q    Type
REMARK                         _______ _______ _______ _____ _____    ______ ____
ROOT
ATOM      1  C   UNL     1       4.656   5.532  17.635  0.00  0.00    +0.000 A 
ATOM      2  N   UNL     1       4.527   6.700  16.982  0.00  0.00    +0.000 NA
ATOM      3  C   UNL     1       3.561   7.520  17.407  0.00  0.00    +0.000 A 
ATOM      4  N   UNL     1       2.716   7.296  18.420  0.00  0.00    +0.000 NA
ATOM      5  C   UNL     1       2.846   6.134  19.067  0.00  0.00    +0.000 A 
ATOM      6  C   UNL     1       2.015   5.879  20.145  0.00  0.00    +0.000 A 
ATOM      7  C   UNL     1       2.079   4.688  20.883  0.00  0.00    +0.000 A 
ATOM      8  C   UNL     1       3.018   3.708  20.521  0.00  0.00    +0.000 A 
ATOM      9  C   UNL     1       3.345   2.422  21.027  0.00  0.00    +0.000 A 
ATOM     10  C   UNL     1       4.382   1.926  20.271  0.00  0.00    +0.000 A 
ATOM     11  N   UNL     1       4.713   2.878  19.345  0.00  0.00    +0.000 N 
ATOM     12  C   UNL     1       3.870   3.965  19.447  0.00  0.00    +0.000 A 
ATOM     13  C   UNL     1       3.805   5.178  18.697  0.00  0.00    +0.000 A 
ATOM     14  H   UNL     1       5.476   2.815  18.683  0.00  0.00    +0.000 HD
ENDROOT
BRANCH   1  15
ATOM     15  N   UNL     1       5.650   4.619  17.184  0.00  0.00    +0.000 N 
ATOM     16  H   UNL     1       5.403   3.701  17.542  0.00  0.00    +0.000 HD
BRANCH  15  22
ATOM     17 BR   UNL     1       4.808   3.220  12.137  0.00  0.00    +0.000 Br
ATOM     18  C   UNL     1       5.842   4.017  13.506  0.00  0.00    +0.000 A 
ATOM     19  C   UNL     1       7.045   4.640  13.190  0.00  0.00    +0.000 A 
ATOM     20  C   UNL     1       7.788   5.246  14.201  0.00  0.00    +0.000 A 
ATOM     21  C   UNL     1       7.332   5.219  15.523  0.00  0.00    +0.000 A 
ATOM     22  C   UNL     1       6.142   4.560  15.857  0.00  0.00    +0.000 A 
ATOM     23  C   UNL     1       5.385   3.986  14.824  0.00  0.00    +0.000 A 
ENDBRANCH  15  22
ENDBRANCH   1  15
TORSDOF 2
ENDMDL
