MODEL 1
REMARK VINA RESULT:      -8.0      0.000      0.000
REMARK  Name = 
REMARK  7 active torsions:
REMARK  status: ('A' for Active; 'I' for Inactive)
REMARK    1  A    between atoms: C_2  and  C_3
REMARK    2  A    between atoms: C_3  and  S_4
REMARK    3  A    between atoms: S_4  and  C_5
REMARK    4  A    between atoms: C_8  and  C_9
REMARK    5  A    between atoms: C_9  and  N_10
REMARK    6  A    between atoms: C_11  and  C_13
REMARK    7  A    between atoms: N_19  and  C_20
REMARK                            x       y       z     vdW  Elec       q    Type
REMARK                         _______ _______ _______ _____ _____    ______ ____
ROOT
ATOM      1  C   UNL     1       4.956   3.978  19.056  0.00  0.00    +0.000 A 
ATOM      2  N   UNL     1       5.820   4.621  19.817  0.00  0.00    +0.000 NA
ATOM      3  N   UNL     1       6.282   5.690  19.076  0.00  0.00    +0.000 NA
ATOM      4  C   UNL     1       5.673   5.624  17.911  0.00  0.00    +0.000 A 
ATOM      5  O   UNL     1       4.820   4.555  17.820  0.00  0.00    +0.000 OA
ENDROOT
BRANCH   1   6
ATOM      6  S   UNL     1       4.064   2.576  19.551  0.00  0.00    +0.000 S 
BRANCH   6   7
ATOM      7  C   UNL     1       2.821   3.320  20.646  0.00  0.00    +0.000 C 
BRANCH   7   9
ATOM      8  O   UNL     1       1.229   4.318  19.164  0.00  0.00    +0.000 OA
ATOM      9  C   UNL     1       2.138   4.501  19.972  0.00  0.00    +0.000 C 
ATOM     10  N   UNL     1       2.658   5.734  20.339  0.00  0.00    +0.000 N 
ATOM     11  H   UNL     1       3.566   5.726  20.801  0.00  0.00    +0.000 HD
BRANCH  10  12
ATOM     12  C   UNL     1       2.198   6.994  19.902  0.00  0.00    +0.000 A 
ATOM     13  C   UNL     1       1.457   7.862  20.710  0.00  0.00    +0.000 A 
ATOM     14  C   UNL     1       0.987   9.077  20.201  0.00  0.00    +0.000 A 
ATOM     15  C   UNL     1       1.265   9.423  18.886  0.00  0.00    +0.000 A 
ATOM     16  F   UNL     1       0.793  10.574  18.390  0.00  0.00    +0.000 F 
ATOM     17  C   UNL     1       2.033   8.593  18.079  0.00  0.00    +0.000 A 
ATOM     18  C   UNL     1       2.508   7.381  18.591  0.00  0.00    +0.000 A 
ENDBRANCH  10  12
ENDBRANCH   7   9
ENDBRANCH   6   7
ENDBRANCH   1   6
BRANCH   4  19
ATOM     19  C   UNL     1       5.771   6.530  16.740  0.00  0.00    +0.000 C 
BRANCH  19  20
ATOM     20  N   UNL     1       5.648   5.794  15.501  0.00  0.00    +0.000 N 
ATOM     21  C   UNL     1       6.703   5.052  15.022  0.00  0.00    +0.000 C 
ATOM     22  O   UNL     1       7.777   4.979  15.618  0.00  0.00    +0.000 OA
ATOM     23  H   UNL     1       4.764   5.734  15.009  0.00  0.00    +0.000 HD
BRANCH  21  24
ATOM     24  C   UNL     1       6.439   4.380  13.766  0.00  0.00    +0.000 A 
ATOM     25  C   UNL     1       5.344   3.653  13.333  0.00  0.00    +0.000 A 
ATOM     26  C   UNL     1       5.645   3.197  12.027  0.00  0.00    +0.000 A 
ATOM     27  C   UNL     1       6.900   3.674  11.737  0.00  0.00    +0.000 A 
ATOM     28  O   UNL     1       7.390   4.398  12.776  0.00  0.00    +0.000 OA
ENDBRANCH  21  24
ENDBRANCH  19  20
ENDBRANCH   4  19
TORSDOF 7
ENDMDL
MODEL 2
REMARK VINA RESULT:      -7.9      1.372      1.548
REMARK  Name = 
REMARK  7 active torsions:
REMARK  status: ('A' for Active; 'I' for Inactive)
REMARK    1  A    between atoms: C_2  and  C_3
REMARK    2  A    between atoms: C_3  and  S_4
REMARK    3  A    between atoms: S_4  and  C_5
REMARK    4  A    between atoms: C_8  and  C_9
REMARK    5  A    between atoms: C_9  and  N_10
REMARK    6  A    between atoms: C_11  and  C_13
REMARK    7  A    between atoms: N_19  and  C_20
REMARK                            x       y       z     vdW  Elec       q    Type
REMARK                         _______ _______ _______ _____ _____    ______ ____
ROOT
ATOM      1  C   UNL     1       3.345   3.279  19.159  0.00  0.00    +0.000 A 
ATOM      2  N   UNL     1       2.772   3.194  17.974  0.00  0.00    +0.000 NA
ATOM      3  N   UNL     1       3.460   4.050  17.138  0.00  0.00    +0.000 NA
ATOM      4  C   UNL     1       4.403   4.604  17.869  0.00  0.00    +0.000 A 
ATOM      5  O   UNL     1       4.387   4.170  19.170  0.00  0.00    +0.000 OA
ENDROOT
BRANCH   1   6
ATOM      6  S   UNL     1       2.867   2.361  20.550  0.00  0.00    +0.000 S 
BRANCH   6   7
ATOM      7  C   UNL     1       2.280   3.680  21.653  0.00  0.00    +0.000 C 
BRANCH   7   9
ATOM      8  O   UNL     1       0.531   4.643  20.335  0.00  0.00    +0.000 OA
ATOM      9  C   UNL     1       1.631   4.804  20.861  0.00  0.00    +0.000 C 
ATOM     10  N   UNL     1       2.403   5.955  20.786  0.00  0.00    +0.000 N 
ATOM     11  H   UNL     1       3.387   5.862  21.033  0.00  0.00    +0.000 HD
BRANCH  10  12
ATOM     12  C   UNL     1       2.038   7.161  20.151  0.00  0.00    +0.000 A 
ATOM     13  C   UNL     1       1.300   8.168  20.781  0.00  0.00    +0.000 A 
ATOM     14  C   UNL     1       0.928   9.319  20.081  0.00  0.00    +0.000 A 
ATOM     15  C   UNL     1       1.299   9.463  18.751  0.00  0.00    +0.000 A 
ATOM     16  F   UNL     1       0.920  10.553  18.072  0.00  0.00    +0.000 F 
ATOM     17  C   UNL     1       2.065   8.493  18.117  0.00  0.00    +0.000 A 
ATOM     18  C   UNL     1       2.444   7.344  18.821  0.00  0.00    +0.000 A 
ENDBRANCH  10  12
ENDBRANCH   7   9
ENDBRANCH   6   7
ENDBRANCH   1   6
BRANCH   4  19
ATOM     19  C   UNL     1       5.451   5.581  17.482  0.00  0.00    +0.000 C 
BRANCH  19  20
ATOM     20  N   UNL     1       5.777   5.464  16.077  0.00  0.00    +0.000 N 
ATOM     21  C   UNL     1       6.930   4.827  15.679  0.00  0.00    +0.000 C 
ATOM     22  O   UNL     1       7.718   4.334  16.484  0.00  0.00    +0.000 OA
ATOM     23  H   UNL     1       5.128   5.764  15.358  0.00  0.00    +0.000 HD
BRANCH  21  24
ATOM     24  C   UNL     1       7.130   4.798  14.243  0.00  0.00    +0.000 A 
ATOM     25  C   UNL     1       6.571   4.001  13.261  0.00  0.00    +0.000 A 
ATOM     26  C   UNL     1       7.159   4.390  12.034  0.00  0.00    +0.000 A 
ATOM     27  C   UNL     1       8.038   5.402  12.336  0.00  0.00    +0.000 A 
ATOM     28  O   UNL     1       8.024   5.666  13.668  0.00  0.00    +0.000 OA
ENDBRANCH  21  24
ENDBRANCH  19  20
ENDBRANCH   4  19
TORSDOF 7
ENDMDL
MODEL 3
REMARK VINA RESULT:      -7.7      3.503      7.617
REMARK  Name = 
REMARK  7 active torsions:
REMARK  status: ('A' for Active; 'I' for Inactive)
REMARK    1  A    between atoms: C_2  and  C_3
REMARK    2  A    between atoms: C_3  and  S_4
REMARK    3  A    between atoms: S_4  and  C_5
REMARK    4  A    between atoms: C_8  and  C_9
REMARK    5  A    between atoms: C_9  and  N_10
REMARK    6  A    between atoms: C_11  and  C_13
REMARK    7  A    between atoms: N_19  and  C_20
REMARK                            x       y       z     vdW  Elec       q    Type
REMARK                         _______ _______ _______ _____ _____    ______ ____
ROOT
ATOM      1  C   UNL     1       1.926   3.596  19.527  0.00  0.00    +0.000 A 
ATOM      2  N   UNL     1       1.835   3.657  20.841  0.00  0.00    +0.000 NA
ATOM      3  N   UNL     1       2.006   4.981  21.191  0.00  0.00    +0.000 NA
ATOM      4  C   UNL     1       2.196   5.639  20.067  0.00  0.00    +0.000 A 
ATOM      5  O   UNL     1       2.168   4.823  18.965  0.00  0.00    +0.000 OA
ENDROOT
BRANCH   1   6
ATOM      6  S   UNL     1       1.742   2.147  18.594  0.00  0.00    +0.000 S 
BRANCH   6   7
ATOM      7  C   UNL     1       3.459   1.561  18.516  0.00  0.00    +0.000 C 
BRANCH   7   9
ATOM      8  O   UNL     1       4.977   2.851  19.840  0.00  0.00    +0.000 OA
ATOM      9  C   UNL     1       4.437   2.703  18.746  0.00  0.00    +0.000 C 
ATOM     10  N   UNL     1       4.608   3.526  17.641  0.00  0.00    +0.000 N 
ATOM     11  H   UNL     1       3.911   3.448  16.902  0.00  0.00    +0.000 HD
BRANCH  10  12
ATOM     12  C   UNL     1       5.476   4.634  17.557  0.00  0.00    +0.000 A 
ATOM     13  C   UNL     1       6.830   4.578  17.904  0.00  0.00    +0.000 A 
ATOM     14  C   UNL     1       7.626   5.725  17.845  0.00  0.00    +0.000 A 
ATOM     15  C   UNL     1       7.067   6.927  17.433  0.00  0.00    +0.000 A 
ATOM     16  F   UNL     1       7.824   8.032  17.401  0.00  0.00    +0.000 F 
ATOM     17  C   UNL     1       5.735   6.997  17.046  0.00  0.00    +0.000 A 
ATOM     18  C   UNL     1       4.941   5.846  17.098  0.00  0.00    +0.000 A 
ENDBRANCH  10  12
ENDBRANCH   7   9
ENDBRANCH   6   7
ENDBRANCH   1   6
BRANCH   4  19
ATOM     19  C   UNL     1       2.407   7.091  19.844  0.00  0.00    +0.000 C 
BRANCH  19  20
ATOM     20  N   UNL     1       1.625   7.879  20.772  0.00  0.00    +0.000 N 
ATOM     21  C   UNL     1       0.990   9.025  20.353  0.00  0.00    +0.000 C 
ATOM     22  O   UNL     1       1.053   9.421  19.190  0.00  0.00    +0.000 OA
ATOM     23  H   UNL     1       1.453   7.560  21.720  0.00  0.00    +0.000 HD
BRANCH  21  24
ATOM     24  C   UNL     1       0.255   9.715  21.395  0.00  0.00    +0.000 A 
ATOM     25  C   UNL     1      -0.360   9.245  22.541  0.00  0.00    +0.000 A 
ATOM     26  C   UNL     1      -0.957  10.363  23.173  0.00  0.00    +0.000 A 
ATOM     27  C   UNL     1      -0.668  11.448  22.381  0.00  0.00    +0.000 A 
ATOM     28  O   UNL     1       0.071  11.073  21.306  0.00  0.00    +0.000 OA
ENDBRANCH  21  24
ENDBRANCH  19  20
ENDBRANCH   4  19
TORSDOF 7
ENDMDL
MODEL 4
REMARK VINA RESULT:      -7.7      1.406      1.821
REMARK  Name = 
REMARK  7 active torsions:
REMARK  status: ('A' for Active; 'I' for Inactive)
REMARK    1  A    between atoms: C_2  and  C_3
REMARK    2  A    between atoms: C_3  and  S_4
REMARK    3  A    between atoms: S_4  and  C_5
REMARK    4  A    between atoms: C_8  and  C_9
REMARK    5  A    between atoms: C_9  and  N_10
REMARK    6  A    between atoms: C_11  and  C_13
REMARK    7  A    between atoms: N_19  and  C_20
REMARK                            x       y       z     vdW  Elec       q    Type
REMARK                         _______ _______ _______ _____ _____    ______ ____
ROOT
ATOM      1  C   UNL     1       3.831   3.321  19.392  0.00  0.00    +0.000 A 
ATOM      2  N   UNL     1       3.186   3.871  18.382  0.00  0.00    +0.000 NA
ATOM      3  N   UNL     1       4.141   4.435  17.560  0.00  0.00    +0.000 NA
ATOM      4  C   UNL     1       5.305   4.195  18.127  0.00  0.00    +0.000 A 
ATOM      5  O   UNL     1       5.187   3.499  19.302  0.00  0.00    +0.000 OA
ENDROOT
BRANCH   1   6
ATOM      6  S   UNL     1       3.072   2.448  20.684  0.00  0.00    +0.000 S 
BRANCH   6   7
ATOM      7  C   UNL     1       2.468   3.812  21.720  0.00  0.00    +0.000 C 
BRANCH   7   9
ATOM      8  O   UNL     1       0.645   4.640  20.409  0.00  0.00    +0.000 OA
ATOM      9  C   UNL     1       1.759   4.863  20.878  0.00  0.00    +0.000 C 
ATOM     10  N   UNL     1       2.497   6.024  20.693  0.00  0.00    +0.000 N 
ATOM     11  H   UNL     1       3.492   5.971  20.907  0.00  0.00    +0.000 HD
BRANCH  10  12
ATOM     12  C   UNL     1       2.077   7.173  19.992  0.00  0.00    +0.000 A 
ATOM     13  C   UNL     1       2.364   7.396  18.642  0.00  0.00    +0.000 A 
ATOM     14  C   UNL     1       1.961   8.581  18.016  0.00  0.00    +0.000 A 
ATOM     15  C   UNL     1       1.265   9.537  18.743  0.00  0.00    +0.000 A 
ATOM     16  F   UNL     1       0.902  10.682  18.152  0.00  0.00    +0.000 F 
ATOM     17  C   UNL     1       0.935   9.318  20.074  0.00  0.00    +0.000 A 
ATOM     18  C   UNL     1       1.333   8.130  20.697  0.00  0.00    +0.000 A 
ENDBRANCH  10  12
ENDBRANCH   7   9
ENDBRANCH   6   7
ENDBRANCH   1   6
BRANCH   4  19
ATOM     19  C   UNL     1       6.671   4.548  17.669  0.00  0.00    +0.000 C 
BRANCH  19  20
ATOM     20  N   UNL     1       6.857   4.208  16.275  0.00  0.00    +0.000 N 
ATOM     21  C   UNL     1       6.528   5.107  15.287  0.00  0.00    +0.000 C 
ATOM     22  O   UNL     1       6.075   6.222  15.540  0.00  0.00    +0.000 OA
ATOM     23  H   UNL     1       7.313   3.345  15.999  0.00  0.00    +0.000 HD
BRANCH  21  24
ATOM     24  C   UNL     1       6.757   4.624  13.939  0.00  0.00    +0.000 A 
ATOM     25  C   UNL     1       7.642   5.037  12.960  0.00  0.00    +0.000 A 
ATOM     26  C   UNL     1       7.405   4.226  11.825  0.00  0.00    +0.000 A 
ATOM     27  C   UNL     1       6.394   3.364  12.176  0.00  0.00    +0.000 A 
ATOM     28  O   UNL     1       5.998   3.587  13.456  0.00  0.00    +0.000 OA
ENDBRANCH  21  24
ENDBRANCH  19  20
ENDBRANCH   4  19
TORSDOF 7
ENDMDL
MODEL 5
REMARK VINA RESULT:      -7.4      4.790      6.737
REMARK  Name = 
REMARK  7 active torsions:
REMARK  status: ('A' for Active; 'I' for Inactive)
REMARK    1  A    between atoms: C_2  and  C_3
REMARK    2  A    between atoms: C_3  and  S_4
REMARK    3  A    between atoms: S_4  and  C_5
REMARK    4  A    between atoms: C_8  and  C_9
REMARK    5  A    between atoms: C_9  and  N_10
REMARK    6  A    between atoms: C_11  and  C_13
REMARK    7  A    between atoms: N_19  and  C_20
REMARK                            x       y       z     vdW  Elec       q    Type
REMARK                         _______ _______ _______ _____ _____    ______ ____
ROOT
ATOM      1  C   UNL     1       7.073   5.481  17.361  0.00  0.00    +0.000 A 
ATOM      2  N   UNL     1       7.740   5.468  18.498  0.00  0.00    +0.000 NA
ATOM      3  N   UNL     1       8.100   6.774  18.762  0.00  0.00    +0.000 NA
ATOM      4  C   UNL     1       7.632   7.496  17.766  0.00  0.00    +0.000 A 
ATOM      5  O   UNL     1       6.974   6.741  16.829  0.00  0.00    +0.000 OA
ENDROOT
BRANCH   1   6
ATOM      6  S   UNL     1       6.370   4.081  16.618  0.00  0.00    +0.000 S 
BRANCH   6   7
ATOM      7  C   UNL     1       4.734   4.717  16.151  0.00  0.00    +0.000 C 
BRANCH   7   9
ATOM      8  O   UNL     1       2.671   3.559  16.505  0.00  0.00    +0.000 OA
ATOM      9  C   UNL     1       3.644   4.108  17.019  0.00  0.00    +0.000 C 
ATOM     10  N   UNL     1       3.858   4.266  18.381  0.00  0.00    +0.000 N 
ATOM     11  H   UNL     1       4.552   4.959  18.656  0.00  0.00    +0.000 HD
BRANCH  10  12
ATOM     12  C   UNL     1       3.034   3.772  19.414  0.00  0.00    +0.000 A 
ATOM     13  C   UNL     1       1.692   4.134  19.566  0.00  0.00    +0.000 A 
ATOM     14  C   UNL     1       0.943   3.648  20.642  0.00  0.00    +0.000 A 
ATOM     15  C   UNL     1       1.538   2.794  21.561  0.00  0.00    +0.000 A 
ATOM     16  F   UNL     1       0.828   2.349  22.606  0.00  0.00    +0.000 F 
ATOM     17  C   UNL     1       2.858   2.391  21.407  0.00  0.00    +0.000 A 
ATOM     18  C   UNL     1       3.604   2.872  20.326  0.00  0.00    +0.000 A 
ENDBRANCH  10  12
ENDBRANCH   7   9
ENDBRANCH   6   7
ENDBRANCH   1   6
BRANCH   4  19
ATOM     19  C   UNL     1       7.704   8.961  17.543  0.00  0.00    +0.000 C 
BRANCH  19  20
ATOM     20  N   UNL     1       8.826   9.541  18.249  0.00  0.00    +0.000 N 
ATOM     21  C   UNL     1       9.056  10.896  18.200  0.00  0.00    +0.000 C 
ATOM     22  O   UNL     1       8.329  11.662  17.570  0.00  0.00    +0.000 OA
ATOM     23  H   UNL     1       9.408   8.982  18.863  0.00  0.00    +0.000 HD
BRANCH  21  24
ATOM     24  C   UNL     1      10.222  11.330  18.945  0.00  0.00    +0.000 A 
ATOM     25  C   UNL     1      10.369  11.721  20.264  0.00  0.00    +0.000 A 
ATOM     26  C   UNL     1      11.729  12.073  20.438  0.00  0.00    +0.000 A 
ATOM     27  C   UNL     1      12.333  11.873  19.220  0.00  0.00    +0.000 A 
ATOM     28  O   UNL     1      11.436  11.416  18.309  0.00  0.00    +0.000 OA
ENDBRANCH  21  24
ENDBRANCH  19  20
ENDBRANCH   4  19
TORSDOF 7
ENDMDL
MODEL 6
REMARK VINA RESULT:      -7.4      2.305      3.586
REMARK  Name = 
REMARK  7 active torsions:
REMARK  status: ('A' for Active; 'I' for Inactive)
REMARK    1  A    between atoms: C_2  and  C_3
REMARK    2  A    between atoms: C_3  and  S_4
REMARK    3  A    between atoms: S_4  and  C_5
REMARK    4  A    between atoms: C_8  and  C_9
REMARK    5  A    between atoms: C_9  and  N_10
REMARK    6  A    between atoms: C_11  and  C_13
REMARK    7  A    between atoms: N_19  and  C_20
REMARK                            x       y       z     vdW  Elec       q    Type
REMARK                         _______ _______ _______ _____ _____    ______ ____
ROOT
ATOM      1  C   UNL     1       2.687   2.730  18.923  0.00  0.00    +0.000 A 
ATOM      2  N   UNL     1       1.677   2.687  18.076  0.00  0.00    +0.000 NA
ATOM      3  N   UNL     1       2.121   3.253  16.898  0.00  0.00    +0.000 NA
ATOM      4  C   UNL     1       3.371   3.610  17.107  0.00  0.00    +0.000 A 
ATOM      5  O   UNL     1       3.799   3.318  18.377  0.00  0.00    +0.000 OA
ENDROOT
BRANCH   1   6
ATOM      6  S   UNL     1       2.643   2.102  20.538  0.00  0.00    +0.000 S 
BRANCH   6   7
ATOM      7  C   UNL     1       2.610   3.637  21.509  0.00  0.00    +0.000 C 
BRANCH   7   9
ATOM      8  O   UNL     1       0.691   4.627  20.480  0.00  0.00    +0.000 OA
ATOM      9  C   UNL     1       1.883   4.742  20.759  0.00  0.00    +0.000 C 
ATOM     10  N   UNL     1       2.692   5.818  20.422  0.00  0.00    +0.000 N 
ATOM     11  H   UNL     1       3.698   5.666  20.476  0.00  0.00    +0.000 HD
BRANCH  10  12
ATOM     12  C   UNL     1       2.279   6.993  19.760  0.00  0.00    +0.000 A 
ATOM     13  C   UNL     1       1.584   8.027  20.394  0.00  0.00    +0.000 A 
ATOM     14  C   UNL     1       1.159   9.145  19.670  0.00  0.00    +0.000 A 
ATOM     15  C   UNL     1       1.437   9.229  18.312  0.00  0.00    +0.000 A 
ATOM     16  F   UNL     1       1.007  10.287  17.613  0.00  0.00    +0.000 F 
ATOM     17  C   UNL     1       2.161   8.231  17.671  0.00  0.00    +0.000 A 
ATOM     18  C   UNL     1       2.591   7.116  18.398  0.00  0.00    +0.000 A 
ENDBRANCH  10  12
ENDBRANCH   7   9
ENDBRANCH   6   7
ENDBRANCH   1   6
BRANCH   4  19
ATOM     19  C   UNL     1       4.343   4.242  16.181  0.00  0.00    +0.000 C 
BRANCH  19  20
ATOM     20  N   UNL     1       5.381   4.937  16.910  0.00  0.00    +0.000 N 
ATOM     21  C   UNL     1       5.705   6.236  16.596  0.00  0.00    +0.000 C 
ATOM     22  O   UNL     1       5.133   6.856  15.700  0.00  0.00    +0.000 OA
ATOM     23  H   UNL     1       5.826   4.519  17.720  0.00  0.00    +0.000 HD
BRANCH  21  24
ATOM     24  C   UNL     1       6.771   6.798  17.402  0.00  0.00    +0.000 A 
ATOM     25  C   UNL     1       7.393   8.033  17.360  0.00  0.00    +0.000 A 
ATOM     26  C   UNL     1       8.391   8.023  18.363  0.00  0.00    +0.000 A 
ATOM     27  C   UNL     1       8.318   6.789  18.963  0.00  0.00    +0.000 A 
ATOM     28  O   UNL     1       7.336   6.040  18.397  0.00  0.00    +0.000 OA
ENDBRANCH  21  24
ENDBRANCH  19  20
ENDBRANCH   4  19
TORSDOF 7
ENDMDL
MODEL 7
REMARK VINA RESULT:      -7.3      1.448      1.701
REMARK  Name = 
REMARK  7 active torsions:
REMARK  status: ('A' for Active; 'I' for Inactive)
REMARK    1  A    between atoms: C_2  and  C_3
REMARK    2  A    between atoms: C_3  and  S_4
REMARK    3  A    between atoms: S_4  and  C_5
REMARK    4  A    between atoms: C_8  and  C_9
REMARK    5  A    between atoms: C_9  and  N_10
REMARK    6  A    between atoms: C_11  and  C_13
REMARK    7  A    between atoms: N_19  and  C_20
REMARK                            x       y       z     vdW  Elec       q    Type
REMARK                         _______ _______ _______ _____ _____    ______ ____
ROOT
ATOM      1  C   UNL     1       3.696   2.795  19.789  0.00  0.00    +0.000 A 
ATOM      2  N   UNL     1       3.390   2.091  18.717  0.00  0.00    +0.000 NA
ATOM      3  N   UNL     1       3.889   2.783  17.632  0.00  0.00    +0.000 NA
ATOM      4  C   UNL     1       4.461   3.866  18.114  0.00  0.00    +0.000 A 
ATOM      5  O   UNL     1       4.370   3.948  19.480  0.00  0.00    +0.000 OA
ENDROOT
BRANCH   1   6
ATOM      6  S   UNL     1       3.319   2.325  21.414  0.00  0.00    +0.000 S 
BRANCH   6   7
ATOM      7  C   UNL     1       1.606   2.912  21.560  0.00  0.00    +0.000 C 
BRANCH   7   9
ATOM      8  O   UNL     1       0.653   3.961  19.633  0.00  0.00    +0.000 OA
ATOM      9  C   UNL     1       1.354   4.092  20.634  0.00  0.00    +0.000 C 
ATOM     10  N   UNL     1       1.999   5.257  21.024  0.00  0.00    +0.000 N 
ATOM     11  H   UNL     1       2.747   5.158  21.709  0.00  0.00    +0.000 HD
BRANCH  10  12
ATOM     12  C   UNL     1       1.916   6.509  20.379  0.00  0.00    +0.000 A 
ATOM     13  C   UNL     1       1.281   7.622  20.940  0.00  0.00    +0.000 A 
ATOM     14  C   UNL     1       1.189   8.821  20.227  0.00  0.00    +0.000 A 
ATOM     15  C   UNL     1       1.739   8.907  18.956  0.00  0.00    +0.000 A 
ATOM     16  F   UNL     1       1.628  10.048  18.263  0.00  0.00    +0.000 F 
ATOM     17  C   UNL     1       2.408   7.826  18.395  0.00  0.00    +0.000 A 
ATOM     18  C   UNL     1       2.506   6.629  19.112  0.00  0.00    +0.000 A 
ENDBRANCH  10  12
ENDBRANCH   7   9
ENDBRANCH   6   7
ENDBRANCH   1   6
BRANCH   4  19
ATOM     19  C   UNL     1       5.179   4.954  17.404  0.00  0.00    +0.000 C 
BRANCH  19  20
ATOM     20  N   UNL     1       5.414   4.605  16.020  0.00  0.00    +0.000 N 
ATOM     21  C   UNL     1       6.637   4.846  15.437  0.00  0.00    +0.000 C 
ATOM     22  O   UNL     1       7.570   5.354  16.058  0.00  0.00    +0.000 OA
ATOM     23  H   UNL     1       4.722   4.098  15.479  0.00  0.00    +0.000 HD
BRANCH  21  24
ATOM     24  C   UNL     1       6.721   4.456  14.044  0.00  0.00    +0.000 A 
ATOM     25  C   UNL     1       7.607   4.822  13.046  0.00  0.00    +0.000 A 
ATOM     26  C   UNL     1       7.192   4.158  11.867  0.00  0.00    +0.000 A 
ATOM     27  C   UNL     1       6.084   3.423  12.212  0.00  0.00    +0.000 A 
ATOM     28  O   UNL     1       5.792   3.587  13.528  0.00  0.00    +0.000 OA
ENDBRANCH  21  24
ENDBRANCH  19  20
ENDBRANCH   4  19
TORSDOF 7
ENDMDL
MODEL 8
REMARK VINA RESULT:      -7.3      5.013      7.185
REMARK  Name = 
REMARK  7 active torsions:
REMARK  status: ('A' for Active; 'I' for Inactive)
REMARK    1  A    between atoms: C_2  and  C_3
REMARK    2  A    between atoms: C_3  and  S_4
REMARK    3  A    between atoms: S_4  and  C_5
REMARK    4  A    between atoms: C_8  and  C_9
REMARK    5  A    between atoms: C_9  and  N_10
REMARK    6  A    between atoms: C_11  and  C_13
REMARK    7  A    between atoms: N_19  and  C_20
REMARK                            x       y       z     vdW  Elec       q    Type
REMARK                         _______ _______ _______ _____ _____    ______ ____
ROOT
ATOM      1  C   UNL     1       7.351   5.947  17.311  0.00  0.00    +0.000 A 
ATOM      2  N   UNL     1       7.779   5.956  18.558  0.00  0.00    +0.000 NA
ATOM      3  N   UNL     1       8.195   7.245  18.826  0.00  0.00    +0.000 NA
ATOM      4  C   UNL     1       7.997   7.935  17.722  0.00  0.00    +0.000 A 
ATOM      5  O   UNL     1       7.471   7.174  16.710  0.00  0.00    +0.000 OA
ENDROOT
BRANCH   1   6
ATOM      6  S   UNL     1       6.686   4.561  16.510  0.00  0.00    +0.000 S 
BRANCH   6   7
ATOM      7  C   UNL     1       4.994   5.129  16.175  0.00  0.00    +0.000 C 
BRANCH   7   9
ATOM      8  O   UNL     1       3.855   6.112  18.035  0.00  0.00    +0.000 OA
ATOM      9  C   UNL     1       4.143   5.079  17.435  0.00  0.00    +0.000 C 
ATOM     10  N   UNL     1       3.779   3.795  17.815  0.00  0.00    +0.000 N 
ATOM     11  H   UNL     1       4.298   3.028  17.388  0.00  0.00    +0.000 HD
BRANCH  10  12
ATOM     12  C   UNL     1       2.965   3.452  18.915  0.00  0.00    +0.000 A 
ATOM     13  C   UNL     1       1.575   3.601  18.918  0.00  0.00    +0.000 A 
ATOM     14  C   UNL     1       0.830   3.290  20.060  0.00  0.00    +0.000 A 
ATOM     15  C   UNL     1       1.479   2.823  21.195  0.00  0.00    +0.000 A 
ATOM     16  F   UNL     1       0.768   2.550  22.297  0.00  0.00    +0.000 F 
ATOM     17  C   UNL     1       2.854   2.631  21.201  0.00  0.00    +0.000 A 
ATOM     18  C   UNL     1       3.598   2.936  20.055  0.00  0.00    +0.000 A 
ENDBRANCH  10  12
ENDBRANCH   7   9
ENDBRANCH   6   7
ENDBRANCH   1   6
BRANCH   4  19
ATOM     19  C   UNL     1       8.241   9.373  17.449  0.00  0.00    +0.000 C 
BRANCH  19  20
ATOM     20  N   UNL     1       8.607  10.078  18.658  0.00  0.00    +0.000 N 
ATOM     21  C   UNL     1       8.943  11.411  18.614  0.00  0.00    +0.000 C 
ATOM     22  O   UNL     1       8.942  12.053  17.565  0.00  0.00    +0.000 OA
ATOM     23  H   UNL     1       8.537   9.636  19.567  0.00  0.00    +0.000 HD
BRANCH  21  24
ATOM     24  C   UNL     1       9.298  11.980  19.899  0.00  0.00    +0.000 A 
ATOM     25  C   UNL     1       9.049  11.545  21.189  0.00  0.00    +0.000 A 
ATOM     26  C   UNL     1       9.601  12.514  22.061  0.00  0.00    +0.000 A 
ATOM     27  C   UNL     1      10.158  13.479  21.256  0.00  0.00    +0.000 A 
ATOM     28  O   UNL     1       9.990  13.165  19.946  0.00  0.00    +0.000 OA
ENDBRANCH  21  24
ENDBRANCH  19  20
ENDBRANCH   4  19
TORSDOF 7
ENDMDL
MODEL 9
REMARK VINA RESULT:      -7.3      0.992      1.482
REMARK  Name = 
REMARK  7 active torsions:
REMARK  status: ('A' for Active; 'I' for Inactive)
REMARK    1  A    between atoms: C_2  and  C_3
REMARK    2  A    between atoms: C_3  and  S_4
REMARK    3  A    between atoms: S_4  and  C_5
REMARK    4  A    between atoms: C_8  and  C_9
REMARK    5  A    between atoms: C_9  and  N_10
REMARK    6  A    between atoms: C_11  and  C_13
REMARK    7  A    between atoms: N_19  and  C_20
REMARK                            x       y       z     vdW  Elec       q    Type
REMARK                         _______ _______ _______ _____ _____    ______ ____
ROOT
ATOM      1  C   UNL     1       4.359   3.679  19.303  0.00  0.00    +0.000 A 
ATOM      2  N   UNL     1       5.656   3.687  19.536  0.00  0.00    +0.000 NA
ATOM      3  N   UNL     1       6.191   4.702  18.768  0.00  0.00    +0.000 NA
ATOM      4  C   UNL     1       5.184   5.241  18.113  0.00  0.00    +0.000 A 
ATOM      5  O   UNL     1       3.986   4.636  18.395  0.00  0.00    +0.000 OA
ENDROOT
BRANCH   1   6
ATOM      6  S   UNL     1       3.230   2.605  20.064  0.00  0.00    +0.000 S 
BRANCH   6   7
ATOM      7  C   UNL     1       2.526   3.687  21.342  0.00  0.00    +0.000 C 
BRANCH   7   9
ATOM      8  O   UNL     1       0.611   4.640  20.270  0.00  0.00    +0.000 OA
ATOM      9  C   UNL     1       1.741   4.830  20.717  0.00  0.00    +0.000 C 
ATOM     10  N   UNL     1       2.431   6.034  20.688  0.00  0.00    +0.000 N 
ATOM     11  H   UNL     1       3.437   5.987  20.844  0.00  0.00    +0.000 HD
BRANCH  10  12
ATOM     12  C   UNL     1       1.938   7.263  20.203  0.00  0.00    +0.000 A 
ATOM     13  C   UNL     1       2.182   7.731  18.908  0.00  0.00    +0.000 A 
ATOM     14  C   UNL     1       1.706   8.982  18.504  0.00  0.00    +0.000 A 
ATOM     15  C   UNL     1       0.981   9.761  19.395  0.00  0.00    +0.000 A 
ATOM     16  F   UNL     1       0.548  10.970  19.017  0.00  0.00    +0.000 F 
ATOM     17  C   UNL     1       0.693   9.298  20.673  0.00  0.00    +0.000 A 
ATOM     18  C   UNL     1       1.164   8.043  21.074  0.00  0.00    +0.000 A 
ENDBRANCH  10  12
ENDBRANCH   7   9
ENDBRANCH   6   7
ENDBRANCH   1   6
BRANCH   4  19
ATOM     19  C   UNL     1       5.174   6.383  17.165  0.00  0.00    +0.000 C 
BRANCH  19  20
ATOM     20  N   UNL     1       5.853   6.043  15.934  0.00  0.00    +0.000 N 
ATOM     21  C   UNL     1       5.529   4.893  15.252  0.00  0.00    +0.000 C 
ATOM     22  O   UNL     1       4.660   4.119  15.649  0.00  0.00    +0.000 OA
ATOM     23  H   UNL     1       6.511   6.682  15.501  0.00  0.00    +0.000 HD
BRANCH  21  24
ATOM     24  C   UNL     1       6.300   4.678  14.043  0.00  0.00    +0.000 A 
ATOM     25  C   UNL     1       6.147   3.767  13.014  0.00  0.00    +0.000 A 
ATOM     26  C   UNL     1       7.211   3.991  12.108  0.00  0.00    +0.000 A 
ATOM     27  C   UNL     1       7.948   5.025  12.632  0.00  0.00    +0.000 A 
ATOM     28  O   UNL     1       7.404   5.457  13.798  0.00  0.00    +0.000 OA
ENDBRANCH  21  24
ENDBRANCH  19  20
ENDBRANCH   4  19
TORSDOF 7
ENDMDL
