MODEL 1
REMARK VINA RESULT:      -7.9      0.000      0.000
REMARK  Name = 
REMARK  11 active torsions:
REMARK  status: ('A' for Active; 'I' for Inactive)
REMARK    1  A    between atoms: C_1  and  C_2
REMARK    2  A    between atoms: N_4  and  C_5
REMARK    3  A    between atoms: C_8  and  S_9
REMARK    4  A    between atoms: S_9  and  N_12
REMARK    5  A    between atoms: N_12  and  C_13
REMARK    6  A    between atoms: N_12  and  C_14
REMARK    7  A    between atoms: C_14  and  C_15
REMARK    8  A    between atoms: N_17  and  N_18
REMARK    9  A    between atoms: C_19  and  C_20
REMARK   10  A    between atoms: C_23  and  C_24
REMARK   11  A    between atoms: C_24  and  O_26
REMARK                            x       y       z     vdW  Elec       q    Type
REMARK                         _______ _______ _______ _____ _____    ______ ____
ROOT
ATOM      1  C   UNL     1       3.428   5.649  19.451  0.00  0.00    +0.000 C 
ENDROOT
BRANCH   1   2
ATOM      2  C   UNL     1       2.527   6.866  19.365  0.00  0.00    +0.000 C 
ATOM      3  O   UNL     1       2.310   7.420  18.288  0.00  0.00    +0.000 OA
ATOM      4  N   UNL     1       2.094   7.330  20.603  0.00  0.00    +0.000 N 
ATOM      5  H   UNL     1       2.233   6.770  21.437  0.00  0.00    +0.000 HD
BRANCH   4   6
ATOM      6  N   UNL     1       1.282   8.422  20.635  0.00  0.00    +0.000 NA
ATOM      7  C   UNL     1       0.827   8.805  21.783  0.00  0.00    +0.000 C 
BRANCH   7   8
ATOM      8  C   UNL     1      -0.108   9.951  21.862  0.00  0.00    +0.000 A 
ATOM      9  C   UNL     1      -0.734  10.255  23.079  0.00  0.00    +0.000 A 
ATOM     10  C   UNL     1      -1.611  11.339  23.173  0.00  0.00    +0.000 A 
ATOM     11  C   UNL     1      -1.887  12.111  22.040  0.00  0.00    +0.000 A 
ATOM     12  C   UNL     1      -1.241  11.821  20.827  0.00  0.00    +0.000 A 
ATOM     13  C   UNL     1      -0.351  10.742  20.736  0.00  0.00    +0.000 A 
BRANCH  11  14
ATOM     14  C   UNL     1      -2.821  13.266  22.083  0.00  0.00    +0.000 C 
ATOM     15  O   UNL     1      -2.556  14.307  22.659  0.00  0.00    +0.000 OA
BRANCH  14  16
ATOM     16  O   UNL     1      -3.964  13.079  21.389  0.00  0.00    +0.000 OA
ATOM     17  H   UNL     1      -4.022  12.244  20.889  0.00  0.00    +0.000 HD
ENDBRANCH  14  16
ENDBRANCH  11  14
ENDBRANCH   7   8
ENDBRANCH   4   6
ENDBRANCH   1   2
BRANCH   1  18
ATOM     18  N   UNL     1       2.761   4.304  19.550  0.00  0.00    +0.000 NA
ATOM     19  C   UNL     1       2.125   4.172  20.889  0.00  0.00    +0.000 C 
BRANCH  18  20
ATOM     20  S   UNL     1       3.877   3.032  19.182  0.00  0.00    +0.000 S 
ATOM     21  O   UNL     1       3.102   1.946  18.623  0.00  0.00    +0.000 OA
ATOM     22  O   UNL     1       4.738   2.852  20.327  0.00  0.00    +0.000 OA
BRANCH  20  26
ATOM     23  C   UNL     1       6.440   4.824  15.835  0.00  0.00    +0.000 A 
ATOM     24  C   UNL     1       5.141   4.368  15.583  0.00  0.00    +0.000 A 
ATOM     25  C   UNL     1       4.362   3.814  16.603  0.00  0.00    +0.000 A 
ATOM     26  C   UNL     1       4.894   3.697  17.885  0.00  0.00    +0.000 A 
ATOM     27  C   UNL     1       6.195   4.124  18.154  0.00  0.00    +0.000 A 
ATOM     28  C   UNL     1       6.967   4.683  17.126  0.00  0.00    +0.000 A 
BRANCH  23  32
ATOM     29  C   UNL     1       8.387   5.782  12.742  0.00  0.00    +0.000 C 
ATOM     30  C   UNL     1       7.363   5.000  13.523  0.00  0.00    +0.000 C 
ATOM     31  O   UNL     1       6.731   4.098  12.985  0.00  0.00    +0.000 OA
ATOM     32  N   UNL     1       7.252   5.417  14.841  0.00  0.00    +0.000 N 
ATOM     33  H   UNL     1       7.726   6.275  15.094  0.00  0.00    +0.000 HD
ENDBRANCH  23  32
ENDBRANCH  20  26
ENDBRANCH  18  20
ENDBRANCH   1  18
TORSDOF 9
ENDMDL
MODEL 2
REMARK VINA RESULT:      -7.9      0.274      1.277
REMARK  Name = 
REMARK  11 active torsions:
REMARK  status: ('A' for Active; 'I' for Inactive)
REMARK    1  A    between atoms: C_1  and  C_2
REMARK    2  A    between atoms: N_4  and  C_5
REMARK    3  A    between atoms: C_8  and  S_9
REMARK    4  A    between atoms: S_9  and  N_12
REMARK    5  A    between atoms: N_12  and  C_13
REMARK    6  A    between atoms: N_12  and  C_14
REMARK    7  A    between atoms: C_14  and  C_15
REMARK    8  A    between atoms: N_17  and  N_18
REMARK    9  A    between atoms: C_19  and  C_20
REMARK   10  A    between atoms: C_23  and  C_24
REMARK   11  A    between atoms: C_24  and  O_26
REMARK                            x       y       z     vdW  Elec       q    Type
REMARK                         _______ _______ _______ _____ _____    ______ ____
ROOT
ATOM      1  C   UNL     1       3.432   5.692  19.533  0.00  0.00    +0.000 C 
ENDROOT
BRANCH   1   2
ATOM      2  C   UNL     1       2.499   6.880  19.406  0.00  0.00    +0.000 C 
ATOM      3  O   UNL     1       2.130   7.283  18.303  0.00  0.00    +0.000 OA
ATOM      4  N   UNL     1       2.218   7.503  20.617  0.00  0.00    +0.000 N 
ATOM      5  H   UNL     1       2.478   7.062  21.493  0.00  0.00    +0.000 HD
BRANCH   4   6
ATOM      6  N   UNL     1       1.391   8.585  20.611  0.00  0.00    +0.000 NA
ATOM      7  C   UNL     1       0.836   8.929  21.727  0.00  0.00    +0.000 C 
BRANCH   7   8
ATOM      8  C   UNL     1      -0.119  10.062  21.759  0.00  0.00    +0.000 A 
ATOM      9  C   UNL     1      -0.456  10.720  20.568  0.00  0.00    +0.000 A 
ATOM     10  C   UNL     1      -1.362  11.784  20.580  0.00  0.00    +0.000 A 
ATOM     11  C   UNL     1      -1.918  12.212  21.791  0.00  0.00    +0.000 A 
ATOM     12  C   UNL     1      -1.599  11.535  22.979  0.00  0.00    +0.000 A 
ATOM     13  C   UNL     1      -0.700  10.460  22.965  0.00  0.00    +0.000 A 
BRANCH  11  14
ATOM     14  C   UNL     1      -2.877  13.345  21.859  0.00  0.00    +0.000 C 
ATOM     15  O   UNL     1      -2.527  14.509  21.782  0.00  0.00    +0.000 OA
BRANCH  14  16
ATOM     16  O   UNL     1      -4.169  12.970  21.964  0.00  0.00    +0.000 OA
ATOM     17  H   UNL     1      -4.426  12.189  21.440  0.00  0.00    +0.000 HD
ENDBRANCH  14  16
ENDBRANCH  11  14
ENDBRANCH   7   8
ENDBRANCH   4   6
ENDBRANCH   1   2
BRANCH   1  18
ATOM     18  N   UNL     1       2.804   4.344  19.764  0.00  0.00    +0.000 NA
ATOM     19  C   UNL     1       2.386   4.239  21.190  0.00  0.00    +0.000 C 
BRANCH  18  20
ATOM     20  S   UNL     1       3.862   3.073  19.254  0.00  0.00    +0.000 S 
ATOM     21  O   UNL     1       3.030   2.059  18.641  0.00  0.00    +0.000 OA
ATOM     22  O   UNL     1       4.757   2.775  20.347  0.00  0.00    +0.000 OA
BRANCH  20  26
ATOM     23  C   UNL     1       6.476   4.893  15.963  0.00  0.00    +0.000 A 
ATOM     24  C   UNL     1       6.931   4.814  17.284  0.00  0.00    +0.000 A 
ATOM     25  C   UNL     1       6.130   4.266  18.290  0.00  0.00    +0.000 A 
ATOM     26  C   UNL     1       4.853   3.808  17.975  0.00  0.00    +0.000 A 
ATOM     27  C   UNL     1       4.369   3.898  16.669  0.00  0.00    +0.000 A 
ATOM     28  C   UNL     1       5.182   4.445  15.666  0.00  0.00    +0.000 A 
BRANCH  23  32
ATOM     29  C   UNL     1       8.303   5.657  12.745  0.00  0.00    +0.000 C 
ATOM     30  C   UNL     1       7.282   4.955  13.601  0.00  0.00    +0.000 C 
ATOM     31  O   UNL     1       6.574   4.074  13.124  0.00  0.00    +0.000 OA
ATOM     32  N   UNL     1       7.264   5.414  14.910  0.00  0.00    +0.000 N 
ATOM     33  H   UNL     1       7.796   6.250  15.112  0.00  0.00    +0.000 HD
ENDBRANCH  23  32
ENDBRANCH  20  26
ENDBRANCH  18  20
ENDBRANCH   1  18
TORSDOF 9
ENDMDL
MODEL 3
REMARK VINA RESULT:      -7.9      2.898      3.584
REMARK  Name = 
REMARK  11 active torsions:
REMARK  status: ('A' for Active; 'I' for Inactive)
REMARK    1  A    between atoms: C_1  and  C_2
REMARK    2  A    between atoms: N_4  and  C_5
REMARK    3  A    between atoms: C_8  and  S_9
REMARK    4  A    between atoms: S_9  and  N_12
REMARK    5  A    between atoms: N_12  and  C_13
REMARK    6  A    between atoms: N_12  and  C_14
REMARK    7  A    between atoms: C_14  and  C_15
REMARK    8  A    between atoms: N_17  and  N_18
REMARK    9  A    between atoms: C_19  and  C_20
REMARK   10  A    between atoms: C_23  and  C_24
REMARK   11  A    between atoms: C_24  and  O_26
REMARK                            x       y       z     vdW  Elec       q    Type
REMARK                         _______ _______ _______ _____ _____    ______ ____
ROOT
ATOM      1  C   UNL     1       3.297   4.971  19.901  0.00  0.00    +0.000 C 
ENDROOT
BRANCH   1   2
ATOM      2  C   UNL     1       2.144   5.885  20.266  0.00  0.00    +0.000 C 
ATOM      3  O   UNL     1       1.072   5.429  20.663  0.00  0.00    +0.000 OA
ATOM      4  N   UNL     1       2.388   7.228  19.997  0.00  0.00    +0.000 N 
ATOM      5  H   UNL     1       3.324   7.542  19.760  0.00  0.00    +0.000 HD
BRANCH   4   6
ATOM      6  N   UNL     1       1.413   8.133  20.285  0.00  0.00    +0.000 NA
ATOM      7  C   UNL     1       1.511   8.799  21.389  0.00  0.00    +0.000 C 
BRANCH   7   8
ATOM      8  C   UNL     1       0.443   9.750  21.775  0.00  0.00    +0.000 A 
ATOM      9  C   UNL     1       0.051  10.756  20.881  0.00  0.00    +0.000 A 
ATOM     10  C   UNL     1      -0.962  11.655  21.226  0.00  0.00    +0.000 A 
ATOM     11  C   UNL     1      -1.571  11.568  22.483  0.00  0.00    +0.000 A 
ATOM     12  C   UNL     1      -1.195  10.545  23.368  0.00  0.00    +0.000 A 
ATOM     13  C   UNL     1      -0.188   9.635  23.016  0.00  0.00    +0.000 A 
BRANCH  11  14
ATOM     14  C   UNL     1      -2.644  12.506  22.904  0.00  0.00    +0.000 C 
ATOM     15  O   UNL     1      -3.828  12.237  22.812  0.00  0.00    +0.000 OA
BRANCH  14  16
ATOM     16  O   UNL     1      -2.191  13.659  23.439  0.00  0.00    +0.000 OA
ATOM     17  H   UNL     1      -1.264  13.648  23.744  0.00  0.00    +0.000 HD
ENDBRANCH  14  16
ENDBRANCH  11  14
ENDBRANCH   7   8
ENDBRANCH   4   6
ENDBRANCH   1   2
BRANCH   1  18
ATOM     18  N   UNL     1       3.565   4.749  18.438  0.00  0.00    +0.000 NA
ATOM     19  C   UNL     1       2.539   3.819  17.888  0.00  0.00    +0.000 C 
BRANCH  18  20
ATOM     20  S   UNL     1       5.193   4.220  18.180  0.00  0.00    +0.000 S 
ATOM     21  O   UNL     1       5.218   3.560  16.892  0.00  0.00    +0.000 OA
ATOM     22  O   UNL     1       5.643   3.568  19.386  0.00  0.00    +0.000 OA
BRANCH  20  26
ATOM     23  C   UNL     1       7.673   8.047  17.761  0.00  0.00    +0.000 A 
ATOM     24  C   UNL     1       8.121   6.981  18.549  0.00  0.00    +0.000 A 
ATOM     25  C   UNL     1       7.360   5.816  18.683  0.00  0.00    +0.000 A 
ATOM     26  C   UNL     1       6.130   5.723  18.037  0.00  0.00    +0.000 A 
ATOM     27  C   UNL     1       5.653   6.783  17.265  0.00  0.00    +0.000 A 
ATOM     28  C   UNL     1       6.426   7.946  17.132  0.00  0.00    +0.000 A 
BRANCH  23  32
ATOM     29  C   UNL     1       9.636  11.263  18.054  0.00  0.00    +0.000 C 
ATOM     30  C   UNL     1       8.980  10.011  18.577  0.00  0.00    +0.000 C 
ATOM     31  O   UNL     1       8.974   9.771  19.779  0.00  0.00    +0.000 OA
ATOM     32  N   UNL     1       8.424   9.231  17.574  0.00  0.00    +0.000 N 
ATOM     33  H   UNL     1       8.647   9.482  16.619  0.00  0.00    +0.000 HD
ENDBRANCH  23  32
ENDBRANCH  20  26
ENDBRANCH  18  20
ENDBRANCH   1  18
TORSDOF 9
ENDMDL
MODEL 4
REMARK VINA RESULT:      -7.8      1.036      1.412
REMARK  Name = 
REMARK  11 active torsions:
REMARK  status: ('A' for Active; 'I' for Inactive)
REMARK    1  A    between atoms: C_1  and  C_2
REMARK    2  A    between atoms: N_4  and  C_5
REMARK    3  A    between atoms: C_8  and  S_9
REMARK    4  A    between atoms: S_9  and  N_12
REMARK    5  A    between atoms: N_12  and  C_13
REMARK    6  A    between atoms: N_12  and  C_14
REMARK    7  A    between atoms: C_14  and  C_15
REMARK    8  A    between atoms: N_17  and  N_18
REMARK    9  A    between atoms: C_19  and  C_20
REMARK   10  A    between atoms: C_23  and  C_24
REMARK   11  A    between atoms: C_24  and  O_26
REMARK                            x       y       z     vdW  Elec       q    Type
REMARK                         _______ _______ _______ _____ _____    ______ ____
ROOT
ATOM      1  C   UNL     1       2.703   4.924  20.213  0.00  0.00    +0.000 C 
ENDROOT
BRANCH   1   2
ATOM      2  C   UNL     1       2.264   6.349  19.939  0.00  0.00    +0.000 C 
ATOM      3  O   UNL     1       2.374   6.843  18.816  0.00  0.00    +0.000 OA
ATOM      4  N   UNL     1       1.855   7.038  21.076  0.00  0.00    +0.000 N 
ATOM      5  H   UNL     1       1.700   6.542  21.947  0.00  0.00    +0.000 HD
BRANCH   4   6
ATOM      6  N   UNL     1       1.445   8.328  20.937  0.00  0.00    +0.000 NA
ATOM      7  C   UNL     1       0.246   8.627  21.320  0.00  0.00    +0.000 C 
BRANCH   7   8
ATOM      8  C   UNL     1      -0.267  10.004  21.134  0.00  0.00    +0.000 A 
ATOM      9  C   UNL     1      -0.267  10.899  22.213  0.00  0.00    +0.000 A 
ATOM     10  C   UNL     1      -0.738  12.204  22.051  0.00  0.00    +0.000 A 
ATOM     11  C   UNL     1      -1.239  12.614  20.811  0.00  0.00    +0.000 A 
ATOM     12  C   UNL     1      -1.216  11.725  19.724  0.00  0.00    +0.000 A 
ATOM     13  C   UNL     1      -0.731  10.420  19.883  0.00  0.00    +0.000 A 
BRANCH  11  14
ATOM     14  C   UNL     1      -1.763  13.987  20.589  0.00  0.00    +0.000 C 
ATOM     15  O   UNL     1      -2.442  14.574  21.412  0.00  0.00    +0.000 OA
BRANCH  14  16
ATOM     16  O   UNL     1      -1.380  14.543  19.420  0.00  0.00    +0.000 OA
ATOM     17  H   UNL     1      -0.521  15.005  19.434  0.00  0.00    +0.000 HD
ENDBRANCH  14  16
ENDBRANCH  11  14
ENDBRANCH   7   8
ENDBRANCH   4   6
ENDBRANCH   1   2
BRANCH   1  18
ATOM     18  N   UNL     1       2.529   3.924  19.102  0.00  0.00    +0.000 NA
ATOM     19  C   UNL     1       1.268   3.164  19.323  0.00  0.00    +0.000 C 
BRANCH  18  20
ATOM     20  S   UNL     1       3.930   2.918  18.951  0.00  0.00    +0.000 S 
ATOM     21  O   UNL     1       3.480   1.656  18.404  0.00  0.00    +0.000 OA
ATOM     22  O   UNL     1       4.671   3.000  20.187  0.00  0.00    +0.000 OA
BRANCH  20  26
ATOM     23  C   UNL     1       6.545   4.919  15.767  0.00  0.00    +0.000 A 
ATOM     24  C   UNL     1       6.972   4.828  17.097  0.00  0.00    +0.000 A 
ATOM     25  C   UNL     1       6.170   4.225  18.070  0.00  0.00    +0.000 A 
ATOM     26  C   UNL     1       4.921   3.723  17.713  0.00  0.00    +0.000 A 
ATOM     27  C   UNL     1       4.465   3.823  16.398  0.00  0.00    +0.000 A 
ATOM     28  C   UNL     1       5.279   4.425  15.428  0.00  0.00    +0.000 A 
BRANCH  23  32
ATOM     29  C   UNL     1       8.442   5.812  12.624  0.00  0.00    +0.000 C 
ATOM     30  C   UNL     1       7.440   5.039  13.439  0.00  0.00    +0.000 C 
ATOM     31  O   UNL     1       6.817   4.110  12.936  0.00  0.00    +0.000 OA
ATOM     32  N   UNL     1       7.336   5.494  14.745  0.00  0.00    +0.000 N 
ATOM     33  H   UNL     1       7.799   6.367  14.967  0.00  0.00    +0.000 HD
ENDBRANCH  23  32
ENDBRANCH  20  26
ENDBRANCH  18  20
ENDBRANCH   1  18
TORSDOF 9
ENDMDL
MODEL 5
REMARK VINA RESULT:      -7.8      0.708      1.232
REMARK  Name = 
REMARK  11 active torsions:
REMARK  status: ('A' for Active; 'I' for Inactive)
REMARK    1  A    between atoms: C_1  and  C_2
REMARK    2  A    between atoms: N_4  and  C_5
REMARK    3  A    between atoms: C_8  and  S_9
REMARK    4  A    between atoms: S_9  and  N_12
REMARK    5  A    between atoms: N_12  and  C_13
REMARK    6  A    between atoms: N_12  and  C_14
REMARK    7  A    between atoms: C_14  and  C_15
REMARK    8  A    between atoms: N_17  and  N_18
REMARK    9  A    between atoms: C_19  and  C_20
REMARK   10  A    between atoms: C_23  and  C_24
REMARK   11  A    between atoms: C_24  and  O_26
REMARK                            x       y       z     vdW  Elec       q    Type
REMARK                         _______ _______ _______ _____ _____    ______ ____
ROOT
ATOM      1  C   UNL     1       3.390   5.524  19.689  0.00  0.00    +0.000 C 
ENDROOT
BRANCH   1   2
ATOM      2  C   UNL     1       2.581   6.765  19.371  0.00  0.00    +0.000 C 
ATOM      3  O   UNL     1       2.464   7.167  18.213  0.00  0.00    +0.000 OA
ATOM      4  N   UNL     1       2.109   7.431  20.497  0.00  0.00    +0.000 N 
ATOM      5  H   UNL     1       2.162   6.993  21.411  0.00  0.00    +0.000 HD
BRANCH   4   6
ATOM      6  N   UNL     1       1.374   8.562  20.318  0.00  0.00    +0.000 NA
ATOM      7  C   UNL     1       0.597   8.938  21.282  0.00  0.00    +0.000 C 
BRANCH   7   8
ATOM      8  C   UNL     1      -0.268  10.129  21.112  0.00  0.00    +0.000 A 
ATOM      9  C   UNL     1      -0.638  10.542  19.824  0.00  0.00    +0.000 A 
ATOM     10  C   UNL     1      -1.462  11.656  19.647  0.00  0.00    +0.000 A 
ATOM     11  C   UNL     1      -1.901  12.381  20.760  0.00  0.00    +0.000 A 
ATOM     12  C   UNL     1      -1.551  11.952  22.050  0.00  0.00    +0.000 A 
ATOM     13  C   UNL     1      -0.735  10.826  22.229  0.00  0.00    +0.000 A 
BRANCH  11  14
ATOM     14  C   UNL     1      -2.768  13.580  20.625  0.00  0.00    +0.000 C 
ATOM     15  O   UNL     1      -3.944  13.582  20.944  0.00  0.00    +0.000 OA
BRANCH  14  16
ATOM     16  O   UNL     1      -2.128  14.677  20.167  0.00  0.00    +0.000 OA
ATOM     17  H   UNL     1      -1.268  14.869  20.585  0.00  0.00    +0.000 HD
ENDBRANCH  14  16
ENDBRANCH  11  14
ENDBRANCH   7   8
ENDBRANCH   4   6
ENDBRANCH   1   2
BRANCH   1  18
ATOM     18  N   UNL     1       2.705   4.194  19.525  0.00  0.00    +0.000 NA
ATOM     19  C   UNL     1       1.886   3.914  20.737  0.00  0.00    +0.000 C 
BRANCH  18  20
ATOM     20  S   UNL     1       3.850   2.949  19.157  0.00  0.00    +0.000 S 
ATOM     21  O   UNL     1       3.103   1.851  18.585  0.00  0.00    +0.000 OA
ATOM     22  O   UNL     1       4.706   2.780  20.307  0.00  0.00    +0.000 OA
BRANCH  20  26
ATOM     23  C   UNL     1       6.394   4.815  15.836  0.00  0.00    +0.000 A 
ATOM     24  C   UNL     1       5.152   4.234  15.553  0.00  0.00    +0.000 A 
ATOM     25  C   UNL     1       4.380   3.657  16.565  0.00  0.00    +0.000 A 
ATOM     26  C   UNL     1       4.862   3.645  17.872  0.00  0.00    +0.000 A 
ATOM     27  C   UNL     1       6.107   4.198  18.173  0.00  0.00    +0.000 A 
ATOM     28  C   UNL     1       6.873   4.778  17.152  0.00  0.00    +0.000 A 
BRANCH  23  32
ATOM     29  C   UNL     1       8.361   5.820  12.771  0.00  0.00    +0.000 C 
ATOM     30  C   UNL     1       7.367   4.994  13.544  0.00  0.00    +0.000 C 
ATOM     31  O   UNL     1       6.806   4.042  13.013  0.00  0.00    +0.000 OA
ATOM     32  N   UNL     1       7.194   5.434  14.848  0.00  0.00    +0.000 N 
ATOM     33  H   UNL     1       7.607   6.326  15.091  0.00  0.00    +0.000 HD
ENDBRANCH  23  32
ENDBRANCH  20  26
ENDBRANCH  18  20
ENDBRANCH   1  18
TORSDOF 9
ENDMDL
MODEL 6
REMARK VINA RESULT:      -7.8      3.864     11.888
REMARK  Name = 
REMARK  11 active torsions:
REMARK  status: ('A' for Active; 'I' for Inactive)
REMARK    1  A    between atoms: C_1  and  C_2
REMARK    2  A    between atoms: N_4  and  C_5
REMARK    3  A    between atoms: C_8  and  S_9
REMARK    4  A    between atoms: S_9  and  N_12
REMARK    5  A    between atoms: N_12  and  C_13
REMARK    6  A    between atoms: N_12  and  C_14
REMARK    7  A    between atoms: C_14  and  C_15
REMARK    8  A    between atoms: N_17  and  N_18
REMARK    9  A    between atoms: C_19  and  C_20
REMARK   10  A    between atoms: C_23  and  C_24
REMARK   11  A    between atoms: C_24  and  O_26
REMARK                            x       y       z     vdW  Elec       q    Type
REMARK                         _______ _______ _______ _____ _____    ______ ____
ROOT
ATOM      1  C   UNL     1       0.608  13.136  18.517  0.00  0.00    +0.000 C 
ENDROOT
BRANCH   1   2
ATOM      2  C   UNL     1       1.690  12.110  18.245  0.00  0.00    +0.000 C 
ATOM      3  O   UNL     1       2.868  12.445  18.122  0.00  0.00    +0.000 OA
ATOM      4  N   UNL     1       1.202  10.823  18.040  0.00  0.00    +0.000 N 
ATOM      5  H   UNL     1       0.234  10.602  18.250  0.00  0.00    +0.000 HD
BRANCH   4   6
ATOM      6  N   UNL     1       2.094   9.827  17.784  0.00  0.00    +0.000 NA
ATOM      7  C   UNL     1       1.754   8.617  18.088  0.00  0.00    +0.000 C 
BRANCH   7   8
ATOM      8  C   UNL     1       2.714   7.507  17.884  0.00  0.00    +0.000 A 
ATOM      9  C   UNL     1       2.376   6.211  18.298  0.00  0.00    +0.000 A 
ATOM     10  C   UNL     1       3.266   5.151  18.104  0.00  0.00    +0.000 A 
ATOM     11  C   UNL     1       4.513   5.388  17.516  0.00  0.00    +0.000 A 
ATOM     12  C   UNL     1       4.840   6.682  17.079  0.00  0.00    +0.000 A 
ATOM     13  C   UNL     1       3.942   7.743  17.262  0.00  0.00    +0.000 A 
BRANCH  11  14
ATOM     14  C   UNL     1       5.500   4.299  17.298  0.00  0.00    +0.000 C 
ATOM     15  O   UNL     1       5.744   3.842  16.196  0.00  0.00    +0.000 OA
BRANCH  14  16
ATOM     16  O   UNL     1       6.136   3.897  18.419  0.00  0.00    +0.000 OA
ATOM     17  H   UNL     1       5.962   2.978  18.696  0.00  0.00    +0.000 HD
ENDBRANCH  14  16
ENDBRANCH  11  14
ENDBRANCH   7   8
ENDBRANCH   4   6
ENDBRANCH   1   2
BRANCH   1  18
ATOM     18  N   UNL     1      -0.067  13.086  19.861  0.00  0.00    +0.000 NA
ATOM     19  C   UNL     1       0.968  13.158  20.930  0.00  0.00    +0.000 C 
BRANCH  18  20
ATOM     20  S   UNL     1      -1.098  11.701  19.984  0.00  0.00    +0.000 S 
ATOM     21  O   UNL     1      -0.368  10.704  20.737  0.00  0.00    +0.000 OA
ATOM     22  O   UNL     1      -1.636  11.431  18.672  0.00  0.00    +0.000 OA
BRANCH  20  26
ATOM     23  C   UNL     1      -4.551  13.190  22.597  0.00  0.00    +0.000 A 
ATOM     24  C   UNL     1      -3.394  12.652  23.171  0.00  0.00    +0.000 A 
ATOM     25  C   UNL     1      -2.343  12.190  22.373  0.00  0.00    +0.000 A 
ATOM     26  C   UNL     1      -2.459  12.250  20.986  0.00  0.00    +0.000 A 
ATOM     27  C   UNL     1      -3.613  12.761  20.392  0.00  0.00    +0.000 A 
ATOM     28  C   UNL     1      -4.660  13.226  21.201  0.00  0.00    +0.000 A 
BRANCH  23  32
ATOM     29  C   UNL     1      -7.778  13.861  24.445  0.00  0.00    +0.000 C 
ATOM     30  C   UNL     1      -6.784  13.010  23.699  0.00  0.00    +0.000 C 
ATOM     31  O   UNL     1      -7.041  11.839  23.443  0.00  0.00    +0.000 OA
ATOM     32  N   UNL     1      -5.625  13.695  23.367  0.00  0.00    +0.000 N 
ATOM     33  H   UNL     1      -5.495  14.609  23.784  0.00  0.00    +0.000 HD
ENDBRANCH  23  32
ENDBRANCH  20  26
ENDBRANCH  18  20
ENDBRANCH   1  18
TORSDOF 9
ENDMDL
MODEL 7
REMARK VINA RESULT:      -7.7      2.728      3.426
REMARK  Name = 
REMARK  11 active torsions:
REMARK  status: ('A' for Active; 'I' for Inactive)
REMARK    1  A    between atoms: C_1  and  C_2
REMARK    2  A    between atoms: N_4  and  C_5
REMARK    3  A    between atoms: C_8  and  S_9
REMARK    4  A    between atoms: S_9  and  N_12
REMARK    5  A    between atoms: N_12  and  C_13
REMARK    6  A    between atoms: N_12  and  C_14
REMARK    7  A    between atoms: C_14  and  C_15
REMARK    8  A    between atoms: N_17  and  N_18
REMARK    9  A    between atoms: C_19  and  C_20
REMARK   10  A    between atoms: C_23  and  C_24
REMARK   11  A    between atoms: C_24  and  O_26
REMARK                            x       y       z     vdW  Elec       q    Type
REMARK                         _______ _______ _______ _____ _____    ______ ____
ROOT
ATOM      1  C   UNL     1       2.773   5.079  19.380  0.00  0.00    +0.000 C 
ENDROOT
BRANCH   1   2
ATOM      2  C   UNL     1       2.406   6.538  19.569  0.00  0.00    +0.000 C 
ATOM      3  O   UNL     1       2.577   7.358  18.667  0.00  0.00    +0.000 OA
ATOM      4  N   UNL     1       1.987   6.847  20.859  0.00  0.00    +0.000 N 
ATOM      5  H   UNL     1       1.781   6.108  21.522  0.00  0.00    +0.000 HD
BRANCH   4   6
ATOM      6  N   UNL     1       1.638   8.134  21.133  0.00  0.00    +0.000 NA
ATOM      7  C   UNL     1       0.449   8.354  21.592  0.00  0.00    +0.000 C 
BRANCH   7   8
ATOM      8  C   UNL     1       0.002   9.743  21.849  0.00  0.00    +0.000 A 
ATOM      9  C   UNL     1       0.389  10.771  20.977  0.00  0.00    +0.000 A 
ATOM     10  C   UNL     1      -0.033  12.084  21.200  0.00  0.00    +0.000 A 
ATOM     11  C   UNL     1      -0.825  12.381  22.314  0.00  0.00    +0.000 A 
ATOM     12  C   UNL     1      -1.233  11.347  23.172  0.00  0.00    +0.000 A 
ATOM     13  C   UNL     1      -0.821  10.028  22.942  0.00  0.00    +0.000 A 
BRANCH  11  14
ATOM     14  C   UNL     1      -1.291  13.763  22.603  0.00  0.00    +0.000 C 
ATOM     15  O   UNL     1      -1.627  14.541  21.728  0.00  0.00    +0.000 OA
BRANCH  14  16
ATOM     16  O   UNL     1      -1.354  14.061  23.917  0.00  0.00    +0.000 OA
ATOM     17  H   UNL     1      -1.773  14.914  24.137  0.00  0.00    +0.000 HD
ENDBRANCH  14  16
ENDBRANCH  11  14
ENDBRANCH   7   8
ENDBRANCH   4   6
ENDBRANCH   1   2
BRANCH   1  18
ATOM     18  N   UNL     1       3.274   4.665  18.023  0.00  0.00    +0.000 NA
ATOM     19  C   UNL     1       2.332   3.671  17.437  0.00  0.00    +0.000 C 
BRANCH  18  20
ATOM     20  S   UNL     1       4.910   4.105  18.111  0.00  0.00    +0.000 S 
ATOM     21  O   UNL     1       5.137   3.293  16.935  0.00  0.00    +0.000 OA
ATOM     22  O   UNL     1       5.136   3.605  19.446  0.00  0.00    +0.000 OA
BRANCH  20  26
ATOM     23  C   UNL     1       7.502   7.853  17.646  0.00  0.00    +0.000 A 
ATOM     24  C   UNL     1       7.920   6.782  18.446  0.00  0.00    +0.000 A 
ATOM     25  C   UNL     1       7.125   5.642  18.594  0.00  0.00    +0.000 A 
ATOM     26  C   UNL     1       5.891   5.579  17.951  0.00  0.00    +0.000 A 
ATOM     27  C   UNL     1       5.444   6.644  17.168  0.00  0.00    +0.000 A 
ATOM     28  C   UNL     1       6.251   7.781  17.021  0.00  0.00    +0.000 A 
BRANCH  23  32
ATOM     29  C   UNL     1       9.566  11.007  17.903  0.00  0.00    +0.000 C 
ATOM     30  C   UNL     1       8.878   9.779  18.439  0.00  0.00    +0.000 C 
ATOM     31  O   UNL     1       8.876   9.546  19.643  0.00  0.00    +0.000 OA
ATOM     32  N   UNL     1       8.288   9.012  17.446  0.00  0.00    +0.000 N 
ATOM     33  H   UNL     1       8.509   9.250  16.487  0.00  0.00    +0.000 HD
ENDBRANCH  23  32
ENDBRANCH  20  26
ENDBRANCH  18  20
ENDBRANCH   1  18
TORSDOF 9
ENDMDL
MODEL 8
REMARK VINA RESULT:      -7.7      5.336      8.922
REMARK  Name = 
REMARK  11 active torsions:
REMARK  status: ('A' for Active; 'I' for Inactive)
REMARK    1  A    between atoms: C_1  and  C_2
REMARK    2  A    between atoms: N_4  and  C_5
REMARK    3  A    between atoms: C_8  and  S_9
REMARK    4  A    between atoms: S_9  and  N_12
REMARK    5  A    between atoms: N_12  and  C_13
REMARK    6  A    between atoms: N_12  and  C_14
REMARK    7  A    between atoms: C_14  and  C_15
REMARK    8  A    between atoms: N_17  and  N_18
REMARK    9  A    between atoms: C_19  and  C_20
REMARK   10  A    between atoms: C_23  and  C_24
REMARK   11  A    between atoms: C_24  and  O_26
REMARK                            x       y       z     vdW  Elec       q    Type
REMARK                         _______ _______ _______ _____ _____    ______ ____
ROOT
ATOM      1  C   UNL     1       6.537   4.731  18.171  0.00  0.00    +0.000 C 
ENDROOT
BRANCH   1   2
ATOM      2  C   UNL     1       7.399   5.857  18.707  0.00  0.00    +0.000 C 
ATOM      3  O   UNL     1       8.006   5.740  19.772  0.00  0.00    +0.000 OA
ATOM      4  N   UNL     1       7.331   7.023  17.952  0.00  0.00    +0.000 N 
ATOM      5  H   UNL     1       6.888   7.018  17.039  0.00  0.00    +0.000 HD
BRANCH   4   6
ATOM      6  N   UNL     1       8.066   8.096  18.352  0.00  0.00    +0.000 NA
ATOM      7  C   UNL     1       7.921   9.206  17.704  0.00  0.00    +0.000 C 
BRANCH   7   8
ATOM      8  C   UNL     1       8.744  10.384  18.063  0.00  0.00    +0.000 A 
ATOM      9  C   UNL     1       9.912  10.213  18.819  0.00  0.00    +0.000 A 
ATOM     10  C   UNL     1      10.705  11.313  19.157  0.00  0.00    +0.000 A 
ATOM     11  C   UNL     1      10.317  12.598  18.762  0.00  0.00    +0.000 A 
ATOM     12  C   UNL     1       9.160  12.766  17.984  0.00  0.00    +0.000 A 
ATOM     13  C   UNL     1       8.372  11.661  17.634  0.00  0.00    +0.000 A 
BRANCH  11  14
ATOM     14  C   UNL     1      11.117  13.802  19.106  0.00  0.00    +0.000 C 
ATOM     15  O   UNL     1      10.692  14.936  18.973  0.00  0.00    +0.000 OA
BRANCH  14  16
ATOM     16  O   UNL     1      12.333  13.527  19.624  0.00  0.00    +0.000 OA
ATOM     17  H   UNL     1      13.024  13.292  18.977  0.00  0.00    +0.000 HD
ENDBRANCH  14  16
ENDBRANCH  11  14
ENDBRANCH   7   8
ENDBRANCH   4   6
ENDBRANCH   1   2
BRANCH   1  18
ATOM     18  N   UNL     1       5.133   4.626  18.702  0.00  0.00    +0.000 NA
ATOM     19  C   UNL     1       4.891   3.233  19.171  0.00  0.00    +0.000 C 
BRANCH  18  20
ATOM     20  S   UNL     1       3.984   5.173  17.527  0.00  0.00    +0.000 S 
ATOM     21  O   UNL     1       3.111   4.055  17.245  0.00  0.00    +0.000 OA
ATOM     22  O   UNL     1       4.709   5.864  16.487  0.00  0.00    +0.000 OA
BRANCH  20  26
ATOM     23  C   UNL     1       1.599   8.362  19.790  0.00  0.00    +0.000 A 
ATOM     24  C   UNL     1       1.901   7.131  20.384  0.00  0.00    +0.000 A 
ATOM     25  C   UNL     1       2.622   6.155  19.690  0.00  0.00    +0.000 A 
ATOM     26  C   UNL     1       3.030   6.405  18.382  0.00  0.00    +0.000 A 
ATOM     27  C   UNL     1       2.720   7.616  17.762  0.00  0.00    +0.000 A 
ATOM     28  C   UNL     1       2.001   8.591  18.468  0.00  0.00    +0.000 A 
BRANCH  23  32
ATOM     29  C   UNL     1      -0.222  11.482  20.897  0.00  0.00    +0.000 C 
ATOM     30  C   UNL     1       0.385  10.541  19.890  0.00  0.00    +0.000 C 
ATOM     31  O   UNL     1       0.392  10.829  18.698  0.00  0.00    +0.000 OA
ATOM     32  N   UNL     1       0.898   9.388  20.465  0.00  0.00    +0.000 N 
ATOM     33  H   UNL     1       0.676   9.222  21.439  0.00  0.00    +0.000 HD
ENDBRANCH  23  32
ENDBRANCH  20  26
ENDBRANCH  18  20
ENDBRANCH   1  18
TORSDOF 9
ENDMDL
MODEL 9
REMARK VINA RESULT:      -7.6      1.450      1.729
REMARK  Name = 
REMARK  11 active torsions:
REMARK  status: ('A' for Active; 'I' for Inactive)
REMARK    1  A    between atoms: C_1  and  C_2
REMARK    2  A    between atoms: N_4  and  C_5
REMARK    3  A    between atoms: C_8  and  S_9
REMARK    4  A    between atoms: S_9  and  N_12
REMARK    5  A    between atoms: N_12  and  C_13
REMARK    6  A    between atoms: N_12  and  C_14
REMARK    7  A    between atoms: C_14  and  C_15
REMARK    8  A    between atoms: N_17  and  N_18
REMARK    9  A    between atoms: C_19  and  C_20
REMARK   10  A    between atoms: C_23  and  C_24
REMARK   11  A    between atoms: C_24  and  O_26
REMARK                            x       y       z     vdW  Elec       q    Type
REMARK                         _______ _______ _______ _____ _____    ______ ____
ROOT
ATOM      1  C   UNL     1       3.300   5.079  19.698  0.00  0.00    +0.000 C 
ENDROOT
BRANCH   1   2
ATOM      2  C   UNL     1       2.192   5.819  20.421  0.00  0.00    +0.000 C 
ATOM      3  O   UNL     1       1.162   5.240  20.766  0.00  0.00    +0.000 OA
ATOM      4  N   UNL     1       2.414   7.187  20.534  0.00  0.00    +0.000 N 
ATOM      5  H   UNL     1       3.324   7.579  20.313  0.00  0.00    +0.000 HD
BRANCH   4   6
ATOM      6  N   UNL     1       1.475   7.944  21.164  0.00  0.00    +0.000 NA
ATOM      7  C   UNL     1       1.057   9.012  20.567  0.00  0.00    +0.000 C 
BRANCH   7   8
ATOM      8  C   UNL     1       0.080   9.900  21.238  0.00  0.00    +0.000 A 
ATOM      9  C   UNL     1      -0.282   9.655  22.570  0.00  0.00    +0.000 A 
ATOM     10  C   UNL     1      -1.195  10.490  23.221  0.00  0.00    +0.000 A 
ATOM     11  C   UNL     1      -1.771  11.562  22.532  0.00  0.00    +0.000 A 
ATOM     12  C   UNL     1      -1.389  11.822  21.206  0.00  0.00    +0.000 A 
ATOM     13  C   UNL     1      -0.464  10.992  20.557  0.00  0.00    +0.000 A 
BRANCH  11  14
ATOM     14  C   UNL     1      -2.756  12.472  23.174  0.00  0.00    +0.000 C 
ATOM     15  O   UNL     1      -3.652  12.070  23.895  0.00  0.00    +0.000 OA
BRANCH  14  16
ATOM     16  O   UNL     1      -2.539  13.782  22.930  0.00  0.00    +0.000 OA
ATOM     17  H   UNL     1      -2.063  13.983  22.103  0.00  0.00    +0.000 HD
ENDBRANCH  14  16
ENDBRANCH  11  14
ENDBRANCH   7   8
ENDBRANCH   4   6
ENDBRANCH   1   2
BRANCH   1  18
ATOM     18  N   UNL     1       3.073   3.622  19.395  0.00  0.00    +0.000 NA
ATOM     19  C   UNL     1       4.283   2.847  19.785  0.00  0.00    +0.000 C 
BRANCH  18  20
ATOM     20  S   UNL     1       2.607   3.400  17.743  0.00  0.00    +0.000 S 
ATOM     21  O   UNL     1       1.471   4.266  17.510  0.00  0.00    +0.000 OA
ATOM     22  O   UNL     1       2.557   1.981  17.483  0.00  0.00    +0.000 OA
BRANCH  20  26
ATOM     23  C   UNL     1       6.179   5.073  15.414  0.00  0.00    +0.000 A 
ATOM     24  C   UNL     1       5.268   5.926  16.048  0.00  0.00    +0.000 A 
ATOM     25  C   UNL     1       4.173   5.415  16.751  0.00  0.00    +0.000 A 
ATOM     26  C   UNL     1       3.977   4.038  16.807  0.00  0.00    +0.000 A 
ATOM     27  C   UNL     1       4.859   3.169  16.164  0.00  0.00    +0.000 A 
ATOM     28  C   UNL     1       5.957   3.690  15.464  0.00  0.00    +0.000 A 
BRANCH  23  32
ATOM     29  C   UNL     1       8.988   5.810  12.997  0.00  0.00    +0.000 C 
ATOM     30  C   UNL     1       7.667   5.219  13.415  0.00  0.00    +0.000 C 
ATOM     31  O   UNL     1       7.022   4.528  12.634  0.00  0.00    +0.000 OA
ATOM     32  N   UNL     1       7.315   5.545  14.717  0.00  0.00    +0.000 N 
ATOM     33  H   UNL     1       7.871   6.251  15.181  0.00  0.00    +0.000 HD
ENDBRANCH  23  32
ENDBRANCH  20  26
ENDBRANCH  18  20
ENDBRANCH   1  18
TORSDOF 9
ENDMDL
