MODEL 1
REMARK VINA RESULT:      -8.1      0.000      0.000
REMARK  Name = 
REMARK  3 active torsions:
REMARK  status: ('A' for Active; 'I' for Inactive)
REMARK    1  A    between atoms: C_1  and  N_2
REMARK    2  A    between atoms: C_8  and  S_9
REMARK    3  A    between atoms: S_9  and  N_12
REMARK                            x       y       z     vdW  Elec       q    Type
REMARK                         _______ _______ _______ _____ _____    ______ ____
ROOT
ATOM      1  C   UNL     1       0.962   4.420  20.607  0.00  0.00    +0.000 C 
ATOM      2  N   UNL     1       1.513   3.906  19.387  0.00  0.00    +0.000 N 
ATOM      3  C   UNL     1       1.117   2.760  18.724  0.00  0.00    +0.000 A 
ATOM      4  O   UNL     1       0.204   2.009  19.053  0.00  0.00    +0.000 OA
ATOM      5  O   UNL     1       1.920   2.535  17.592  0.00  0.00    +0.000 OA
ATOM      6  C   UNL     1       2.801   3.609  17.625  0.00  0.00    +0.000 A 
ATOM      7  C   UNL     1       3.822   3.833  16.723  0.00  0.00    +0.000 A 
ATOM      8  C   UNL     1       4.616   4.966  16.940  0.00  0.00    +0.000 A 
ATOM      9  C   UNL     1       4.333   5.862  18.000  0.00  0.00    +0.000 A 
ATOM     10  C   UNL     1       3.301   5.595  18.909  0.00  0.00    +0.000 A 
ATOM     11  C   UNL     1       2.565   4.451  18.694  0.00  0.00    +0.000 A 
ENDROOT
BRANCH   8  12
ATOM     12  S   UNL     1       6.004   5.302  15.867  0.00  0.00    +0.000 S 
ATOM     13  O   UNL     1       6.345   4.057  15.214  0.00  0.00    +0.000 OA
ATOM     14  O   UNL     1       5.653   6.482  15.097  0.00  0.00    +0.000 OA
BRANCH  12  15
ATOM     15  N   UNL     1       7.249   5.742  16.893  0.00  0.00    +0.000 NA
ATOM     16  C   UNL     1       7.703   4.864  17.976  0.00  0.00    +0.000 C 
ATOM     17  C   UNL     1       7.757   5.768  19.194  0.00  0.00    +0.000 C 
ATOM     18  C   UNL     1       8.153   7.117  18.617  0.00  0.00    +0.000 C 
ATOM     19  C   UNL     1       7.501   7.153  17.234  0.00  0.00    +0.000 C 
ENDBRANCH  12  15
ENDBRANCH   8  12
TORSDOF 2
ENDMDL
MODEL 2
REMARK VINA RESULT:      -7.4      1.943      6.049
REMARK  Name = 
REMARK  3 active torsions:
REMARK  status: ('A' for Active; 'I' for Inactive)
REMARK    1  A    between atoms: C_1  and  N_2
REMARK    2  A    between atoms: C_8  and  S_9
REMARK    3  A    between atoms: S_9  and  N_12
REMARK                            x       y       z     vdW  Elec       q    Type
REMARK                         _______ _______ _______ _____ _____    ______ ____
ROOT
ATOM      1  C   UNL     1       8.257   6.124  19.175  0.00  0.00    +0.000 C 
ATOM      2  N   UNL     1       7.103   6.237  18.331  0.00  0.00    +0.000 N 
ATOM      3  C   UNL     1       6.879   7.203  17.368  0.00  0.00    +0.000 A 
ATOM      4  O   UNL     1       7.648   8.105  17.053  0.00  0.00    +0.000 OA
ATOM      5  O   UNL     1       5.615   7.036  16.778  0.00  0.00    +0.000 OA
ATOM      6  C   UNL     1       5.113   5.922  17.440  0.00  0.00    +0.000 A 
ATOM      7  C   UNL     1       3.868   5.362  17.232  0.00  0.00    +0.000 A 
ATOM      8  C   UNL     1       3.541   4.249  18.017  0.00  0.00    +0.000 A 
ATOM      9  C   UNL     1       4.475   3.699  18.928  0.00  0.00    +0.000 A 
ATOM     10  C   UNL     1       5.723   4.304  19.128  0.00  0.00    +0.000 A 
ATOM     11  C   UNL     1       5.999   5.421  18.373  0.00  0.00    +0.000 A 
ENDROOT
BRANCH   8  12
ATOM     12  S   UNL     1       1.926   3.499  17.871  0.00  0.00    +0.000 S 
ATOM     13  O   UNL     1       1.088   4.434  17.152  0.00  0.00    +0.000 OA
ATOM     14  O   UNL     1       2.142   2.150  17.375  0.00  0.00    +0.000 OA
BRANCH  12  15
ATOM     15  N   UNL     1       1.369   3.359  19.441  0.00  0.00    +0.000 NA
ATOM     16  C   UNL     1       1.339   4.504  20.355  0.00  0.00    +0.000 C 
ATOM     17  C   UNL     1       1.981   3.986  21.628  0.00  0.00    +0.000 C 
ATOM     18  C   UNL     1       1.566   2.525  21.665  0.00  0.00    +0.000 C 
ATOM     19  C   UNL     1       1.509   2.101  20.196  0.00  0.00    +0.000 C 
ENDBRANCH  12  15
ENDBRANCH   8  12
TORSDOF 2
ENDMDL
MODEL 3
REMARK VINA RESULT:      -7.2      2.844      6.261
REMARK  Name = 
REMARK  3 active torsions:
REMARK  status: ('A' for Active; 'I' for Inactive)
REMARK    1  A    between atoms: C_1  and  N_2
REMARK    2  A    between atoms: C_8  and  S_9
REMARK    3  A    between atoms: S_9  and  N_12
REMARK                            x       y       z     vdW  Elec       q    Type
REMARK                         _______ _______ _______ _____ _____    ______ ____
ROOT
ATOM      1  C   UNL     1       6.297   3.653  12.396  0.00  0.00    +0.000 C 
ATOM      2  N   UNL     1       6.655   4.371  13.585  0.00  0.00    +0.000 N 
ATOM      3  C   UNL     1       7.677   5.291  13.714  0.00  0.00    +0.000 A 
ATOM      4  O   UNL     1       8.428   5.673  12.822  0.00  0.00    +0.000 OA
ATOM      5  O   UNL     1       7.772   5.748  15.040  0.00  0.00    +0.000 OA
ATOM      6  C   UNL     1       6.752   5.053  15.677  0.00  0.00    +0.000 A 
ATOM      7  C   UNL     1       6.445   5.137  17.020  0.00  0.00    +0.000 A 
ATOM      8  C   UNL     1       5.388   4.338  17.475  0.00  0.00    +0.000 A 
ATOM      9  C   UNL     1       4.641   3.537  16.577  0.00  0.00    +0.000 A 
ATOM     10  C   UNL     1       4.992   3.460  15.223  0.00  0.00    +0.000 A 
ATOM     11  C   UNL     1       6.061   4.225  14.814  0.00  0.00    +0.000 A 
ENDROOT
BRANCH   8  12
ATOM     12  S   UNL     1       4.962   4.325  19.210  0.00  0.00    +0.000 S 
ATOM     13  O   UNL     1       5.274   3.005  19.713  0.00  0.00    +0.000 OA
ATOM     14  O   UNL     1       5.567   5.512  19.790  0.00  0.00    +0.000 OA
BRANCH  12  15
ATOM     15  N   UNL     1       3.306   4.552  19.252  0.00  0.00    +0.000 NA
ATOM     16  C   UNL     1       2.712   5.834  19.640  0.00  0.00    +0.000 C 
ATOM     17  C   UNL     1       1.652   5.464  20.660  0.00  0.00    +0.000 C 
ATOM     18  C   UNL     1       1.156   4.110  20.180  0.00  0.00    +0.000 C 
ATOM     19  C   UNL     1       2.387   3.443  19.563  0.00  0.00    +0.000 C 
ENDBRANCH  12  15
ENDBRANCH   8  12
TORSDOF 2
ENDMDL
MODEL 4
REMARK VINA RESULT:      -7.0      2.942      6.001
REMARK  Name = 
REMARK  3 active torsions:
REMARK  status: ('A' for Active; 'I' for Inactive)
REMARK    1  A    between atoms: C_1  and  N_2
REMARK    2  A    between atoms: C_8  and  S_9
REMARK    3  A    between atoms: S_9  and  N_12
REMARK                            x       y       z     vdW  Elec       q    Type
REMARK                         _______ _______ _______ _____ _____    ______ ____
ROOT
ATOM      1  C   UNL     1       6.039   3.517  12.405  0.00  0.00    +0.000 C 
ATOM      2  N   UNL     1       6.547   4.276  13.511  0.00  0.00    +0.000 N 
ATOM      3  C   UNL     1       7.595   5.175  13.479  0.00  0.00    +0.000 A 
ATOM      4  O   UNL     1       8.245   5.498  12.491  0.00  0.00    +0.000 OA
ATOM      5  O   UNL     1       7.852   5.687  14.763  0.00  0.00    +0.000 OA
ATOM      6  C   UNL     1       6.899   5.046  15.544  0.00  0.00    +0.000 A 
ATOM      7  C   UNL     1       6.751   5.196  16.909  0.00  0.00    +0.000 A 
ATOM      8  C   UNL     1       5.739   4.444  17.518  0.00  0.00    +0.000 A 
ATOM      9  C   UNL     1       4.877   3.624  16.750  0.00  0.00    +0.000 A 
ATOM     10  C   UNL     1       5.067   3.480  15.369  0.00  0.00    +0.000 A 
ATOM     11  C   UNL     1       6.096   4.199  14.806  0.00  0.00    +0.000 A 
ENDROOT
BRANCH   8  12
ATOM     12  S   UNL     1       5.517   4.518  19.290  0.00  0.00    +0.000 S 
ATOM     13  O   UNL     1       5.292   3.163  19.745  0.00  0.00    +0.000 OA
ATOM     14  O   UNL     1       6.617   5.312  19.809  0.00  0.00    +0.000 OA
BRANCH  12  15
ATOM     15  N   UNL     1       4.122   5.411  19.515  0.00  0.00    +0.000 NA
ATOM     16  C   UNL     1       2.939   4.845  20.171  0.00  0.00    +0.000 C 
ATOM     17  C   UNL     1       1.790   5.201  19.247  0.00  0.00    +0.000 C 
ATOM     18  C   UNL     1       2.203   6.544  18.669  0.00  0.00    +0.000 C 
ATOM     19  C   UNL     1       3.728   6.472  18.570  0.00  0.00    +0.000 C 
ENDBRANCH  12  15
ENDBRANCH   8  12
TORSDOF 2
ENDMDL
MODEL 5
REMARK VINA RESULT:      -7.0      2.258      2.974
REMARK  Name = 
REMARK  3 active torsions:
REMARK  status: ('A' for Active; 'I' for Inactive)
REMARK    1  A    between atoms: C_1  and  N_2
REMARK    2  A    between atoms: C_8  and  S_9
REMARK    3  A    between atoms: S_9  and  N_12
REMARK                            x       y       z     vdW  Elec       q    Type
REMARK                         _______ _______ _______ _____ _____    ______ ____
ROOT
ATOM      1  C   UNL     1       1.443   5.051  20.451  0.00  0.00    +0.000 C 
ATOM      2  N   UNL     1       2.285   4.287  19.576  0.00  0.00    +0.000 N 
ATOM      3  C   UNL     1       2.201   2.930  19.333  0.00  0.00    +0.000 A 
ATOM      4  O   UNL     1       1.371   2.158  19.800  0.00  0.00    +0.000 OA
ATOM      5  O   UNL     1       3.226   2.515  18.465  0.00  0.00    +0.000 OA
ATOM      6  C   UNL     1       3.909   3.697  18.211  0.00  0.00    +0.000 A 
ATOM      7  C   UNL     1       5.033   3.817  17.418  0.00  0.00    +0.000 A 
ATOM      8  C   UNL     1       5.588   5.098  17.302  0.00  0.00    +0.000 A 
ATOM      9  C   UNL     1       4.977   6.216  17.922  0.00  0.00    +0.000 A 
ATOM     10  C   UNL     1       3.848   6.056  18.736  0.00  0.00    +0.000 A 
ATOM     11  C   UNL     1       3.351   4.778  18.864  0.00  0.00    +0.000 A 
ENDROOT
BRANCH   8  12
ATOM     12  S   UNL     1       7.083   5.340  16.355  0.00  0.00    +0.000 S 
ATOM     13  O   UNL     1       7.521   6.698  16.594  0.00  0.00    +0.000 OA
ATOM     14  O   UNL     1       7.946   4.209  16.653  0.00  0.00    +0.000 OA
BRANCH  12  15
ATOM     15  N   UNL     1       6.614   5.188  14.758  0.00  0.00    +0.000 NA
ATOM     16  C   UNL     1       5.449   4.388  14.368  0.00  0.00    +0.000 C 
ATOM     17  C   UNL     1       5.953   3.520  13.230  0.00  0.00    +0.000 C 
ATOM     18  C   UNL     1       6.975   4.404  12.536  0.00  0.00    +0.000 C 
ATOM     19  C   UNL     1       7.597   5.234  13.661  0.00  0.00    +0.000 C 
ENDBRANCH  12  15
ENDBRANCH   8  12
TORSDOF 2
ENDMDL
MODEL 6
REMARK VINA RESULT:      -7.0      1.318      1.880
REMARK  Name = 
REMARK  3 active torsions:
REMARK  status: ('A' for Active; 'I' for Inactive)
REMARK    1  A    between atoms: C_1  and  N_2
REMARK    2  A    between atoms: C_8  and  S_9
REMARK    3  A    between atoms: S_9  and  N_12
REMARK                            x       y       z     vdW  Elec       q    Type
REMARK                         _______ _______ _______ _____ _____    ______ ____
ROOT
ATOM      1  C   UNL     1       1.067   1.918  19.322  0.00  0.00    +0.000 C 
ATOM      2  N   UNL     1       1.970   3.028  19.421  0.00  0.00    +0.000 N 
ATOM      3  C   UNL     1       2.068   3.916  20.476  0.00  0.00    +0.000 A 
ATOM      4  O   UNL     1       1.422   3.881  21.517  0.00  0.00    +0.000 OA
ATOM      5  O   UNL     1       3.022   4.912  20.202  0.00  0.00    +0.000 OA
ATOM      6  C   UNL     1       3.478   4.559  18.938  0.00  0.00    +0.000 A 
ATOM      7  C   UNL     1       4.422   5.252  18.206  0.00  0.00    +0.000 A 
ATOM      8  C   UNL     1       4.734   4.742  16.939  0.00  0.00    +0.000 A 
ATOM      9  C   UNL     1       4.148   3.540  16.472  0.00  0.00    +0.000 A 
ATOM     10  C   UNL     1       3.178   2.872  17.232  0.00  0.00    +0.000 A 
ATOM     11  C   UNL     1       2.863   3.421  18.455  0.00  0.00    +0.000 A 
ENDROOT
BRANCH   8  12
ATOM     12  S   UNL     1       5.892   5.609  15.890  0.00  0.00    +0.000 S 
ATOM     13  O   UNL     1       6.305   4.681  14.860  0.00  0.00    +0.000 OA
ATOM     14  O   UNL     1       5.270   6.878  15.553  0.00  0.00    +0.000 OA
BRANCH  12  15
ATOM     15  N   UNL     1       7.197   5.951  16.876  0.00  0.00    +0.000 NA
ATOM     16  C   UNL     1       7.721   4.971  17.833  0.00  0.00    +0.000 C 
ATOM     17  C   UNL     1       7.850   5.745  19.131  0.00  0.00    +0.000 C 
ATOM     18  C   UNL     1       8.206   7.150  18.674  0.00  0.00    +0.000 C 
ATOM     19  C   UNL     1       7.468   7.323  17.345  0.00  0.00    +0.000 C 
ENDBRANCH  12  15
ENDBRANCH   8  12
TORSDOF 2
ENDMDL
MODEL 7
REMARK VINA RESULT:      -6.9      1.595      2.302
REMARK  Name = 
REMARK  3 active torsions:
REMARK  status: ('A' for Active; 'I' for Inactive)
REMARK    1  A    between atoms: C_1  and  N_2
REMARK    2  A    between atoms: C_8  and  S_9
REMARK    3  A    between atoms: S_9  and  N_12
REMARK                            x       y       z     vdW  Elec       q    Type
REMARK                         _______ _______ _______ _____ _____    ______ ____
ROOT
ATOM      1  C   UNL     1       0.751   2.280  18.738  0.00  0.00    +0.000 C 
ATOM      2  N   UNL     1       1.892   3.010  19.210  0.00  0.00    +0.000 N 
ATOM      3  C   UNL     1       2.087   3.495  20.489  0.00  0.00    +0.000 A 
ATOM      4  O   UNL     1       1.330   3.352  21.443  0.00  0.00    +0.000 OA
ATOM      5  O   UNL     1       3.294   4.211  20.572  0.00  0.00    +0.000 OA
ATOM      6  C   UNL     1       3.795   4.117  19.280  0.00  0.00    +0.000 A 
ATOM      7  C   UNL     1       4.970   4.688  18.835  0.00  0.00    +0.000 A 
ATOM      8  C   UNL     1       5.293   4.493  17.486  0.00  0.00    +0.000 A 
ATOM      9  C   UNL     1       4.477   3.693  16.649  0.00  0.00    +0.000 A 
ATOM     10  C   UNL     1       3.280   3.143  17.129  0.00  0.00    +0.000 A 
ATOM     11  C   UNL     1       2.969   3.388  18.447  0.00  0.00    +0.000 A 
ENDROOT
BRANCH   8  12
ATOM     12  S   UNL     1       6.758   5.253  16.800  0.00  0.00    +0.000 S 
ATOM     13  O   UNL     1       7.841   4.309  16.966  0.00  0.00    +0.000 OA
ATOM     14  O   UNL     1       6.387   5.748  15.486  0.00  0.00    +0.000 OA
BRANCH  12  15
ATOM     15  N   UNL     1       7.042   6.590  17.762  0.00  0.00    +0.000 NA
ATOM     16  C   UNL     1       6.718   7.948  17.313  0.00  0.00    +0.000 C 
ATOM     17  C   UNL     1       7.971   8.751  17.607  0.00  0.00    +0.000 C 
ATOM     18  C   UNL     1       8.523   8.099  18.864  0.00  0.00    +0.000 C 
ATOM     19  C   UNL     1       8.157   6.620  18.727  0.00  0.00    +0.000 C 
ENDBRANCH  12  15
ENDBRANCH   8  12
TORSDOF 2
ENDMDL
MODEL 8
REMARK VINA RESULT:      -6.9      4.008      5.692
REMARK  Name = 
REMARK  3 active torsions:
REMARK  status: ('A' for Active; 'I' for Inactive)
REMARK    1  A    between atoms: C_1  and  N_2
REMARK    2  A    between atoms: C_8  and  S_9
REMARK    3  A    between atoms: S_9  and  N_12
REMARK                            x       y       z     vdW  Elec       q    Type
REMARK                         _______ _______ _______ _____ _____    ______ ____
ROOT
ATOM      1  C   UNL     1       0.826  11.002  18.930  0.00  0.00    +0.000 C 
ATOM      2  N   UNL     1       1.069   9.773  19.627  0.00  0.00    +0.000 N 
ATOM      3  C   UNL     1       0.706   9.479  20.927  0.00  0.00    +0.000 A 
ATOM      4  O   UNL     1       0.085  10.210  21.691  0.00  0.00    +0.000 OA
ATOM      5  O   UNL     1       1.159   8.200  21.295  0.00  0.00    +0.000 OA
ATOM      6  C   UNL     1       1.801   7.761  20.144  0.00  0.00    +0.000 A 
ATOM      7  C   UNL     1       2.446   6.548  20.001  0.00  0.00    +0.000 A 
ATOM      8  C   UNL     1       3.051   6.300  18.763  0.00  0.00    +0.000 A 
ATOM      9  C   UNL     1       2.942   7.228  17.699  0.00  0.00    +0.000 A 
ATOM     10  C   UNL     1       2.296   8.458  17.883  0.00  0.00    +0.000 A 
ATOM     11  C   UNL     1       1.748   8.691  19.124  0.00  0.00    +0.000 A 
ENDROOT
BRANCH   8  12
ATOM     12  S   UNL     1       3.970   4.789  18.506  0.00  0.00    +0.000 S 
ATOM     13  O   UNL     1       4.156   4.644  17.079  0.00  0.00    +0.000 OA
ATOM     14  O   UNL     1       5.106   4.841  19.411  0.00  0.00    +0.000 OA
BRANCH  12  15
ATOM     15  N   UNL     1       2.964   3.572  19.056  0.00  0.00    +0.000 NA
ATOM     16  C   UNL     1       1.588   3.429  18.570  0.00  0.00    +0.000 C 
ATOM     17  C   UNL     1       0.759   3.275  19.831  0.00  0.00    +0.000 C 
ATOM     18  C   UNL     1       1.686   2.530  20.776  0.00  0.00    +0.000 C 
ATOM     19  C   UNL     1       3.086   3.032  20.422  0.00  0.00    +0.000 C 
ENDBRANCH  12  15
ENDBRANCH   8  12
TORSDOF 2
ENDMDL
MODEL 9
REMARK VINA RESULT:      -6.9      2.570      3.354
REMARK  Name = 
REMARK  3 active torsions:
REMARK  status: ('A' for Active; 'I' for Inactive)
REMARK    1  A    between atoms: C_1  and  N_2
REMARK    2  A    between atoms: C_8  and  S_9
REMARK    3  A    between atoms: S_9  and  N_12
REMARK                            x       y       z     vdW  Elec       q    Type
REMARK                         _______ _______ _______ _____ _____    ______ ____
ROOT
ATOM      1  C   UNL     1       1.546   6.671  20.306  0.00  0.00    +0.000 C 
ATOM      2  N   UNL     1       2.538   5.697  19.953  0.00  0.00    +0.000 N 
ATOM      3  C   UNL     1       2.707   4.451  20.524  0.00  0.00    +0.000 A 
ATOM      4  O   UNL     1       2.014   3.956  21.406  0.00  0.00    +0.000 OA
ATOM      5  O   UNL     1       3.818   3.793  19.967  0.00  0.00    +0.000 OA
ATOM      6  C   UNL     1       4.285   4.716  19.039  0.00  0.00    +0.000 A 
ATOM      7  C   UNL     1       5.395   4.548  18.234  0.00  0.00    +0.000 A 
ATOM      8  C   UNL     1       5.714   5.607  17.376  0.00  0.00    +0.000 A 
ATOM      9  C   UNL     1       4.894   6.759  17.302  0.00  0.00    +0.000 A 
ATOM     10  C   UNL     1       3.785   6.905  18.147  0.00  0.00    +0.000 A 
ATOM     11  C   UNL     1       3.521   5.865  19.009  0.00  0.00    +0.000 A 
ENDROOT
BRANCH   8  12
ATOM     12  S   UNL     1       7.172   5.512  16.347  0.00  0.00    +0.000 S 
ATOM     13  O   UNL     1       7.808   6.810  16.394  0.00  0.00    +0.000 OA
ATOM     14  O   UNL     1       7.884   4.312  16.752  0.00  0.00    +0.000 OA
BRANCH  12  15
ATOM     15  N   UNL     1       6.595   5.239  14.802  0.00  0.00    +0.000 NA
ATOM     16  C   UNL     1       5.394   4.435  14.557  0.00  0.00    +0.000 C 
ATOM     17  C   UNL     1       5.806   3.466  13.465  0.00  0.00    +0.000 C 
ATOM     18  C   UNL     1       6.795   4.267  12.635  0.00  0.00    +0.000 C 
ATOM     19  C   UNL     1       7.504   5.172  13.643  0.00  0.00    +0.000 C 
ENDBRANCH  12  15
ENDBRANCH   8  12
TORSDOF 2
ENDMDL
