MODEL 1
REMARK VINA RESULT:      -6.7      0.000      0.000
REMARK  Name = 
REMARK  7 active torsions:
REMARK  status: ('A' for Active; 'I' for Inactive)
REMARK    1  A    between atoms: C_1  and  C_2
REMARK    2  A    between atoms: C_2  and  C_3
REMARK    3  A    between atoms: C_3  and  N_4
REMARK    4  A    between atoms: N_4  and  C_5
REMARK    5  A    between atoms: N_4  and  C_8
REMARK    6  A    between atoms: C_5  and  C_6
REMARK    7  A    between atoms: C_6  and  C_7
REMARK                            x       y       z     vdW  Elec       q    Type
REMARK                         _______ _______ _______ _____ _____    ______ ____
ROOT
ATOM      1  C   UNL     1       4.379   5.220  16.701  0.00  0.00    +0.000 C 
ATOM      2  C   UNL     1       3.586   5.990  17.807  0.00  0.00    +0.000 C 
ATOM      3  C   UNL     1       2.204   5.358  18.074  0.00  0.00    +0.000 C 
ATOM      4  C   UNL     1       2.289   3.880  18.193  0.00  0.00    +0.000 A 
ATOM      5  C   UNL     1       1.349   2.974  18.630  0.00  0.00    +0.000 A 
ATOM      6  N   UNL     1       1.890   1.718  18.524  0.00  0.00    +0.000 N 
ATOM      7  C   UNL     1       3.160   1.807  18.017  0.00  0.00    +0.000 A 
ATOM      8  C   UNL     1       3.433   3.139  17.793  0.00  0.00    +0.000 A 
ATOM      9  C   UNL     1       4.662   3.773  17.231  0.00  0.00    +0.000 C 
ATOM     10  H   UNL     1       1.420   0.857  18.772  0.00  0.00    +0.000 HD
ENDROOT
BRANCH   1  11
ATOM     11  N   UNL     1       5.625   5.927  16.245  0.00  0.00    +0.000 NA
BRANCH  11  12
ATOM     12  C   UNL     1       6.023   6.971  17.218  0.00  0.00    +0.000 C 
BRANCH  12  14
ATOM     13  C   UNL     1       8.019   8.457  17.790  0.00  0.00    +0.000 C 
ATOM     14  C   UNL     1       7.501   7.034  17.635  0.00  0.00    +0.000 C 
ENDBRANCH  12  14
ENDBRANCH  11  12
BRANCH  11  15
ATOM     15  C   UNL     1       6.739   4.998  15.938  0.00  0.00    +0.000 C 
BRANCH  15  16
ATOM     16  C   UNL     1       7.117   4.865  14.454  0.00  0.00    +0.000 C 
ATOM     17  C   UNL     1       6.197   3.901  13.719  0.00  0.00    +0.000 C 
ENDBRANCH  15  16
ENDBRANCH  11  15
ENDBRANCH   1  11
TORSDOF 5
ENDMDL
MODEL 2
REMARK VINA RESULT:      -6.4      1.401      2.052
REMARK  Name = 
REMARK  7 active torsions:
REMARK  status: ('A' for Active; 'I' for Inactive)
REMARK    1  A    between atoms: C_1  and  C_2
REMARK    2  A    between atoms: C_2  and  C_3
REMARK    3  A    between atoms: C_3  and  N_4
REMARK    4  A    between atoms: N_4  and  C_5
REMARK    5  A    between atoms: N_4  and  C_8
REMARK    6  A    between atoms: C_5  and  C_6
REMARK    7  A    between atoms: C_6  and  C_7
REMARK                            x       y       z     vdW  Elec       q    Type
REMARK                         _______ _______ _______ _____ _____    ______ ____
ROOT
ATOM      1  C   UNL     1       4.502   4.501  18.004  0.00  0.00    +0.000 C 
ATOM      2  C   UNL     1       3.761   3.636  16.933  0.00  0.00    +0.000 C 
ATOM      3  C   UNL     1       2.862   2.562  17.580  0.00  0.00    +0.000 C 
ATOM      4  C   UNL     1       2.051   3.121  18.692  0.00  0.00    +0.000 A 
ATOM      5  C   UNL     1       0.991   2.569  19.377  0.00  0.00    +0.000 A 
ATOM      6  N   UNL     1       0.597   3.462  20.340  0.00  0.00    +0.000 N 
ATOM      7  C   UNL     1       1.397   4.574  20.288  0.00  0.00    +0.000 A 
ATOM      8  C   UNL     1       2.316   4.388  19.278  0.00  0.00    +0.000 A 
ATOM      9  C   UNL     1       3.419   5.283  18.824  0.00  0.00    +0.000 C 
ATOM     10  H   UNL     1      -0.159   3.318  20.996  0.00  0.00    +0.000 HD
ENDROOT
BRANCH   1  11
ATOM     11  N   UNL     1       5.559   5.402  17.428  0.00  0.00    +0.000 NA
BRANCH  11  12
ATOM     12  C   UNL     1       6.907   4.994  17.888  0.00  0.00    +0.000 C 
BRANCH  12  14
ATOM     13  C   UNL     1       7.923   7.328  18.079  0.00  0.00    +0.000 C 
ATOM     14  C   UNL     1       7.697   5.985  18.758  0.00  0.00    +0.000 C 
ENDBRANCH  12  14
ENDBRANCH  11  12
BRANCH  11  15
ATOM     15  C   UNL     1       5.484   5.515  15.952  0.00  0.00    +0.000 C 
BRANCH  15  16
ATOM     16  C   UNL     1       6.673   4.932  15.170  0.00  0.00    +0.000 C 
ATOM     17  C   UNL     1       6.218   3.967  14.083  0.00  0.00    +0.000 C 
ENDBRANCH  15  16
ENDBRANCH  11  15
ENDBRANCH   1  11
TORSDOF 5
ENDMDL
MODEL 3
REMARK VINA RESULT:      -6.4      1.657      3.072
REMARK  Name = 
REMARK  7 active torsions:
REMARK  status: ('A' for Active; 'I' for Inactive)
REMARK    1  A    between atoms: C_1  and  C_2
REMARK    2  A    between atoms: C_2  and  C_3
REMARK    3  A    between atoms: C_3  and  N_4
REMARK    4  A    between atoms: N_4  and  C_5
REMARK    5  A    between atoms: N_4  and  C_8
REMARK    6  A    between atoms: C_5  and  C_6
REMARK    7  A    between atoms: C_6  and  C_7
REMARK                            x       y       z     vdW  Elec       q    Type
REMARK                         _______ _______ _______ _____ _____    ______ ____
ROOT
ATOM      1  C   UNL     1       4.247   3.885  17.974  0.00  0.00    +0.000 C 
ATOM      2  C   UNL     1       3.095   4.883  17.621  0.00  0.00    +0.000 C 
ATOM      3  C   UNL     1       1.708   4.317  17.986  0.00  0.00    +0.000 C 
ATOM      4  C   UNL     1       1.700   3.713  19.343  0.00  0.00    +0.000 A 
ATOM      5  C   UNL     1       0.640   3.298  20.119  0.00  0.00    +0.000 A 
ATOM      6  N   UNL     1       1.146   2.778  21.283  0.00  0.00    +0.000 N 
ATOM      7  C   UNL     1       2.515   2.846  21.258  0.00  0.00    +0.000 A 
ATOM      8  C   UNL     1       2.889   3.415  20.061  0.00  0.00    +0.000 A 
ATOM      9  C   UNL     1       4.255   3.694  19.530  0.00  0.00    +0.000 C 
ATOM     10  H   UNL     1       0.595   2.393  22.038  0.00  0.00    +0.000 HD
ENDROOT
BRANCH   1  11
ATOM     11  N   UNL     1       5.588   4.291  17.431  0.00  0.00    +0.000 NA
BRANCH  11  12
ATOM     12  C   UNL     1       5.761   3.808  16.041  0.00  0.00    +0.000 C 
BRANCH  12  14
ATOM     13  C   UNL     1       6.957   4.836  14.033  0.00  0.00    +0.000 C 
ATOM     14  C   UNL     1       5.714   4.849  14.910  0.00  0.00    +0.000 C 
ENDBRANCH  12  14
ENDBRANCH  11  12
BRANCH  11  15
ATOM     15  C   UNL     1       5.847   5.746  17.551  0.00  0.00    +0.000 C 
BRANCH  15  16
ATOM     16  C   UNL     1       7.248   6.144  18.043  0.00  0.00    +0.000 C 
ATOM     17  C   UNL     1       7.636   7.541  17.577  0.00  0.00    +0.000 C 
ENDBRANCH  15  16
ENDBRANCH  11  15
ENDBRANCH   1  11
TORSDOF 5
ENDMDL
MODEL 4
REMARK VINA RESULT:      -6.4      2.424      5.359
REMARK  Name = 
REMARK  7 active torsions:
REMARK  status: ('A' for Active; 'I' for Inactive)
REMARK    1  A    between atoms: C_1  and  C_2
REMARK    2  A    between atoms: C_2  and  C_3
REMARK    3  A    between atoms: C_3  and  N_4
REMARK    4  A    between atoms: N_4  and  C_5
REMARK    5  A    between atoms: N_4  and  C_8
REMARK    6  A    between atoms: C_5  and  C_6
REMARK    7  A    between atoms: C_6  and  C_7
REMARK                            x       y       z     vdW  Elec       q    Type
REMARK                         _______ _______ _______ _____ _____    ______ ____
ROOT
ATOM      1  C   UNL     1       3.798   5.641  18.668  0.00  0.00    +0.000 C 
ATOM      2  C   UNL     1       3.319   4.432  17.799  0.00  0.00    +0.000 C 
ATOM      3  C   UNL     1       4.177   4.258  16.529  0.00  0.00    +0.000 C 
ATOM      4  C   UNL     1       5.629   4.355  16.828  0.00  0.00    +0.000 A 
ATOM      5  C   UNL     1       6.715   4.053  16.037  0.00  0.00    +0.000 A 
ATOM      6  N   UNL     1       7.851   4.341  16.751  0.00  0.00    +0.000 N 
ATOM      7  C   UNL     1       7.505   4.833  17.983  0.00  0.00    +0.000 A 
ATOM      8  C   UNL     1       6.130   4.862  18.057  0.00  0.00    +0.000 A 
ATOM      9  C   UNL     1       5.250   5.327  19.168  0.00  0.00    +0.000 C 
ATOM     10  H   UNL     1       8.797   4.220  16.415  0.00  0.00    +0.000 HD
ENDROOT
BRANCH   1  11
ATOM     11  N   UNL     1       2.860   5.991  19.789  0.00  0.00    +0.000 NA
BRANCH  11  12
ATOM     12  C   UNL     1       2.203   7.295  19.537  0.00  0.00    +0.000 C 
BRANCH  12  14
ATOM     13  C   UNL     1       1.646   9.253  17.996  0.00  0.00    +0.000 C 
ATOM     14  C   UNL     1       2.347   7.910  18.136  0.00  0.00    +0.000 C 
ENDBRANCH  12  14
ENDBRANCH  11  12
BRANCH  11  15
ATOM     15  C   UNL     1       1.877   4.919  20.079  0.00  0.00    +0.000 C 
BRANCH  15  16
ATOM     16  C   UNL     1       2.147   4.080  21.339  0.00  0.00    +0.000 C 
ATOM     17  C   UNL     1       1.389   2.759  21.313  0.00  0.00    +0.000 C 
ENDBRANCH  15  16
ENDBRANCH  11  15
ENDBRANCH   1  11
TORSDOF 5
ENDMDL
MODEL 5
REMARK VINA RESULT:      -6.4      1.520      1.677
REMARK  Name = 
REMARK  7 active torsions:
REMARK  status: ('A' for Active; 'I' for Inactive)
REMARK    1  A    between atoms: C_1  and  C_2
REMARK    2  A    between atoms: C_2  and  C_3
REMARK    3  A    between atoms: C_3  and  N_4
REMARK    4  A    between atoms: N_4  and  C_5
REMARK    5  A    between atoms: N_4  and  C_8
REMARK    6  A    between atoms: C_5  and  C_6
REMARK    7  A    between atoms: C_6  and  C_7
REMARK                            x       y       z     vdW  Elec       q    Type
REMARK                         _______ _______ _______ _____ _____    ______ ____
ROOT
ATOM      1  C   UNL     1       4.514   4.470  17.657  0.00  0.00    +0.000 C 
ATOM      2  C   UNL     1       3.534   5.686  17.743  0.00  0.00    +0.000 C 
ATOM      3  C   UNL     1       2.102   5.249  18.113  0.00  0.00    +0.000 C 
ATOM      4  C   UNL     1       2.096   4.283  19.241  0.00  0.00    +0.000 A 
ATOM      5  C   UNL     1       1.046   3.820  20.002  0.00  0.00    +0.000 A 
ATOM      6  N   UNL     1       1.544   2.913  20.904  0.00  0.00    +0.000 N 
ATOM      7  C   UNL     1       2.896   2.783  20.723  0.00  0.00    +0.000 A 
ATOM      8  C   UNL     1       3.268   3.615  19.690  0.00  0.00    +0.000 A 
ATOM      9  C   UNL     1       4.614   3.833  19.086  0.00  0.00    +0.000 C 
ATOM     10  H   UNL     1       0.995   2.410  21.588  0.00  0.00    +0.000 HD
ENDROOT
BRANCH   1  11
ATOM     11  N   UNL     1       5.858   4.815  17.079  0.00  0.00    +0.000 NA
BRANCH  11  12
ATOM     12  C   UNL     1       6.911   4.752  18.120  0.00  0.00    +0.000 C 
BRANCH  12  14
ATOM     13  C   UNL     1       7.395   7.178  17.486  0.00  0.00    +0.000 C 
ATOM     14  C   UNL     1       7.626   6.060  18.494  0.00  0.00    +0.000 C 
ENDBRANCH  12  14
ENDBRANCH  11  12
BRANCH  11  15
ATOM     15  C   UNL     1       6.203   4.001  15.888  0.00  0.00    +0.000 C 
BRANCH  15  16
ATOM     16  C   UNL     1       5.521   4.409  14.572  0.00  0.00    +0.000 C 
ATOM     17  C   UNL     1       6.221   3.807  13.360  0.00  0.00    +0.000 C 
ENDBRANCH  15  16
ENDBRANCH  11  15
ENDBRANCH   1  11
TORSDOF 5
ENDMDL
MODEL 6
REMARK VINA RESULT:      -6.3      1.382      3.105
REMARK  Name = 
REMARK  7 active torsions:
REMARK  status: ('A' for Active; 'I' for Inactive)
REMARK    1  A    between atoms: C_1  and  C_2
REMARK    2  A    between atoms: C_2  and  C_3
REMARK    3  A    between atoms: C_3  and  N_4
REMARK    4  A    between atoms: N_4  and  C_5
REMARK    5  A    between atoms: N_4  and  C_8
REMARK    6  A    between atoms: C_5  and  C_6
REMARK    7  A    between atoms: C_6  and  C_7
REMARK                            x       y       z     vdW  Elec       q    Type
REMARK                         _______ _______ _______ _____ _____    ______ ____
ROOT
ATOM      1  C   UNL     1       4.711   4.549  17.615  0.00  0.00    +0.000 C 
ATOM      2  C   UNL     1       3.719   5.757  17.668  0.00  0.00    +0.000 C 
ATOM      3  C   UNL     1       2.275   5.305  17.968  0.00  0.00    +0.000 C 
ATOM      4  C   UNL     1       2.225   4.327  19.085  0.00  0.00    +0.000 A 
ATOM      5  C   UNL     1       1.144   3.848  19.792  0.00  0.00    +0.000 A 
ATOM      6  N   UNL     1       1.607   2.935  20.705  0.00  0.00    +0.000 N 
ATOM      7  C   UNL     1       2.967   2.817  20.585  0.00  0.00    +0.000 A 
ATOM      8  C   UNL     1       3.379   3.663  19.580  0.00  0.00    +0.000 A 
ATOM      9  C   UNL     1       4.750   3.897  19.040  0.00  0.00    +0.000 C 
ATOM     10  H   UNL     1       1.031   2.421  21.358  0.00  0.00    +0.000 HD
ENDROOT
BRANCH   1  11
ATOM     11  N   UNL     1       6.077   4.910  17.102  0.00  0.00    +0.000 NA
BRANCH  11  12
ATOM     12  C   UNL     1       6.401   4.137  15.880  0.00  0.00    +0.000 C 
BRANCH  12  14
ATOM     13  C   UNL     1       6.160   3.767  13.365  0.00  0.00    +0.000 C 
ATOM     14  C   UNL     1       5.595   4.442  14.607  0.00  0.00    +0.000 C 
ENDBRANCH  12  14
ENDBRANCH  11  12
BRANCH  11  15
ATOM     15  C   UNL     1       6.256   6.368  16.903  0.00  0.00    +0.000 C 
BRANCH  15  16
ATOM     16  C   UNL     1       7.427   7.014  17.663  0.00  0.00    +0.000 C 
ATOM     17  C   UNL     1       7.857   6.177  18.859  0.00  0.00    +0.000 C 
ENDBRANCH  15  16
ENDBRANCH  11  15
ENDBRANCH   1  11
TORSDOF 5
ENDMDL
MODEL 7
REMARK VINA RESULT:      -6.3      2.130      5.641
REMARK  Name = 
REMARK  7 active torsions:
REMARK  status: ('A' for Active; 'I' for Inactive)
REMARK    1  A    between atoms: C_1  and  C_2
REMARK    2  A    between atoms: C_2  and  C_3
REMARK    3  A    between atoms: C_3  and  N_4
REMARK    4  A    between atoms: N_4  and  C_5
REMARK    5  A    between atoms: N_4  and  C_8
REMARK    6  A    between atoms: C_5  and  C_6
REMARK    7  A    between atoms: C_6  and  C_7
REMARK                            x       y       z     vdW  Elec       q    Type
REMARK                         _______ _______ _______ _____ _____    ______ ____
ROOT
ATOM      1  C   UNL     1       3.991   5.155  18.632  0.00  0.00    +0.000 C 
ATOM      2  C   UNL     1       4.225   5.437  17.111  0.00  0.00    +0.000 C 
ATOM      3  C   UNL     1       5.185   6.623  16.884  0.00  0.00    +0.000 C 
ATOM      4  C   UNL     1       6.384   6.535  17.757  0.00  0.00    +0.000 A 
ATOM      5  C   UNL     1       7.557   7.255  17.721  0.00  0.00    +0.000 A 
ATOM      6  N   UNL     1       8.347   6.829  18.759  0.00  0.00    +0.000 N 
ATOM      7  C   UNL     1       7.691   5.853  19.463  0.00  0.00    +0.000 A 
ATOM      8  C   UNL     1       6.464   5.655  18.870  0.00  0.00    +0.000 A 
ATOM      9  C   UNL     1       5.363   4.725  19.256  0.00  0.00    +0.000 C 
ATOM     10  H   UNL     1       9.267   7.187  18.977  0.00  0.00    +0.000 HD
ENDROOT
BRANCH   1  11
ATOM     11  N   UNL     1       2.893   4.166  18.903  0.00  0.00    +0.000 NA
BRANCH  11  12
ATOM     12  C   UNL     1       1.847   4.764  19.766  0.00  0.00    +0.000 C 
BRANCH  12  14
ATOM     13  C   UNL     1       2.221   2.977  21.550  0.00  0.00    +0.000 C 
ATOM     14  C   UNL     1       1.212   3.871  20.844  0.00  0.00    +0.000 C 
ENDBRANCH  12  14
ENDBRANCH  11  12
BRANCH  11  15
ATOM     15  C   UNL     1       2.324   3.576  17.667  0.00  0.00    +0.000 C 
BRANCH  15  16
ATOM     16  C   UNL     1       2.586   2.076  17.452  0.00  0.00    +0.000 C 
ATOM     17  C   UNL     1       3.545   1.514  18.494  0.00  0.00    +0.000 C 
ENDBRANCH  15  16
ENDBRANCH  11  15
ENDBRANCH   1  11
TORSDOF 5
ENDMDL
MODEL 8
REMARK VINA RESULT:      -6.3      0.860      1.056
REMARK  Name = 
REMARK  7 active torsions:
REMARK  status: ('A' for Active; 'I' for Inactive)
REMARK    1  A    between atoms: C_1  and  C_2
REMARK    2  A    between atoms: C_2  and  C_3
REMARK    3  A    between atoms: C_3  and  N_4
REMARK    4  A    between atoms: N_4  and  C_5
REMARK    5  A    between atoms: N_4  and  C_8
REMARK    6  A    between atoms: C_5  and  C_6
REMARK    7  A    between atoms: C_6  and  C_7
REMARK                            x       y       z     vdW  Elec       q    Type
REMARK                         _______ _______ _______ _____ _____    ______ ____
ROOT
ATOM      1  C   UNL     1       4.264   5.176  16.933  0.00  0.00    +0.000 C 
ATOM      2  C   UNL     1       3.596   5.930  18.129  0.00  0.00    +0.000 C 
ATOM      3  C   UNL     1       2.190   5.380  18.446  0.00  0.00    +0.000 C 
ATOM      4  C   UNL     1       2.175   3.895  18.479  0.00  0.00    +0.000 A 
ATOM      5  C   UNL     1       1.199   3.031  18.923  0.00  0.00    +0.000 A 
ATOM      6  N   UNL     1       1.641   1.750  18.714  0.00  0.00    +0.000 N 
ATOM      7  C   UNL     1       2.882   1.782  18.133  0.00  0.00    +0.000 A 
ATOM      8  C   UNL     1       3.237   3.103  17.966  0.00  0.00    +0.000 A 
ATOM      9  C   UNL     1       4.473   3.683  17.364  0.00  0.00    +0.000 C 
ATOM     10  H   UNL     1       1.126   0.910  18.943  0.00  0.00    +0.000 HD
ENDROOT
BRANCH   1  11
ATOM     11  N   UNL     1       5.529   5.821  16.440  0.00  0.00    +0.000 NA
BRANCH  11  12
ATOM     12  C   UNL     1       6.706   5.301  17.174  0.00  0.00    +0.000 C 
BRANCH  12  14
ATOM     13  C   UNL     1       7.821   5.739  19.429  0.00  0.00    +0.000 C 
ATOM     14  C   UNL     1       7.497   6.288  18.047  0.00  0.00    +0.000 C 
ENDBRANCH  12  14
ENDBRANCH  11  12
BRANCH  11  15
ATOM     15  C   UNL     1       5.698   5.717  14.971  0.00  0.00    +0.000 C 
BRANCH  15  16
ATOM     16  C   UNL     1       6.726   4.684  14.481  0.00  0.00    +0.000 C 
ATOM     17  C   UNL     1       6.131   3.739  13.446  0.00  0.00    +0.000 C 
ENDBRANCH  15  16
ENDBRANCH  11  15
ENDBRANCH   1  11
TORSDOF 5
ENDMDL
MODEL 9
REMARK VINA RESULT:      -6.3      1.277      2.979
REMARK  Name = 
REMARK  7 active torsions:
REMARK  status: ('A' for Active; 'I' for Inactive)
REMARK    1  A    between atoms: C_1  and  C_2
REMARK    2  A    between atoms: C_2  and  C_3
REMARK    3  A    between atoms: C_3  and  N_4
REMARK    4  A    between atoms: N_4  and  C_5
REMARK    5  A    between atoms: N_4  and  C_8
REMARK    6  A    between atoms: C_5  and  C_6
REMARK    7  A    between atoms: C_6  and  C_7
REMARK                            x       y       z     vdW  Elec       q    Type
REMARK                         _______ _______ _______ _____ _____    ______ ____
ROOT
ATOM      1  C   UNL     1       4.064   5.120  17.803  0.00  0.00    +0.000 C 
ATOM      2  C   UNL     1       4.191   5.536  19.305  0.00  0.00    +0.000 C 
ATOM      3  C   UNL     1       2.821   5.573  20.012  0.00  0.00    +0.000 C 
ATOM      4  C   UNL     1       2.008   4.369  19.701  0.00  0.00    +0.000 A 
ATOM      5  C   UNL     1       0.843   3.916  20.279  0.00  0.00    +0.000 A 
ATOM      6  N   UNL     1       0.459   2.776  19.620  0.00  0.00    +0.000 N 
ATOM      7  C   UNL     1       1.357   2.499  18.622  0.00  0.00    +0.000 A 
ATOM      8  C   UNL     1       2.327   3.477  18.642  0.00  0.00    +0.000 A 
ATOM      9  C   UNL     1       3.515   3.652  17.756  0.00  0.00    +0.000 C 
ATOM     10  H   UNL     1      -0.366   2.230  19.831  0.00  0.00    +0.000 HD
ENDROOT
BRANCH   1  11
ATOM     11  N   UNL     1       5.333   5.291  17.017  0.00  0.00    +0.000 NA
BRANCH  11  12
ATOM     12  C   UNL     1       5.194   4.713  15.660  0.00  0.00    +0.000 C 
BRANCH  12  14
ATOM     13  C   UNL     1       6.224   3.829  13.497  0.00  0.00    +0.000 C 
ATOM     14  C   UNL     1       6.480   4.323  14.913  0.00  0.00    +0.000 C 
ENDBRANCH  12  14
ENDBRANCH  11  12
BRANCH  11  15
ATOM     15  C   UNL     1       5.807   6.696  16.979  0.00  0.00    +0.000 C 
BRANCH  15  16
ATOM     16  C   UNL     1       7.241   6.939  17.477  0.00  0.00    +0.000 C 
ATOM     17  C   UNL     1       7.686   5.870  18.466  0.00  0.00    +0.000 C 
ENDBRANCH  15  16
ENDBRANCH  11  15
ENDBRANCH   1  11
TORSDOF 5
ENDMDL
