MODEL 1
REMARK VINA RESULT:     -10.3      0.000      0.000
REMARK  Name = 
REMARK  7 active torsions:
REMARK  status: ('A' for Active; 'I' for Inactive)
REMARK    1  A    between atoms: C_1  and  O_2
REMARK    2  A    between atoms: O_2  and  C_3
REMARK    3  A    between atoms: C_6  and  N_7
REMARK    4  A    between atoms: C_8  and  C_9
REMARK    5  A    between atoms: C_9  and  C_10
REMARK    6  A    between atoms: C_10  and  N_11
REMARK    7  A    between atoms: C_18  and  O_19
REMARK                            x       y       z     vdW  Elec       q    Type
REMARK                         _______ _______ _______ _____ _____    ______ ____
ROOT
ATOM      1  N   UNL     1       4.327   3.792  17.726  0.00  0.00    +0.000 N 
ATOM      2  C   UNL     1       4.668   4.066  19.040  0.00  0.00    +0.000 A 
ATOM      3  N   UNL     1       4.680   3.063  19.873  0.00  0.00    +0.000 NA
ATOM      4  C   UNL     1       3.354   2.622  20.042  0.00  0.00    +0.000 A 
ATOM      5  C   UNL     1       2.900   2.462  21.351  0.00  0.00    +0.000 A 
ATOM      6  C   UNL     1       1.587   2.798  21.643  0.00  0.00    +0.000 A 
ATOM      7  C   UNL     1       0.747   3.248  20.616  0.00  0.00    +0.000 A 
ATOM      8  C   UNL     1       1.162   3.222  19.269  0.00  0.00    +0.000 A 
ATOM      9  C   UNL     1       2.469   2.835  18.968  0.00  0.00    +0.000 A 
ATOM     10  C   UNL     1       3.152   3.049  17.618  0.00  0.00    +0.000 A 
ATOM     11  O   UNL     1       2.636   2.600  16.601  0.00  0.00    +0.000 OA
ENDROOT
BRANCH   1  15
ATOM     12  C   UNL     1       7.001   4.954  14.591  0.00  0.00    +0.000 A 
ATOM     13  C   UNL     1       7.487   4.913  15.902  0.00  0.00    +0.000 A 
ATOM     14  C   UNL     1       6.655   4.481  16.980  0.00  0.00    +0.000 A 
ATOM     15  C   UNL     1       5.336   4.075  16.737  0.00  0.00    +0.000 A 
ATOM     16  C   UNL     1       4.929   4.052  15.386  0.00  0.00    +0.000 A 
ATOM     17  C   UNL     1       5.719   4.510  14.347  0.00  0.00    +0.000 A 
BRANCH  12  19
ATOM     18  C   UNL     1       7.437   4.731  12.266  0.00  0.00    +0.000 C 
ATOM     19  O   UNL     1       7.603   5.447  13.473  0.00  0.00    +0.000 OA
ENDBRANCH  12  19
ENDBRANCH   1  15
BRANCH   2  20
ATOM     20  C   UNL     1       4.211   5.463  19.489  0.00  0.00    +0.000 C 
BRANCH  20  21
ATOM     21  C   UNL     1       3.291   6.074  18.450  0.00  0.00    +0.000 C 
BRANCH  21  22
ATOM     22  N   UNL     1       2.493   7.150  18.996  0.00  0.00    +0.000 N 
ATOM     23  C   UNL     1       1.888   7.111  20.223  0.00  0.00    +0.000 C 
ATOM     24  O   UNL     1       1.871   6.226  21.045  0.00  0.00    +0.000 OA
ATOM     25  C   UNL     1       1.211   8.402  20.377  0.00  0.00    +0.000 A 
ATOM     26  C   UNL     1       0.463   8.878  21.431  0.00  0.00    +0.000 A 
ATOM     27  C   UNL     1      -0.078  10.155  21.304  0.00  0.00    +0.000 A 
ATOM     28  C   UNL     1       0.137  10.915  20.133  0.00  0.00    +0.000 A 
ATOM     29  C   UNL     1       0.899  10.403  19.081  0.00  0.00    +0.000 A 
ATOM     30  C   UNL     1       1.433   9.139  19.221  0.00  0.00    +0.000 A 
ATOM     31  C   UNL     1       2.255   8.321  18.328  0.00  0.00    +0.000 C 
ATOM     32  O   UNL     1       2.635   8.630  17.214  0.00  0.00    +0.000 OA
BRANCH  29  33
ATOM     33  O   UNL     1       1.094  11.111  17.945  0.00  0.00    +0.000 OA
ATOM     34  H   UNL     1       1.267  12.044  18.156  0.00  0.00    +0.000 HD
ENDBRANCH  29  33
ENDBRANCH  21  22
ENDBRANCH  20  21
ENDBRANCH   2  20
TORSDOF 6
ENDMDL
MODEL 2
REMARK VINA RESULT:     -10.0      0.611      1.771
REMARK  Name = 
REMARK  7 active torsions:
REMARK  status: ('A' for Active; 'I' for Inactive)
REMARK    1  A    between atoms: C_1  and  O_2
REMARK    2  A    between atoms: O_2  and  C_3
REMARK    3  A    between atoms: C_6  and  N_7
REMARK    4  A    between atoms: C_8  and  C_9
REMARK    5  A    between atoms: C_9  and  C_10
REMARK    6  A    between atoms: C_10  and  N_11
REMARK    7  A    between atoms: C_18  and  O_19
REMARK                            x       y       z     vdW  Elec       q    Type
REMARK                         _______ _______ _______ _____ _____    ______ ____
ROOT
ATOM      1  N   UNL     1       4.313   3.781  17.778  0.00  0.00    +0.000 N 
ATOM      2  C   UNL     1       4.624   4.111  19.086  0.00  0.00    +0.000 A 
ATOM      3  N   UNL     1       4.658   3.138  19.954  0.00  0.00    +0.000 NA
ATOM      4  C   UNL     1       3.346   2.656  20.120  0.00  0.00    +0.000 A 
ATOM      5  C   UNL     1       2.877   2.525  21.426  0.00  0.00    +0.000 A 
ATOM      6  C   UNL     1       1.548   2.824  21.687  0.00  0.00    +0.000 A 
ATOM      7  C   UNL     1       0.710   3.208  20.633  0.00  0.00    +0.000 A 
ATOM      8  C   UNL     1       1.146   3.151  19.294  0.00  0.00    +0.000 A 
ATOM      9  C   UNL     1       2.470   2.801  19.026  0.00  0.00    +0.000 A 
ATOM     10  C   UNL     1       3.166   2.993  17.679  0.00  0.00    +0.000 A 
ATOM     11  O   UNL     1       2.682   2.490  16.672  0.00  0.00    +0.000 OA
ENDROOT
BRANCH   1  15
ATOM     12  C   UNL     1       7.013   4.967  14.675  0.00  0.00    +0.000 A 
ATOM     13  C   UNL     1       7.504   4.854  15.979  0.00  0.00    +0.000 A 
ATOM     14  C   UNL     1       6.661   4.409  17.044  0.00  0.00    +0.000 A 
ATOM     15  C   UNL     1       5.327   4.065  16.794  0.00  0.00    +0.000 A 
ATOM     16  C   UNL     1       4.911   4.113  15.446  0.00  0.00    +0.000 A 
ATOM     17  C   UNL     1       5.713   4.583  14.421  0.00  0.00    +0.000 A 
BRANCH  12  19
ATOM     18  C   UNL     1       7.505   4.771  12.358  0.00  0.00    +0.000 C 
ATOM     19  O   UNL     1       7.627   5.482  13.574  0.00  0.00    +0.000 OA
ENDBRANCH  12  19
ENDBRANCH   1  15
BRANCH   2  20
ATOM     20  C   UNL     1       4.110   5.506  19.479  0.00  0.00    +0.000 C 
BRANCH  20  21
ATOM     21  C   UNL     1       3.228   6.070  18.383  0.00  0.00    +0.000 C 
BRANCH  21  22
ATOM     22  N   UNL     1       2.498   7.239  18.821  0.00  0.00    +0.000 N 
ATOM     23  C   UNL     1       2.377   8.388  18.086  0.00  0.00    +0.000 C 
ATOM     24  O   UNL     1       2.839   8.662  17.005  0.00  0.00    +0.000 OA
ATOM     25  C   UNL     1       1.548   9.292  18.891  0.00  0.00    +0.000 A 
ATOM     26  C   UNL     1       1.122  10.571  18.609  0.00  0.00    +0.000 A 
ATOM     27  C   UNL     1       0.341  11.208  19.570  0.00  0.00    +0.000 A 
ATOM     28  C   UNL     1       0.015  10.558  20.781  0.00  0.00    +0.000 A 
ATOM     29  C   UNL     1       0.465   9.261  21.037  0.00  0.00    +0.000 A 
ATOM     30  C   UNL     1       1.233   8.638  20.075  0.00  0.00    +0.000 A 
ATOM     31  C   UNL     1       1.857   7.315  20.028  0.00  0.00    +0.000 C 
ATOM     32  O   UNL     1       1.814   6.468  20.900  0.00  0.00    +0.000 OA
BRANCH  29  33
ATOM     33  O   UNL     1       0.179   8.635  22.201  0.00  0.00    +0.000 OA
ATOM     34  H   UNL     1       0.542   7.734  22.197  0.00  0.00    +0.000 HD
ENDBRANCH  29  33
ENDBRANCH  21  22
ENDBRANCH  20  21
ENDBRANCH   2  20
TORSDOF 6
ENDMDL
MODEL 3
REMARK VINA RESULT:      -9.8      0.933      1.302
REMARK  Name = 
REMARK  7 active torsions:
REMARK  status: ('A' for Active; 'I' for Inactive)
REMARK    1  A    between atoms: C_1  and  O_2
REMARK    2  A    between atoms: O_2  and  C_3
REMARK    3  A    between atoms: C_6  and  N_7
REMARK    4  A    between atoms: C_8  and  C_9
REMARK    5  A    between atoms: C_9  and  C_10
REMARK    6  A    between atoms: C_10  and  N_11
REMARK    7  A    between atoms: C_18  and  O_19
REMARK                            x       y       z     vdW  Elec       q    Type
REMARK                         _______ _______ _______ _____ _____    ______ ____
ROOT
ATOM      1  N   UNL     1       3.989   4.039  17.518  0.00  0.00    +0.000 N 
ATOM      2  C   UNL     1       3.768   4.945  18.542  0.00  0.00    +0.000 A 
ATOM      3  N   UNL     1       4.106   4.576  19.747  0.00  0.00    +0.000 NA
ATOM      4  C   UNL     1       3.245   3.533  20.140  0.00  0.00    +0.000 A 
ATOM      5  C   UNL     1       2.628   3.655  21.384  0.00  0.00    +0.000 A 
ATOM      6  C   UNL     1       1.322   3.210  21.523  0.00  0.00    +0.000 A 
ATOM      7  C   UNL     1       0.676   2.619  20.429  0.00  0.00    +0.000 A 
ATOM      8  C   UNL     1       1.374   2.329  19.239  0.00  0.00    +0.000 A 
ATOM      9  C   UNL     1       2.704   2.732  19.116  0.00  0.00    +0.000 A 
ATOM     10  C   UNL     1       3.485   2.770  17.803  0.00  0.00    +0.000 A 
ATOM     11  O   UNL     1       3.585   1.751  17.129  0.00  0.00    +0.000 OA
ENDROOT
BRANCH   1  15
ATOM     12  C   UNL     1       7.055   5.158  14.747  0.00  0.00    +0.000 A 
ATOM     13  C   UNL     1       5.988   4.381  14.285  0.00  0.00    +0.000 A 
ATOM     14  C   UNL     1       4.910   4.024  15.152  0.00  0.00    +0.000 A 
ATOM     15  C   UNL     1       4.898   4.461  16.482  0.00  0.00    +0.000 A 
ATOM     16  C   UNL     1       5.953   5.315  16.869  0.00  0.00    +0.000 A 
ATOM     17  C   UNL     1       7.019   5.627  16.043  0.00  0.00    +0.000 A 
BRANCH  12  19
ATOM     18  C   UNL     1       8.188   5.546  12.695  0.00  0.00    +0.000 C 
ATOM     19  O   UNL     1       8.211   5.488  14.107  0.00  0.00    +0.000 OA
ENDBRANCH  12  19
ENDBRANCH   1  15
BRANCH   2  20
ATOM     20  C   UNL     1       2.525   5.816  18.300  0.00  0.00    +0.000 C 
BRANCH  20  21
ATOM     21  C   UNL     1       2.921   7.275  18.183  0.00  0.00    +0.000 C 
BRANCH  21  22
ATOM     22  N   UNL     1       2.073   8.133  18.982  0.00  0.00    +0.000 N 
ATOM     23  C   UNL     1       1.653   7.833  20.249  0.00  0.00    +0.000 C 
ATOM     24  O   UNL     1       1.864   6.849  20.917  0.00  0.00    +0.000 OA
ATOM     25  C   UNL     1       0.842   8.976  20.683  0.00  0.00    +0.000 A 
ATOM     26  C   UNL     1       0.192   9.182  21.879  0.00  0.00    +0.000 A 
ATOM     27  C   UNL     1      -0.522  10.370  22.019  0.00  0.00    +0.000 A 
ATOM     28  C   UNL     1      -0.571  11.310  20.966  0.00  0.00    +0.000 A 
ATOM     29  C   UNL     1       0.099  11.069  19.764  0.00  0.00    +0.000 A 
ATOM     30  C   UNL     1       0.806   9.891  19.640  0.00  0.00    +0.000 A 
ATOM     31  C   UNL     1       1.596   9.337  18.539  0.00  0.00    +0.000 C 
ATOM     32  O   UNL     1       1.775   9.852  17.452  0.00  0.00    +0.000 OA
BRANCH  29  33
ATOM     33  O   UNL     1       0.042  11.950  18.740  0.00  0.00    +0.000 OA
ATOM     34  H   UNL     1       0.693  11.715  18.057  0.00  0.00    +0.000 HD
ENDBRANCH  29  33
ENDBRANCH  21  22
ENDBRANCH  20  21
ENDBRANCH   2  20
TORSDOF 6
ENDMDL
MODEL 4
REMARK VINA RESULT:      -9.5      1.103      2.197
REMARK  Name = 
REMARK  7 active torsions:
REMARK  status: ('A' for Active; 'I' for Inactive)
REMARK    1  A    between atoms: C_1  and  O_2
REMARK    2  A    between atoms: O_2  and  C_3
REMARK    3  A    between atoms: C_6  and  N_7
REMARK    4  A    between atoms: C_8  and  C_9
REMARK    5  A    between atoms: C_9  and  C_10
REMARK    6  A    between atoms: C_10  and  N_11
REMARK    7  A    between atoms: C_18  and  O_19
REMARK                            x       y       z     vdW  Elec       q    Type
REMARK                         _______ _______ _______ _____ _____    ______ ____
ROOT
ATOM      1  N   UNL     1       3.896   4.099  17.554  0.00  0.00    +0.000 N 
ATOM      2  C   UNL     1       3.732   4.956  18.629  0.00  0.00    +0.000 A 
ATOM      3  N   UNL     1       4.053   4.500  19.808  0.00  0.00    +0.000 NA
ATOM      4  C   UNL     1       3.135   3.488  20.148  0.00  0.00    +0.000 A 
ATOM      5  C   UNL     1       2.532   3.573  21.402  0.00  0.00    +0.000 A 
ATOM      6  C   UNL     1       1.203   3.196  21.525  0.00  0.00    +0.000 A 
ATOM      7  C   UNL     1       0.520   2.706  20.405  0.00  0.00    +0.000 A 
ATOM      8  C   UNL     1       1.194   2.446  19.194  0.00  0.00    +0.000 A 
ATOM      9  C   UNL     1       2.545   2.778  19.084  0.00  0.00    +0.000 A 
ATOM     10  C   UNL     1       3.321   2.847  17.770  0.00  0.00    +0.000 A 
ATOM     11  O   UNL     1       3.359   1.864  17.038  0.00  0.00    +0.000 OA
ENDROOT
BRANCH   1  15
ATOM     12  C   UNL     1       7.009   5.216  14.836  0.00  0.00    +0.000 A 
ATOM     13  C   UNL     1       5.923   4.486  14.343  0.00  0.00    +0.000 A 
ATOM     14  C   UNL     1       4.830   4.134  15.193  0.00  0.00    +0.000 A 
ATOM     15  C   UNL     1       4.823   4.528  16.537  0.00  0.00    +0.000 A 
ATOM     16  C   UNL     1       5.900   5.338  16.956  0.00  0.00    +0.000 A 
ATOM     17  C   UNL     1       6.979   5.644  16.146  0.00  0.00    +0.000 A 
BRANCH  12  19
ATOM     18  C   UNL     1       8.192   5.529  12.799  0.00  0.00    +0.000 C 
ATOM     19  O   UNL     1       8.178   5.532  14.212  0.00  0.00    +0.000 OA
ENDBRANCH  12  19
ENDBRANCH   1  15
BRANCH   2  20
ATOM     20  C   UNL     1       2.540   5.909  18.446  0.00  0.00    +0.000 C 
BRANCH  20  21
ATOM     21  C   UNL     1       3.024   7.341  18.335  0.00  0.00    +0.000 C 
BRANCH  21  22
ATOM     22  N   UNL     1       2.098   8.277  18.934  0.00  0.00    +0.000 N 
ATOM     23  C   UNL     1       1.665   9.425  18.326  0.00  0.00    +0.000 C 
ATOM     24  O   UNL     1       1.959   9.882  17.248  0.00  0.00    +0.000 OA
ATOM     25  C   UNL     1       0.733  10.051  19.269  0.00  0.00    +0.000 A 
ATOM     26  C   UNL     1       0.015  11.218  19.144  0.00  0.00    +0.000 A 
ATOM     27  C   UNL     1      -0.799  11.584  20.214  0.00  0.00    +0.000 A 
ATOM     28  C   UNL     1      -0.868  10.781  21.374  0.00  0.00    +0.000 A 
ATOM     29  C   UNL     1      -0.124   9.603  21.470  0.00  0.00    +0.000 A 
ATOM     30  C   UNL     1       0.674   9.249  20.402  0.00  0.00    +0.000 A 
ATOM     31  C   UNL     1       1.565   8.109  20.183  0.00  0.00    +0.000 C 
ATOM     32  O   UNL     1       1.785   7.206  20.968  0.00  0.00    +0.000 OA
BRANCH  29  33
ATOM     33  O   UNL     1      -0.164   8.837  22.584  0.00  0.00    +0.000 OA
ATOM     34  H   UNL     1       0.343   8.019  22.448  0.00  0.00    +0.000 HD
ENDBRANCH  29  33
ENDBRANCH  21  22
ENDBRANCH  20  21
ENDBRANCH   2  20
TORSDOF 6
ENDMDL
MODEL 5
REMARK VINA RESULT:      -9.3      2.043      2.506
REMARK  Name = 
REMARK  7 active torsions:
REMARK  status: ('A' for Active; 'I' for Inactive)
REMARK    1  A    between atoms: C_1  and  O_2
REMARK    2  A    between atoms: O_2  and  C_3
REMARK    3  A    between atoms: C_6  and  N_7
REMARK    4  A    between atoms: C_8  and  C_9
REMARK    5  A    between atoms: C_9  and  C_10
REMARK    6  A    between atoms: C_10  and  N_11
REMARK    7  A    between atoms: C_18  and  O_19
REMARK                            x       y       z     vdW  Elec       q    Type
REMARK                         _______ _______ _______ _____ _____    ______ ____
ROOT
ATOM      1  N   UNL     1       4.397   4.780  18.476  0.00  0.00    +0.000 N 
ATOM      2  C   UNL     1       3.536   5.300  19.427  0.00  0.00    +0.000 A 
ATOM      3  N   UNL     1       3.333   4.586  20.500  0.00  0.00    +0.000 NA
ATOM      4  C   UNL     1       2.626   3.428  20.124  0.00  0.00    +0.000 A 
ATOM      5  C   UNL     1       1.484   3.114  20.861  0.00  0.00    +0.000 A 
ATOM      6  C   UNL     1       0.392   2.579  20.195  0.00  0.00    +0.000 A 
ATOM      7  C   UNL     1       0.478   2.333  18.819  0.00  0.00    +0.000 A 
ATOM      8  C   UNL     1       1.698   2.474  18.126  0.00  0.00    +0.000 A 
ATOM      9  C   UNL     1       2.812   2.965  18.807  0.00  0.00    +0.000 A 
ATOM     10  C   UNL     1       4.094   3.460  18.138  0.00  0.00    +0.000 A 
ATOM     11  O   UNL     1       4.708   2.716  17.383  0.00  0.00    +0.000 OA
ENDROOT
BRANCH   1  15
ATOM     12  C   UNL     1       7.605   7.486  17.632  0.00  0.00    +0.000 A 
ATOM     13  C   UNL     1       7.769   6.557  18.665  0.00  0.00    +0.000 A 
ATOM     14  C   UNL     1       6.754   5.594  18.954  0.00  0.00    +0.000 A 
ATOM     15  C   UNL     1       5.577   5.558  18.195  0.00  0.00    +0.000 A 
ATOM     16  C   UNL     1       5.504   6.458  17.111  0.00  0.00    +0.000 A 
ATOM     17  C   UNL     1       6.468   7.418  16.855  0.00  0.00    +0.000 A 
BRANCH  12  19
ATOM     18  C   UNL     1       8.545   9.582  18.240  0.00  0.00    +0.000 C 
ATOM     19  O   UNL     1       8.401   8.539  17.297  0.00  0.00    +0.000 OA
ENDBRANCH  12  19
ENDBRANCH   1  15
BRANCH   2  20
ATOM     20  C   UNL     1       2.406   6.135  18.806  0.00  0.00    +0.000 C 
BRANCH  20  21
ATOM     21  C   UNL     1       2.859   7.568  18.606  0.00  0.00    +0.000 C 
BRANCH  21  22
ATOM     22  N   UNL     1       1.923   8.517  19.167  0.00  0.00    +0.000 N 
ATOM     23  C   UNL     1       1.381   8.414  20.420  0.00  0.00    +0.000 C 
ATOM     24  O   UNL     1       1.538   7.558  21.257  0.00  0.00    +0.000 OA
ATOM     25  C   UNL     1       0.515   9.586  20.580  0.00  0.00    +0.000 A 
ATOM     26  C   UNL     1      -0.256   9.963  21.656  0.00  0.00    +0.000 A 
ATOM     27  C   UNL     1      -0.997  11.135  21.530  0.00  0.00    +0.000 A 
ATOM     28  C   UNL     1      -0.953  11.891  20.338  0.00  0.00    +0.000 A 
ATOM     29  C   UNL     1      -0.162  11.479  19.262  0.00  0.00    +0.000 A 
ATOM     30  C   UNL     1       0.571  10.319  19.401  0.00  0.00    +0.000 A 
ATOM     31  C   UNL     1       1.476   9.619  18.489  0.00  0.00    +0.000 C 
ATOM     32  O   UNL     1       1.756   9.956  17.354  0.00  0.00    +0.000 OA
BRANCH  29  33
ATOM     33  O   UNL     1      -0.128  12.181  18.107  0.00  0.00    +0.000 OA
ATOM     34  H   UNL     1       0.091  11.595  17.363  0.00  0.00    +0.000 HD
ENDBRANCH  29  33
ENDBRANCH  21  22
ENDBRANCH  20  21
ENDBRANCH   2  20
TORSDOF 6
ENDMDL
MODEL 6
REMARK VINA RESULT:      -9.1      2.127      3.099
REMARK  Name = 
REMARK  7 active torsions:
REMARK  status: ('A' for Active; 'I' for Inactive)
REMARK    1  A    between atoms: C_1  and  O_2
REMARK    2  A    between atoms: O_2  and  C_3
REMARK    3  A    between atoms: C_6  and  N_7
REMARK    4  A    between atoms: C_8  and  C_9
REMARK    5  A    between atoms: C_9  and  C_10
REMARK    6  A    between atoms: C_10  and  N_11
REMARK    7  A    between atoms: C_18  and  O_19
REMARK                            x       y       z     vdW  Elec       q    Type
REMARK                         _______ _______ _______ _____ _____    ______ ____
ROOT
ATOM      1  N   UNL     1       4.450   4.803  18.492  0.00  0.00    +0.000 N 
ATOM      2  C   UNL     1       3.574   5.319  19.431  0.00  0.00    +0.000 A 
ATOM      3  N   UNL     1       3.352   4.600  20.496  0.00  0.00    +0.000 NA
ATOM      4  C   UNL     1       2.650   3.444  20.103  0.00  0.00    +0.000 A 
ATOM      5  C   UNL     1       1.496   3.128  20.818  0.00  0.00    +0.000 A 
ATOM      6  C   UNL     1       0.414   2.598  20.131  0.00  0.00    +0.000 A 
ATOM      7  C   UNL     1       0.523   2.358  18.756  0.00  0.00    +0.000 A 
ATOM      8  C   UNL     1       1.755   2.502  18.084  0.00  0.00    +0.000 A 
ATOM      9  C   UNL     1       2.858   2.989  18.787  0.00  0.00    +0.000 A 
ATOM     10  C   UNL     1       4.151   3.486  18.142  0.00  0.00    +0.000 A 
ATOM     11  O   UNL     1       4.778   2.744  17.394  0.00  0.00    +0.000 OA
ENDROOT
BRANCH   1  15
ATOM     12  C   UNL     1       7.677   7.512  17.734  0.00  0.00    +0.000 A 
ATOM     13  C   UNL     1       7.837   6.546  18.733  0.00  0.00    +0.000 A 
ATOM     14  C   UNL     1       6.815   5.582  18.991  0.00  0.00    +0.000 A 
ATOM     15  C   UNL     1       5.636   5.581  18.235  0.00  0.00    +0.000 A 
ATOM     16  C   UNL     1       5.567   6.519  17.183  0.00  0.00    +0.000 A 
ATOM     17  C   UNL     1       6.537   7.480  16.959  0.00  0.00    +0.000 A 
BRANCH  12  19
ATOM     18  C   UNL     1       8.598   9.601  18.394  0.00  0.00    +0.000 C 
ATOM     19  O   UNL     1       8.481   8.570  17.434  0.00  0.00    +0.000 OA
ENDBRANCH  12  19
ENDBRANCH   1  15
BRANCH   2  20
ATOM     20  C   UNL     1       2.455   6.159  18.795  0.00  0.00    +0.000 C 
BRANCH  20  21
ATOM     21  C   UNL     1       2.909   7.594  18.620  0.00  0.00    +0.000 C 
BRANCH  21  22
ATOM     22  N   UNL     1       1.950   8.537  19.153  0.00  0.00    +0.000 N 
ATOM     23  C   UNL     1       1.491   9.633  18.472  0.00  0.00    +0.000 C 
ATOM     24  O   UNL     1       1.784  10.033  17.371  0.00  0.00    +0.000 OA
ATOM     25  C   UNL     1       0.531  10.287  19.368  0.00  0.00    +0.000 A 
ATOM     26  C   UNL     1      -0.218  11.424  19.166  0.00  0.00    +0.000 A 
ATOM     27  C   UNL     1      -1.053  11.829  20.204  0.00  0.00    +0.000 A 
ATOM     28  C   UNL     1      -1.112  11.096  21.410  0.00  0.00    +0.000 A 
ATOM     29  C   UNL     1      -0.336   9.948  21.584  0.00  0.00    +0.000 A 
ATOM     30  C   UNL     1       0.483   9.554  20.546  0.00  0.00    +0.000 A 
ATOM     31  C   UNL     1       1.408   8.429  20.405  0.00  0.00    +0.000 C 
ATOM     32  O   UNL     1       1.645   7.582  21.245  0.00  0.00    +0.000 OA
BRANCH  29  33
ATOM     33  O   UNL     1      -0.366   9.249  22.741  0.00  0.00    +0.000 OA
ATOM     34  H   UNL     1       0.177   8.447  22.665  0.00  0.00    +0.000 HD
ENDBRANCH  29  33
ENDBRANCH  21  22
ENDBRANCH  20  21
ENDBRANCH   2  20
TORSDOF 6
ENDMDL
MODEL 7
REMARK VINA RESULT:      -9.1      2.243      2.820
REMARK  Name = 
REMARK  7 active torsions:
REMARK  status: ('A' for Active; 'I' for Inactive)
REMARK    1  A    between atoms: C_1  and  O_2
REMARK    2  A    between atoms: O_2  and  C_3
REMARK    3  A    between atoms: C_6  and  N_7
REMARK    4  A    between atoms: C_8  and  C_9
REMARK    5  A    between atoms: C_9  and  C_10
REMARK    6  A    between atoms: C_10  and  N_11
REMARK    7  A    between atoms: C_18  and  O_19
REMARK                            x       y       z     vdW  Elec       q    Type
REMARK                         _______ _______ _______ _____ _____    ______ ____
ROOT
ATOM      1  N   UNL     1       5.252   5.164  18.043  0.00  0.00    +0.000 N 
ATOM      2  C   UNL     1       4.839   4.780  19.307  0.00  0.00    +0.000 A 
ATOM      3  N   UNL     1       4.954   3.517  19.612  0.00  0.00    +0.000 NA
ATOM      4  C   UNL     1       4.045   2.792  18.818  0.00  0.00    +0.000 A 
ATOM      5  C   UNL     1       3.210   1.888  19.473  0.00  0.00    +0.000 A 
ATOM      6  C   UNL     1       1.905   1.749  19.026  0.00  0.00    +0.000 A 
ATOM      7  C   UNL     1       1.476   2.483  17.913  0.00  0.00    +0.000 A 
ATOM      8  C   UNL     1       2.382   3.245  17.147  0.00  0.00    +0.000 A 
ATOM      9  C   UNL     1       3.709   3.346  17.567  0.00  0.00    +0.000 A 
ATOM     10  C   UNL     1       4.717   4.363  17.033  0.00  0.00    +0.000 A 
ATOM     11  O   UNL     1       4.947   4.412  15.831  0.00  0.00    +0.000 OA
ENDROOT
BRANCH   1  15
ATOM     12  C   UNL     1       8.118   8.344  17.985  0.00  0.00    +0.000 A 
ATOM     13  C   UNL     1       8.412   7.194  18.725  0.00  0.00    +0.000 A 
ATOM     14  C   UNL     1       7.517   6.080  18.735  0.00  0.00    +0.000 A 
ATOM     15  C   UNL     1       6.332   6.118  17.990  0.00  0.00    +0.000 A 
ATOM     16  C   UNL     1       6.130   7.265  17.193  0.00  0.00    +0.000 A 
ATOM     17  C   UNL     1       6.974   8.361  17.214  0.00  0.00    +0.000 A 
BRANCH  12  19
ATOM     18  C   UNL     1       9.138  10.120  19.189  0.00  0.00    +0.000 C 
ATOM     19  O   UNL     1       8.784   9.532  17.954  0.00  0.00    +0.000 OA
ENDBRANCH  12  19
ENDBRANCH   1  15
BRANCH   2  20
ATOM     20  C   UNL     1       3.654   5.614  19.818  0.00  0.00    +0.000 C 
BRANCH  20  21
ATOM     21  C   UNL     1       3.090   6.468  18.700  0.00  0.00    +0.000 C 
BRANCH  21  22
ATOM     22  N   UNL     1       2.251   7.535  19.201  0.00  0.00    +0.000 N 
ATOM     23  C   UNL     1       1.615   7.507  20.413  0.00  0.00    +0.000 C 
ATOM     24  O   UNL     1       1.599   6.640  21.253  0.00  0.00    +0.000 OA
ATOM     25  C   UNL     1       0.902   8.784  20.520  0.00  0.00    +0.000 A 
ATOM     26  C   UNL     1       0.115   9.263  21.543  0.00  0.00    +0.000 A 
ATOM     27  C   UNL     1      -0.454  10.523  21.373  0.00  0.00    +0.000 A 
ATOM     28  C   UNL     1      -0.228  11.263  20.192  0.00  0.00    +0.000 A 
ATOM     29  C   UNL     1       0.575  10.747  19.171  0.00  0.00    +0.000 A 
ATOM     30  C   UNL     1       1.137   9.500  19.353  0.00  0.00    +0.000 A 
ATOM     31  C   UNL     1       2.002   8.684  18.501  0.00  0.00    +0.000 C 
ATOM     32  O   UNL     1       2.403   8.978  17.390  0.00  0.00    +0.000 OA
BRANCH  29  33
ATOM     33  O   UNL     1       0.782  11.435  18.025  0.00  0.00    +0.000 OA
ATOM     34  H   UNL     1      -0.058  11.793  17.691  0.00  0.00    +0.000 HD
ENDBRANCH  29  33
ENDBRANCH  21  22
ENDBRANCH  20  21
ENDBRANCH   2  20
TORSDOF 6
ENDMDL
MODEL 8
REMARK VINA RESULT:      -9.0      2.335      3.218
REMARK  Name = 
REMARK  7 active torsions:
REMARK  status: ('A' for Active; 'I' for Inactive)
REMARK    1  A    between atoms: C_1  and  O_2
REMARK    2  A    between atoms: O_2  and  C_3
REMARK    3  A    between atoms: C_6  and  N_7
REMARK    4  A    between atoms: C_8  and  C_9
REMARK    5  A    between atoms: C_9  and  C_10
REMARK    6  A    between atoms: C_10  and  N_11
REMARK    7  A    between atoms: C_18  and  O_19
REMARK                            x       y       z     vdW  Elec       q    Type
REMARK                         _______ _______ _______ _____ _____    ______ ____
ROOT
ATOM      1  N   UNL     1       4.613   5.062  18.438  0.00  0.00    +0.000 N 
ATOM      2  C   UNL     1       3.831   5.429  19.520  0.00  0.00    +0.000 A 
ATOM      3  N   UNL     1       3.683   4.550  20.472  0.00  0.00    +0.000 NA
ATOM      4  C   UNL     1       2.925   3.479  19.963  0.00  0.00    +0.000 A 
ATOM      5  C   UNL     1       1.828   3.062  20.716  0.00  0.00    +0.000 A 
ATOM      6  C   UNL     1       0.682   2.657  20.050  0.00  0.00    +0.000 A 
ATOM      7  C   UNL     1       0.670   2.640  18.649  0.00  0.00    +0.000 A 
ATOM      8  C   UNL     1       1.843   2.879  17.906  0.00  0.00    +0.000 A 
ATOM      9  C   UNL     1       3.012   3.237  18.578  0.00  0.00    +0.000 A 
ATOM     10  C   UNL     1       4.257   3.820  17.911  0.00  0.00    +0.000 A 
ATOM     11  O   UNL     1       4.802   3.203  17.004  0.00  0.00    +0.000 OA
ENDROOT
BRANCH   1  15
ATOM     12  C   UNL     1       7.819   7.831  17.819  0.00  0.00    +0.000 A 
ATOM     13  C   UNL     1       8.026   6.753  18.686  0.00  0.00    +0.000 A 
ATOM     14  C   UNL     1       7.010   5.768  18.887  0.00  0.00    +0.000 A 
ATOM     15  C   UNL     1       5.790   5.861  18.206  0.00  0.00    +0.000 A 
ATOM     16  C   UNL     1       5.670   6.918  17.279  0.00  0.00    +0.000 A 
ATOM     17  C   UNL     1       6.636   7.896  17.114  0.00  0.00    +0.000 A 
BRANCH  12  19
ATOM     18  C   UNL     1       8.861   9.781  18.689  0.00  0.00    +0.000 C 
ATOM     19  O   UNL     1       8.615   8.915  17.600  0.00  0.00    +0.000 OA
ENDBRANCH  12  19
ENDBRANCH   1  15
BRANCH   2  20
ATOM     20  C   UNL     1       2.681   6.369  19.124  0.00  0.00    +0.000 C 
BRANCH  20  21
ATOM     21  C   UNL     1       1.962   6.870  20.361  0.00  0.00    +0.000 C 
BRANCH  21  22
ATOM     22  N   UNL     1       1.521   8.240  20.216  0.00  0.00    +0.000 N 
ATOM     23  C   UNL     1       1.520   8.925  19.030  0.00  0.00    +0.000 C 
ATOM     24  O   UNL     1       1.881   8.567  17.935  0.00  0.00    +0.000 OA
ATOM     25  C   UNL     1       0.981  10.254  19.336  0.00  0.00    +0.000 A 
ATOM     26  C   UNL     1       0.764  11.324  18.498  0.00  0.00    +0.000 A 
ATOM     27  C   UNL     1       0.244  12.484  19.066  0.00  0.00    +0.000 A 
ATOM     28  C   UNL     1      -0.038  12.545  20.449  0.00  0.00    +0.000 A 
ATOM     29  C   UNL     1       0.196  11.442  21.273  0.00  0.00    +0.000 A 
ATOM     30  C   UNL     1       0.707  10.297  20.697  0.00  0.00    +0.000 A 
ATOM     31  C   UNL     1       1.066   8.996  21.262  0.00  0.00    +0.000 C 
ATOM     32  O   UNL     1       0.981   8.670  22.431  0.00  0.00    +0.000 OA
BRANCH  29  33
ATOM     33  O   UNL     1      -0.048  11.495  22.602  0.00  0.00    +0.000 OA
ATOM     34  H   UNL     1       0.550  12.131  23.029  0.00  0.00    +0.000 HD
ENDBRANCH  29  33
ENDBRANCH  21  22
ENDBRANCH  20  21
ENDBRANCH   2  20
TORSDOF 6
ENDMDL
MODEL 9
REMARK VINA RESULT:      -8.9      2.311      3.291
REMARK  Name = 
REMARK  7 active torsions:
REMARK  status: ('A' for Active; 'I' for Inactive)
REMARK    1  A    between atoms: C_1  and  O_2
REMARK    2  A    between atoms: O_2  and  C_3
REMARK    3  A    between atoms: C_6  and  N_7
REMARK    4  A    between atoms: C_8  and  C_9
REMARK    5  A    between atoms: C_9  and  C_10
REMARK    6  A    between atoms: C_10  and  N_11
REMARK    7  A    between atoms: C_18  and  O_19
REMARK                            x       y       z     vdW  Elec       q    Type
REMARK                         _______ _______ _______ _____ _____    ______ ____
ROOT
ATOM      1  N   UNL     1       5.201   5.146  18.107  0.00  0.00    +0.000 N 
ATOM      2  C   UNL     1       4.756   4.832  19.380  0.00  0.00    +0.000 A 
ATOM      3  N   UNL     1       4.853   3.586  19.754  0.00  0.00    +0.000 NA
ATOM      4  C   UNL     1       3.955   2.828  18.979  0.00  0.00    +0.000 A 
ATOM      5  C   UNL     1       3.097   1.967  19.661  0.00  0.00    +0.000 A 
ATOM      6  C   UNL     1       1.800   1.814  19.193  0.00  0.00    +0.000 A 
ATOM      7  C   UNL     1       1.403   2.493  18.034  0.00  0.00    +0.000 A 
ATOM      8  C   UNL     1       2.333   3.205  17.249  0.00  0.00    +0.000 A 
ATOM      9  C   UNL     1       3.651   3.318  17.694  0.00  0.00    +0.000 A 
ATOM     10  C   UNL     1       4.680   4.297  17.129  0.00  0.00    +0.000 A 
ATOM     11  O   UNL     1       4.937   4.280  15.932  0.00  0.00    +0.000 OA
ENDROOT
BRANCH   1  15
ATOM     12  C   UNL     1       8.099   8.293  17.963  0.00  0.00    +0.000 A 
ATOM     13  C   UNL     1       8.382   7.159  18.732  0.00  0.00    +0.000 A 
ATOM     14  C   UNL     1       7.476   6.056  18.772  0.00  0.00    +0.000 A 
ATOM     15  C   UNL     1       6.290   6.087  18.028  0.00  0.00    +0.000 A 
ATOM     16  C   UNL     1       6.099   7.215  17.203  0.00  0.00    +0.000 A 
ATOM     17  C   UNL     1       6.954   8.303  17.195  0.00  0.00    +0.000 A 
BRANCH  12  19
ATOM     18  C   UNL     1       9.146  10.085  19.121  0.00  0.00    +0.000 C 
ATOM     19  O   UNL     1       8.777   9.473  17.901  0.00  0.00    +0.000 OA
ENDBRANCH  12  19
ENDBRANCH   1  15
BRANCH   2  20
ATOM     20  C   UNL     1       3.568   5.702  19.820  0.00  0.00    +0.000 C 
BRANCH  20  21
ATOM     21  C   UNL     1       3.012   6.470  18.638  0.00  0.00    +0.000 C 
BRANCH  21  22
ATOM     22  N   UNL     1       2.215   7.605  19.052  0.00  0.00    +0.000 N 
ATOM     23  C   UNL     1       2.043   8.736  18.302  0.00  0.00    +0.000 C 
ATOM     24  O   UNL     1       2.504   9.021  17.222  0.00  0.00    +0.000 OA
ATOM     25  C   UNL     1       1.158   9.605  19.085  0.00  0.00    +0.000 A 
ATOM     26  C   UNL     1       0.669  10.856  18.782  0.00  0.00    +0.000 A 
ATOM     27  C   UNL     1      -0.156  11.462  19.726  0.00  0.00    +0.000 A 
ATOM     28  C   UNL     1      -0.463  10.811  20.941  0.00  0.00    +0.000 A 
ATOM     29  C   UNL     1       0.053   9.542  21.219  0.00  0.00    +0.000 A 
ATOM     30  C   UNL     1       0.864   8.949  20.274  0.00  0.00    +0.000 A 
ATOM     31  C   UNL     1       1.558   7.661  20.250  0.00  0.00    +0.000 C 
ATOM     32  O   UNL     1       1.549   6.823  21.132  0.00  0.00    +0.000 OA
BRANCH  29  33
ATOM     33  O   UNL     1      -0.215   8.916  22.387  0.00  0.00    +0.000 OA
ATOM     34  H   UNL     1      -0.760   8.127  22.229  0.00  0.00    +0.000 HD
ENDBRANCH  29  33
ENDBRANCH  21  22
ENDBRANCH  20  21
ENDBRANCH   2  20
TORSDOF 6
ENDMDL
