MODEL 1
REMARK VINA RESULT:      -8.1      0.000      0.000
REMARK  Name = 
REMARK  4 active torsions:
REMARK  status: ('A' for Active; 'I' for Inactive)
REMARK    1  A    between atoms: C_1  and  O_2
REMARK    2  A    between atoms: O_2  and  C_3
REMARK    3  A    between atoms: C_3  and  C_5
REMARK    4  A    between atoms: C_10  and  N_11
REMARK                            x       y       z     vdW  Elec       q    Type
REMARK                         _______ _______ _______ _____ _____    ______ ____
ROOT
ATOM      1  N   UNL     1       4.752   4.890  17.510  0.00  0.00    +0.000 N 
ATOM      2  C   UNL     1       3.923   5.956  17.741  0.00  0.00    +0.000 C 
ATOM      3  O   UNL     1       3.708   6.910  17.008  0.00  0.00    +0.000 OA
ATOM      4  C   UNL     1       3.336   5.814  19.111  0.00  0.00    +0.000 C 
ATOM      5  C   UNL     1       4.105   4.621  19.744  0.00  0.00    +0.000 C 
ATOM      6  C   UNL     1       4.799   3.992  18.553  0.00  0.00    +0.000 C 
ATOM      7  O   UNL     1       5.279   2.866  18.539  0.00  0.00    +0.000 OA
ATOM      8  C   UNL     1       2.973   3.769  20.350  0.00  0.00    +0.000 C 
ATOM      9  C   UNL     1       2.235   4.656  21.377  0.00  0.00    +0.000 C 
ATOM     10  C   UNL     1       1.532   5.584  20.688  0.00  0.00    +0.000 C 
ATOM     11  C   UNL     1       1.846   5.360  19.206  0.00  0.00    +0.000 C 
ATOM     12  C   UNL     1       1.957   3.846  19.233  0.00  0.00    +0.000 C 
ATOM     13  C   UNL     1       0.757   2.924  19.300  0.00  0.00    +0.000 C 
ATOM     14  C   UNL     1       1.685   2.879  18.113  0.00  0.00    +0.000 C 
ENDROOT
BRANCH   1  20
ATOM     15  C   UNL     1       6.828   5.519  16.323  0.00  0.00    +0.000 A 
ATOM     16  C   UNL     1       7.603   5.453  15.144  0.00  0.00    +0.000 A 
ATOM     17  C   UNL     1       7.148   4.741  14.032  0.00  0.00    +0.000 A 
ATOM     18  C   UNL     1       5.918   4.093  14.084  0.00  0.00    +0.000 A 
ATOM     19  C   UNL     1       5.145   4.141  15.248  0.00  0.00    +0.000 A 
ATOM     20  C   UNL     1       5.603   4.829  16.381  0.00  0.00    +0.000 A 
BRANCH  15  21
ATOM     21  C   UNL     1       7.295   6.379  17.448  0.00  0.00    +0.000 C 
ATOM     22  O   UNL     1       7.719   5.962  18.515  0.00  0.00    +0.000 OA
BRANCH  21  24
ATOM     23  C   UNL     1       8.010   8.581  17.815  0.00  0.00    +0.000 C 
ATOM     24  O   UNL     1       7.115   7.692  17.144  0.00  0.00    +0.000 OA
ENDBRANCH  21  24
ENDBRANCH  15  21
ENDBRANCH   1  20
TORSDOF 3
ENDMDL
MODEL 2
REMARK VINA RESULT:      -8.0      1.628      3.453
REMARK  Name = 
REMARK  4 active torsions:
REMARK  status: ('A' for Active; 'I' for Inactive)
REMARK    1  A    between atoms: C_1  and  O_2
REMARK    2  A    between atoms: O_2  and  C_3
REMARK    3  A    between atoms: C_3  and  C_5
REMARK    4  A    between atoms: C_10  and  N_11
REMARK                            x       y       z     vdW  Elec       q    Type
REMARK                         _______ _______ _______ _____ _____    ______ ____
ROOT
ATOM      1  N   UNL     1       4.375   4.925  18.567  0.00  0.00    +0.000 N 
ATOM      2  C   UNL     1       4.191   3.719  17.942  0.00  0.00    +0.000 C 
ATOM      3  O   UNL     1       5.030   3.033  17.375  0.00  0.00    +0.000 OA
ATOM      4  C   UNL     1       2.737   3.370  17.998  0.00  0.00    +0.000 C 
ATOM      5  C   UNL     1       2.050   4.648  18.557  0.00  0.00    +0.000 C 
ATOM      6  C   UNL     1       3.216   5.459  19.084  0.00  0.00    +0.000 C 
ATOM      7  O   UNL     1       3.118   6.400  19.861  0.00  0.00    +0.000 OA
ATOM      8  C   UNL     1       1.116   4.084  19.645  0.00  0.00    +0.000 C 
ATOM      9  C   UNL     1       0.146   3.103  18.951  0.00  0.00    +0.000 C 
ATOM     10  C   UNL     1       0.853   2.001  18.607  0.00  0.00    +0.000 C 
ATOM     11  C   UNL     1       2.305   2.268  19.014  0.00  0.00    +0.000 C 
ATOM     12  C   UNL     1       2.035   3.063  20.279  0.00  0.00    +0.000 C 
ATOM     13  C   UNL     1       1.599   2.430  21.584  0.00  0.00    +0.000 C 
ATOM     14  C   UNL     1       2.904   3.181  21.501  0.00  0.00    +0.000 C 
ENDROOT
BRANCH   1  20
ATOM     15  C   UNL     1       5.919   6.528  17.490  0.00  0.00    +0.000 A 
ATOM     16  C   UNL     1       7.188   7.147  17.477  0.00  0.00    +0.000 A 
ATOM     17  C   UNL     1       8.141   6.838  18.449  0.00  0.00    +0.000 A 
ATOM     18  C   UNL     1       7.839   5.908  19.440  0.00  0.00    +0.000 A 
ATOM     19  C   UNL     1       6.582   5.296  19.472  0.00  0.00    +0.000 A 
ATOM     20  C   UNL     1       5.607   5.618  18.517  0.00  0.00    +0.000 A 
BRANCH  15  21
ATOM     21  C   UNL     1       4.970   6.800  16.372  0.00  0.00    +0.000 C 
ATOM     22  O   UNL     1       3.814   7.170  16.514  0.00  0.00    +0.000 OA
BRANCH  21  24
ATOM     23  C   UNL     1       5.545   5.118  14.844  0.00  0.00    +0.000 C 
ATOM     24  O   UNL     1       5.551   6.508  15.178  0.00  0.00    +0.000 OA
ENDBRANCH  21  24
ENDBRANCH  15  21
ENDBRANCH   1  20
TORSDOF 3
ENDMDL
MODEL 3
REMARK VINA RESULT:      -7.9      0.645      1.037
REMARK  Name = 
REMARK  4 active torsions:
REMARK  status: ('A' for Active; 'I' for Inactive)
REMARK    1  A    between atoms: C_1  and  O_2
REMARK    2  A    between atoms: O_2  and  C_3
REMARK    3  A    between atoms: C_3  and  C_5
REMARK    4  A    between atoms: C_10  and  N_11
REMARK                            x       y       z     vdW  Elec       q    Type
REMARK                         _______ _______ _______ _____ _____    ______ ____
ROOT
ATOM      1  N   UNL     1       4.678   4.757  17.518  0.00  0.00    +0.000 N 
ATOM      2  C   UNL     1       3.956   5.877  17.841  0.00  0.00    +0.000 C 
ATOM      3  O   UNL     1       3.816   6.894  17.177  0.00  0.00    +0.000 OA
ATOM      4  C   UNL     1       3.386   5.697  19.213  0.00  0.00    +0.000 C 
ATOM      5  C   UNL     1       4.053   4.398  19.746  0.00  0.00    +0.000 C 
ATOM      6  C   UNL     1       4.661   3.790  18.499  0.00  0.00    +0.000 C 
ATOM      7  O   UNL     1       5.034   2.629  18.398  0.00  0.00    +0.000 OA
ATOM      8  C   UNL     1       2.859   3.615  20.325  0.00  0.00    +0.000 C 
ATOM      9  C   UNL     1       2.228   4.495  21.427  0.00  0.00    +0.000 C 
ATOM     10  C   UNL     1       1.601   5.527  20.818  0.00  0.00    +0.000 C 
ATOM     11  C   UNL     1       1.863   5.376  19.317  0.00  0.00    +0.000 C 
ATOM     12  C   UNL     1       1.832   3.860  19.242  0.00  0.00    +0.000 C 
ATOM     13  C   UNL     1       0.553   3.050  19.280  0.00  0.00    +0.000 C 
ATOM     14  C   UNL     1       1.449   3.000  18.069  0.00  0.00    +0.000 C 
ENDROOT
BRANCH   1  20
ATOM     15  C   UNL     1       6.790   5.248  16.330  0.00  0.00    +0.000 A 
ATOM     16  C   UNL     1       7.531   5.193  15.129  0.00  0.00    +0.000 A 
ATOM     17  C   UNL     1       6.980   4.629  13.977  0.00  0.00    +0.000 A 
ATOM     18  C   UNL     1       5.685   4.119  14.010  0.00  0.00    +0.000 A 
ATOM     19  C   UNL     1       4.944   4.156  15.195  0.00  0.00    +0.000 A 
ATOM     20  C   UNL     1       5.496   4.695  16.366  0.00  0.00    +0.000 A 
BRANCH  15  21
ATOM     21  C   UNL     1       7.370   5.957  17.507  0.00  0.00    +0.000 C 
ATOM     22  O   UNL     1       7.479   7.169  17.606  0.00  0.00    +0.000 OA
BRANCH  21  24
ATOM     23  C   UNL     1       7.782   5.520  19.772  0.00  0.00    +0.000 C 
ATOM     24  O   UNL     1       7.825   5.058  18.420  0.00  0.00    +0.000 OA
ENDBRANCH  21  24
ENDBRANCH  15  21
ENDBRANCH   1  20
TORSDOF 3
ENDMDL
MODEL 4
REMARK VINA RESULT:      -7.5      1.980      6.115
REMARK  Name = 
REMARK  4 active torsions:
REMARK  status: ('A' for Active; 'I' for Inactive)
REMARK    1  A    between atoms: C_1  and  O_2
REMARK    2  A    between atoms: O_2  and  C_3
REMARK    3  A    between atoms: C_3  and  C_5
REMARK    4  A    between atoms: C_10  and  N_11
REMARK                            x       y       z     vdW  Elec       q    Type
REMARK                         _______ _______ _______ _____ _____    ______ ____
ROOT
ATOM      1  N   UNL     1       4.164   3.794  18.621  0.00  0.00    +0.000 N 
ATOM      2  C   UNL     1       4.002   3.180  17.406  0.00  0.00    +0.000 C 
ATOM      3  O   UNL     1       3.084   2.455  17.049  0.00  0.00    +0.000 OA
ATOM      4  C   UNL     1       5.195   3.485  16.555  0.00  0.00    +0.000 C 
ATOM      5  C   UNL     1       6.191   4.191  17.518  0.00  0.00    +0.000 C 
ATOM      6  C   UNL     1       5.328   4.523  18.718  0.00  0.00    +0.000 C 
ATOM      7  O   UNL     1       5.624   5.330  19.590  0.00  0.00    +0.000 OA
ATOM      8  C   UNL     1       6.648   5.413  16.699  0.00  0.00    +0.000 C 
ATOM      9  C   UNL     1       7.300   4.877  15.405  0.00  0.00    +0.000 C 
ATOM     10  C   UNL     1       6.312   4.385  14.622  0.00  0.00    +0.000 C 
ATOM     11  C   UNL     1       5.010   4.533  15.414  0.00  0.00    +0.000 C 
ATOM     12  C   UNL     1       5.325   5.846  16.108  0.00  0.00    +0.000 C 
ATOM     13  C   UNL     1       5.263   7.191  15.414  0.00  0.00    +0.000 C 
ATOM     14  C   UNL     1       4.358   6.896  16.583  0.00  0.00    +0.000 C 
ENDROOT
BRANCH   1  20
ATOM     15  C   UNL     1       3.512   2.486  20.616  0.00  0.00    +0.000 A 
ATOM     16  C   UNL     1       2.580   2.265  21.653  0.00  0.00    +0.000 A 
ATOM     17  C   UNL     1       1.438   3.060  21.765  0.00  0.00    +0.000 A 
ATOM     18  C   UNL     1       1.213   4.080  20.844  0.00  0.00    +0.000 A 
ATOM     19  C   UNL     1       2.134   4.317  19.819  0.00  0.00    +0.000 A 
ATOM     20  C   UNL     1       3.299   3.543  19.712  0.00  0.00    +0.000 A 
BRANCH  15  21
ATOM     21  C   UNL     1       4.661   1.547  20.462  0.00  0.00    +0.000 C 
ATOM     22  O   UNL     1       4.832   0.806  19.506  0.00  0.00    +0.000 OA
BRANCH  21  24
ATOM     23  C   UNL     1       5.956   0.307  21.972  0.00  0.00    +0.000 C 
ATOM     24  O   UNL     1       5.449   1.581  21.570  0.00  0.00    +0.000 OA
ENDBRANCH  21  24
ENDBRANCH  15  21
ENDBRANCH   1  20
TORSDOF 3
ENDMDL
MODEL 5
REMARK VINA RESULT:      -7.4      1.265      2.400
REMARK  Name = 
REMARK  4 active torsions:
REMARK  status: ('A' for Active; 'I' for Inactive)
REMARK    1  A    between atoms: C_1  and  O_2
REMARK    2  A    between atoms: O_2  and  C_3
REMARK    3  A    between atoms: C_3  and  C_5
REMARK    4  A    between atoms: C_10  and  N_11
REMARK                            x       y       z     vdW  Elec       q    Type
REMARK                         _______ _______ _______ _____ _____    ______ ____
ROOT
ATOM      1  N   UNL     1       4.228   3.917  17.672  0.00  0.00    +0.000 N 
ATOM      2  C   UNL     1       4.765   3.652  18.905  0.00  0.00    +0.000 C 
ATOM      3  O   UNL     1       5.937   3.734  19.244  0.00  0.00    +0.000 OA
ATOM      4  C   UNL     1       3.674   3.163  19.805  0.00  0.00    +0.000 C 
ATOM      5  C   UNL     1       2.450   2.970  18.866  0.00  0.00    +0.000 C 
ATOM      6  C   UNL     1       2.870   3.696  17.605  0.00  0.00    +0.000 C 
ATOM      7  O   UNL     1       2.108   4.044  16.712  0.00  0.00    +0.000 OA
ATOM      8  C   UNL     1       1.310   3.650  19.649  0.00  0.00    +0.000 C 
ATOM      9  C   UNL     1       1.185   2.916  21.002  0.00  0.00    +0.000 C 
ATOM     10  C   UNL     1       2.261   3.251  21.751  0.00  0.00    +0.000 C 
ATOM     11  C   UNL     1       3.137   4.156  20.881  0.00  0.00    +0.000 C 
ATOM     12  C   UNL     1       2.029   4.886  20.142  0.00  0.00    +0.000 C 
ATOM     13  C   UNL     1       1.198   5.989  20.764  0.00  0.00    +0.000 C 
ATOM     14  C   UNL     1       2.063   6.274  19.562  0.00  0.00    +0.000 C 
ENDROOT
BRANCH   1  20
ATOM     15  C   UNL     1       5.578   5.494  16.328  0.00  0.00    +0.000 A 
ATOM     16  C   UNL     1       6.331   5.732  15.158  0.00  0.00    +0.000 A 
ATOM     17  C   UNL     1       6.509   4.725  14.208  0.00  0.00    +0.000 A 
ATOM     18  C   UNL     1       5.936   3.473  14.414  0.00  0.00    +0.000 A 
ATOM     19  C   UNL     1       5.197   3.220  15.573  0.00  0.00    +0.000 A 
ATOM     20  C   UNL     1       5.034   4.215  16.548  0.00  0.00    +0.000 A 
BRANCH  15  21
ATOM     21  C   UNL     1       5.317   6.626  17.264  0.00  0.00    +0.000 C 
ATOM     22  O   UNL     1       4.305   7.311  17.264  0.00  0.00    +0.000 OA
BRANCH  21  24
ATOM     23  C   UNL     1       7.311   7.814  17.583  0.00  0.00    +0.000 C 
ATOM     24  O   UNL     1       6.394   6.831  18.068  0.00  0.00    +0.000 OA
ENDBRANCH  21  24
ENDBRANCH  15  21
ENDBRANCH   1  20
TORSDOF 3
ENDMDL
MODEL 6
REMARK VINA RESULT:      -7.2      1.775      5.828
REMARK  Name = 
REMARK  4 active torsions:
REMARK  status: ('A' for Active; 'I' for Inactive)
REMARK    1  A    between atoms: C_1  and  O_2
REMARK    2  A    between atoms: O_2  and  C_3
REMARK    3  A    between atoms: C_3  and  C_5
REMARK    4  A    between atoms: C_10  and  N_11
REMARK                            x       y       z     vdW  Elec       q    Type
REMARK                         _______ _______ _______ _____ _____    ______ ____
ROOT
ATOM      1  N   UNL     1       4.244   3.794  18.558  0.00  0.00    +0.000 N 
ATOM      2  C   UNL     1       4.108   3.163  17.349  0.00  0.00    +0.000 C 
ATOM      3  O   UNL     1       3.201   2.428  16.986  0.00  0.00    +0.000 OA
ATOM      4  C   UNL     1       5.314   3.464  16.516  0.00  0.00    +0.000 C 
ATOM      5  C   UNL     1       6.288   4.189  17.487  0.00  0.00    +0.000 C 
ATOM      6  C   UNL     1       5.402   4.532  18.667  0.00  0.00    +0.000 C 
ATOM      7  O   UNL     1       5.678   5.352  19.533  0.00  0.00    +0.000 OA
ATOM      8  C   UNL     1       6.753   5.403  16.660  0.00  0.00    +0.000 C 
ATOM      9  C   UNL     1       7.431   4.854  15.385  0.00  0.00    +0.000 C 
ATOM     10  C   UNL     1       6.460   4.345  14.591  0.00  0.00    +0.000 C 
ATOM     11  C   UNL     1       5.143   4.495  15.358  0.00  0.00    +0.000 C 
ATOM     12  C   UNL     1       5.438   5.820  16.039  0.00  0.00    +0.000 C 
ATOM     13  C   UNL     1       5.381   7.155  15.326  0.00  0.00    +0.000 C 
ATOM     14  C   UNL     1       4.456   6.870  16.483  0.00  0.00    +0.000 C 
ENDROOT
BRANCH   1  20
ATOM     15  C   UNL     1       2.283   4.407  19.934  0.00  0.00    +0.000 A 
ATOM     16  C   UNL     1       1.472   4.132  21.056  0.00  0.00    +0.000 A 
ATOM     17  C   UNL     1       1.751   3.045  21.887  0.00  0.00    +0.000 A 
ATOM     18  C   UNL     1       2.842   2.226  21.609  0.00  0.00    +0.000 A 
ATOM     19  C   UNL     1       3.647   2.481  20.495  0.00  0.00    +0.000 A 
ATOM     20  C   UNL     1       3.361   3.553  19.637  0.00  0.00    +0.000 A 
BRANCH  15  21
ATOM     21  C   UNL     1       2.020   5.640  19.136  0.00  0.00    +0.000 C 
ATOM     22  O   UNL     1       1.648   5.650  17.972  0.00  0.00    +0.000 OA
BRANCH  21  24
ATOM     23  C   UNL     1       2.071   7.982  19.191  0.00  0.00    +0.000 C 
ATOM     24  O   UNL     1       2.322   6.747  19.865  0.00  0.00    +0.000 OA
ENDBRANCH  21  24
ENDBRANCH  15  21
ENDBRANCH   1  20
TORSDOF 3
ENDMDL
MODEL 7
REMARK VINA RESULT:      -7.1      2.103      3.415
REMARK  Name = 
REMARK  4 active torsions:
REMARK  status: ('A' for Active; 'I' for Inactive)
REMARK    1  A    between atoms: C_1  and  O_2
REMARK    2  A    between atoms: O_2  and  C_3
REMARK    3  A    between atoms: C_3  and  C_5
REMARK    4  A    between atoms: C_10  and  N_11
REMARK                            x       y       z     vdW  Elec       q    Type
REMARK                         _______ _______ _______ _____ _____    ______ ____
ROOT
ATOM      1  N   UNL     1       4.284   4.913  18.580  0.00  0.00    +0.000 N 
ATOM      2  C   UNL     1       4.046   3.770  17.862  0.00  0.00    +0.000 C 
ATOM      3  O   UNL     1       4.835   3.144  17.168  0.00  0.00    +0.000 OA
ATOM      4  C   UNL     1       2.600   3.411  18.001  0.00  0.00    +0.000 C 
ATOM      5  C   UNL     1       1.964   4.628  18.730  0.00  0.00    +0.000 C 
ATOM      6  C   UNL     1       3.171   5.391  19.236  0.00  0.00    +0.000 C 
ATOM      7  O   UNL     1       3.139   6.255  20.103  0.00  0.00    +0.000 OA
ATOM      8  C   UNL     1       1.119   3.962  19.832  0.00  0.00    +0.000 C 
ATOM      9  C   UNL     1       0.093   3.046  19.128  0.00  0.00    +0.000 C 
ATOM     10  C   UNL     1       0.766   1.984  18.628  0.00  0.00    +0.000 C 
ATOM     11  C   UNL     1       2.247   2.217  18.941  0.00  0.00    +0.000 C 
ATOM     12  C   UNL     1       2.081   2.890  20.292  0.00  0.00    +0.000 C 
ATOM     13  C   UNL     1       1.749   2.135  21.563  0.00  0.00    +0.000 C 
ATOM     14  C   UNL     1       3.046   2.896  21.447  0.00  0.00    +0.000 C 
ENDROOT
BRANCH   1  20
ATOM     15  C   UNL     1       5.782   6.538  17.473  0.00  0.00    +0.000 A 
ATOM     16  C   UNL     1       7.047   7.163  17.424  0.00  0.00    +0.000 A 
ATOM     17  C   UNL     1       8.035   6.845  18.358  0.00  0.00    +0.000 A 
ATOM     18  C   UNL     1       7.772   5.901  19.346  0.00  0.00    +0.000 A 
ATOM     19  C   UNL     1       6.520   5.282  19.413  0.00  0.00    +0.000 A 
ATOM     20  C   UNL     1       5.510   5.613  18.497  0.00  0.00    +0.000 A 
BRANCH  15  21
ATOM     21  C   UNL     1       4.793   6.821  16.393  0.00  0.00    +0.000 C 
ATOM     22  O   UNL     1       5.051   6.841  15.199  0.00  0.00    +0.000 OA
BRANCH  21  24
ATOM     23  C   UNL     1       3.472   8.463  17.419  0.00  0.00    +0.000 C 
ATOM     24  O   UNL     1       3.581   7.124  16.931  0.00  0.00    +0.000 OA
ENDBRANCH  21  24
ENDBRANCH  15  21
ENDBRANCH   1  20
TORSDOF 3
ENDMDL
MODEL 8
REMARK VINA RESULT:      -6.9      1.682      5.735
REMARK  Name = 
REMARK  4 active torsions:
REMARK  status: ('A' for Active; 'I' for Inactive)
REMARK    1  A    between atoms: C_1  and  O_2
REMARK    2  A    between atoms: O_2  and  C_3
REMARK    3  A    between atoms: C_3  and  C_5
REMARK    4  A    between atoms: C_10  and  N_11
REMARK                            x       y       z     vdW  Elec       q    Type
REMARK                         _______ _______ _______ _____ _____    ______ ____
ROOT
ATOM      1  N   UNL     1       3.861   4.386  18.620  0.00  0.00    +0.000 N 
ATOM      2  C   UNL     1       5.032   4.040  19.241  0.00  0.00    +0.000 C 
ATOM      3  O   UNL     1       5.259   3.041  19.908  0.00  0.00    +0.000 OA
ATOM      4  C   UNL     1       6.026   5.139  19.030  0.00  0.00    +0.000 C 
ATOM      5  C   UNL     1       5.206   6.287  18.376  0.00  0.00    +0.000 C 
ATOM      6  C   UNL     1       3.921   5.598  17.968  0.00  0.00    +0.000 C 
ATOM      7  O   UNL     1       3.110   6.049  17.169  0.00  0.00    +0.000 OA
ATOM      8  C   UNL     1       6.103   6.720  17.201  0.00  0.00    +0.000 C 
ATOM      9  C   UNL     1       7.453   7.175  17.801  0.00  0.00    +0.000 C 
ATOM     10  C   UNL     1       8.100   6.071  18.239  0.00  0.00    +0.000 C 
ATOM     11  C   UNL     1       7.162   4.885  17.991  0.00  0.00    +0.000 C 
ATOM     12  C   UNL     1       6.543   5.366  16.691  0.00  0.00    +0.000 C 
ATOM     13  C   UNL     1       7.257   5.308  15.356  0.00  0.00    +0.000 C 
ATOM     14  C   UNL     1       5.981   4.533  15.570  0.00  0.00    +0.000 C 
ENDROOT
BRANCH   1  20
ATOM     15  C   UNL     1       1.745   3.931  19.816  0.00  0.00    +0.000 A 
ATOM     16  C   UNL     1       0.601   3.117  19.961  0.00  0.00    +0.000 A 
ATOM     17  C   UNL     1       0.399   2.017  19.126  0.00  0.00    +0.000 A 
ATOM     18  C   UNL     1       1.336   1.717  18.142  0.00  0.00    +0.000 A 
ATOM     19  C   UNL     1       2.468   2.521  17.979  0.00  0.00    +0.000 A 
ATOM     20  C   UNL     1       2.669   3.644  18.794  0.00  0.00    +0.000 A 
BRANCH  15  21
ATOM     21  C   UNL     1       1.982   5.029  20.798  0.00  0.00    +0.000 C 
ATOM     22  O   UNL     1       2.707   4.944  21.777  0.00  0.00    +0.000 OA
BRANCH  21  24
ATOM     23  C   UNL     1       1.939   7.347  20.450  0.00  0.00    +0.000 C 
ATOM     24  O   UNL     1       1.220   6.112  20.486  0.00  0.00    +0.000 OA
ENDBRANCH  21  24
ENDBRANCH  15  21
ENDBRANCH   1  20
TORSDOF 3
ENDMDL
MODEL 9
REMARK VINA RESULT:      -6.9      1.501      2.655
REMARK  Name = 
REMARK  4 active torsions:
REMARK  status: ('A' for Active; 'I' for Inactive)
REMARK    1  A    between atoms: C_1  and  O_2
REMARK    2  A    between atoms: O_2  and  C_3
REMARK    3  A    between atoms: C_3  and  C_5
REMARK    4  A    between atoms: C_10  and  N_11
REMARK                            x       y       z     vdW  Elec       q    Type
REMARK                         _______ _______ _______ _____ _____    ______ ____
ROOT
ATOM      1  N   UNL     1       4.183   3.927  17.742  0.00  0.00    +0.000 N 
ATOM      2  C   UNL     1       4.743   3.663  18.964  0.00  0.00    +0.000 C 
ATOM      3  O   UNL     1       5.910   3.809  19.300  0.00  0.00    +0.000 OA
ATOM      4  C   UNL     1       3.690   3.084  19.856  0.00  0.00    +0.000 C 
ATOM      5  C   UNL     1       2.474   2.840  18.918  0.00  0.00    +0.000 C 
ATOM      6  C   UNL     1       2.841   3.624  17.675  0.00  0.00    +0.000 C 
ATOM      7  O   UNL     1       2.053   3.947  16.795  0.00  0.00    +0.000 OA
ATOM      8  C   UNL     1       1.300   3.428  19.723  0.00  0.00    +0.000 C 
ATOM      9  C   UNL     1       1.228   2.652  21.058  0.00  0.00    +0.000 C 
ATOM     10  C   UNL     1       2.286   3.033  21.811  0.00  0.00    +0.000 C 
ATOM     11  C   UNL     1       3.099   4.014  20.960  0.00  0.00    +0.000 C 
ATOM     12  C   UNL     1       1.944   4.693  20.246  0.00  0.00    +0.000 C 
ATOM     13  C   UNL     1       1.050   5.725  20.902  0.00  0.00    +0.000 C 
ATOM     14  C   UNL     1       1.888   6.095  19.703  0.00  0.00    +0.000 C 
ENDROOT
BRANCH   1  20
ATOM     15  C   UNL     1       5.292   5.644  16.350  0.00  0.00    +0.000 A 
ATOM     16  C   UNL     1       6.031   5.950  15.186  0.00  0.00    +0.000 A 
ATOM     17  C   UNL     1       6.403   4.944  14.293  0.00  0.00    +0.000 A 
ATOM     18  C   UNL     1       6.040   3.625  14.549  0.00  0.00    +0.000 A 
ATOM     19  C   UNL     1       5.318   3.306  15.703  0.00  0.00    +0.000 A 
ATOM     20  C   UNL     1       4.962   4.303  16.622  0.00  0.00    +0.000 A 
BRANCH  15  21
ATOM     21  C   UNL     1       4.817   6.758  17.221  0.00  0.00    +0.000 C 
ATOM     22  O   UNL     1       5.362   7.114  18.254  0.00  0.00    +0.000 OA
BRANCH  21  24
ATOM     23  C   UNL     1       3.042   8.244  17.587  0.00  0.00    +0.000 C 
ATOM     24  O   UNL     1       3.654   7.271  16.738  0.00  0.00    +0.000 OA
ENDBRANCH  21  24
ENDBRANCH  15  21
ENDBRANCH   1  20
TORSDOF 3
ENDMDL
