MODEL 1
REMARK VINA RESULT:      -7.9      0.000      0.000
REMARK  Name = 
REMARK  15 active torsions:
REMARK  status: ('A' for Active; 'I' for Inactive)
REMARK    1  A    between atoms: C_1  and  N_2
REMARK    2  A    between atoms: N_2  and  C_3
REMARK    3  A    between atoms: N_2  and  C_16
REMARK    4  A    between atoms: C_3  and  C_4
REMARK    5  A    between atoms: C_19  and  C_20
REMARK    6  A    between atoms: N_22  and  CA_23
REMARK    7  A    between atoms: CA_23  and  C_24
REMARK    8  A    between atoms: CA_23  and  C_32
REMARK    9  A    between atoms: C_24  and  C_25
REMARK   10  A    between atoms: C_25  and  C_26
REMARK   11  A    between atoms: C_26  and  N_27
REMARK   12  A    between atoms: N_27  and  C_28
REMARK   13  A    between atoms: C_28  and  C_29
REMARK   14  A    between atoms: C_29  and  O_31
REMARK   15  A    between atoms: C_32  and  OXT_34
REMARK                            x       y       z     vdW  Elec       q    Type
REMARK                         _______ _______ _______ _____ _____    ______ ____
ROOT
ATOM      1  C   UNL     1       0.865   9.388  19.090  0.00  0.00    +0.000 A 
ATOM      2  C   UNL     1       1.192   8.523  20.146  0.00  0.00    +0.000 A 
ATOM      3  C   UNL     1       2.126   7.490  19.989  0.00  0.00    +0.000 A 
ATOM      4  C   UNL     1       2.779   7.307  18.770  0.00  0.00    +0.000 A 
ATOM      5  C   UNL     1       2.442   8.130  17.693  0.00  0.00    +0.000 A 
ATOM      6  C   UNL     1       1.496   9.152  17.857  0.00  0.00    +0.000 A 
ENDROOT
BRANCH   4   7
ATOM      7  C   UNL     1       3.795   6.222  18.668  0.00  0.00    +0.000 C 
ATOM      8  O   UNL     1       4.168   5.621  19.669  0.00  0.00    +0.000 OA
ATOM      9  N   UNL     1       4.287   5.958  17.409  0.00  0.00    +0.000 N 
ATOM     10  H   UNL     1       4.090   6.594  16.642  0.00  0.00    +0.000 HD
BRANCH   9  11
ATOM     11  CA  UNL     1       5.277   4.914  17.135  0.00  0.00    +0.000 C 
BRANCH  11  12
ATOM     12  C   UNL     1       6.000   5.285  15.829  0.00  0.00    +0.000 C 
ATOM     13  O   UNL     1       5.533   5.068  14.717  0.00  0.00    +0.000 OA
BRANCH  12  14
ATOM     14  OXT UNL     1       7.205   5.877  15.994  0.00  0.00    +0.000 OA
ATOM     15  HXT UNL     1       7.907   5.571  15.391  0.00  0.00    +0.000 HD
ENDBRANCH  12  14
ENDBRANCH  11  12
BRANCH  11  16
ATOM     16  C   UNL     1       4.632   3.527  17.036  0.00  0.00    +0.000 C 
BRANCH  16  17
ATOM     17  C   UNL     1       3.101   3.591  16.920  0.00  0.00    +0.000 C 
BRANCH  17  18
ATOM     18  C   UNL     1       2.408   2.489  17.716  0.00  0.00    +0.000 C 
BRANCH  18  19
ATOM     19  N   UNL     1       2.829   2.560  19.117  0.00  0.00    +0.000 NA
ATOM     20  H   UNL     1       3.608   3.225  19.178  0.00  0.00    +0.000 HD
BRANCH  19  21
ATOM     21  C   UNL     1       1.727   3.063  19.966  0.00  0.00    +0.000 C 
BRANCH  21  22
ATOM     22  C   UNL     1       2.273   3.326  21.366  0.00  0.00    +0.000 C 
ATOM     23  O   UNL     1       2.596   2.457  22.159  0.00  0.00    +0.000 OA
BRANCH  22  24
ATOM     24  O   UNL     1       2.397   4.655  21.621  0.00  0.00    +0.000 OA
ATOM     25  H   UNL     1       1.815   5.136  20.983  0.00  0.00    +0.000 HD
ENDBRANCH  22  24
ENDBRANCH  21  22
ENDBRANCH  19  21
ENDBRANCH  18  19
ENDBRANCH  17  18
ENDBRANCH  16  17
ENDBRANCH  11  16
ENDBRANCH   9  11
ENDBRANCH   4   7
BRANCH   1  27
ATOM     26  C   UNL     1      -0.756  10.903  18.026  0.00  0.00    +0.000 C 
ATOM     27  N   UNL     1      -0.033  10.452  19.215  0.00  0.00    +0.000 N 
BRANCH  27  28
ATOM     28  C   UNL     1       0.318  11.480  20.218  0.00  0.00    +0.000 C 
BRANCH  28  29
ATOM     29  C   UNL     1      -0.745  11.731  21.271  0.00  0.00    +0.000 A 
ATOM     30  C   UNL     1      -0.763  11.109  22.505  0.00  0.00    +0.000 A 
ATOM     31  N   UNL     1      -1.773  11.258  23.403  0.00  0.00    +0.000 NA
ATOM     32  C   UNL     1      -2.792  12.067  23.081  0.00  0.00    +0.000 A 
ATOM     33  N   UNL     1      -3.805  12.167  23.944  0.00  0.00    +0.000 NA
ATOM     34  C   UNL     1      -4.818  12.958  23.617  0.00  0.00    +0.000 A 
ATOM     35  N   UNL     1      -5.890  13.017  24.479  0.00  0.00    +0.000 N 
ATOM     36  N   UNL     1      -4.869  13.715  22.524  0.00  0.00    +0.000 NA
ATOM     37  C   UNL     1      -3.841  13.602  21.671  0.00  0.00    +0.000 A 
ATOM     38  N   UNL     1      -3.868  14.479  20.574  0.00  0.00    +0.000 N 
ATOM     39  C   UNL     1      -2.753  12.754  21.868  0.00  0.00    +0.000 A 
ATOM     40  N   UNL     1      -1.750  12.585  20.946  0.00  0.00    +0.000 NA
ATOM     41  H   UNL     1      -5.618  12.735  25.410  0.00  0.00    +0.000 HD
ATOM     42  H   UNL     1      -6.392  13.886  24.380  0.00  0.00    +0.000 HD
ATOM     43  H   UNL     1      -4.781  14.914  20.505  0.00  0.00    +0.000 HD
ATOM     44  H   UNL     1      -3.536  14.031  19.725  0.00  0.00    +0.000 HD
ENDBRANCH  28  29
ENDBRANCH  27  28
ENDBRANCH   1  27
TORSDOF 14
ENDMDL
MODEL 2
REMARK VINA RESULT:      -7.9      0.471      1.073
REMARK  Name = 
REMARK  15 active torsions:
REMARK  status: ('A' for Active; 'I' for Inactive)
REMARK    1  A    between atoms: C_1  and  N_2
REMARK    2  A    between atoms: N_2  and  C_3
REMARK    3  A    between atoms: N_2  and  C_16
REMARK    4  A    between atoms: C_3  and  C_4
REMARK    5  A    between atoms: C_19  and  C_20
REMARK    6  A    between atoms: N_22  and  CA_23
REMARK    7  A    between atoms: CA_23  and  C_24
REMARK    8  A    between atoms: CA_23  and  C_32
REMARK    9  A    between atoms: C_24  and  C_25
REMARK   10  A    between atoms: C_25  and  C_26
REMARK   11  A    between atoms: C_26  and  N_27
REMARK   12  A    between atoms: N_27  and  C_28
REMARK   13  A    between atoms: C_28  and  C_29
REMARK   14  A    between atoms: C_29  and  O_31
REMARK   15  A    between atoms: C_32  and  OXT_34
REMARK                            x       y       z     vdW  Elec       q    Type
REMARK                         _______ _______ _______ _____ _____    ______ ____
ROOT
ATOM      1  C   UNL     1       1.008   9.264  19.006  0.00  0.00    +0.000 A 
ATOM      2  C   UNL     1       1.755   9.050  17.838  0.00  0.00    +0.000 A 
ATOM      3  C   UNL     1       2.698   8.018  17.745  0.00  0.00    +0.000 A 
ATOM      4  C   UNL     1       2.905   7.153  18.820  0.00  0.00    +0.000 A 
ATOM      5  C   UNL     1       2.203   7.369  20.008  0.00  0.00    +0.000 A 
ATOM      6  C   UNL     1       1.271   8.413  20.093  0.00  0.00    +0.000 A 
ENDROOT
BRANCH   4   7
ATOM      7  C   UNL     1       3.889   6.045  18.656  0.00  0.00    +0.000 C 
ATOM      8  O   UNL     1       4.442   5.553  19.632  0.00  0.00    +0.000 OA
ATOM      9  N   UNL     1       4.140   5.633  17.366  0.00  0.00    +0.000 N 
ATOM     10  H   UNL     1       3.802   6.183  16.581  0.00  0.00    +0.000 HD
BRANCH   9  11
ATOM     11  CA  UNL     1       5.066   4.548  17.034  0.00  0.00    +0.000 C 
BRANCH  11  12
ATOM     12  C   UNL     1       5.949   5.025  15.869  0.00  0.00    +0.000 C 
ATOM     13  O   UNL     1       5.557   5.088  14.710  0.00  0.00    +0.000 OA
BRANCH  12  14
ATOM     14  OXT UNL     1       7.208   5.378  16.217  0.00  0.00    +0.000 OA
ATOM     15  HXT UNL     1       7.736   4.677  16.642  0.00  0.00    +0.000 HD
ENDBRANCH  12  14
ENDBRANCH  11  12
BRANCH  11  16
ATOM     16  C   UNL     1       4.325   3.255  16.672  0.00  0.00    +0.000 C 
BRANCH  16  17
ATOM     17  C   UNL     1       3.792   2.512  17.908  0.00  0.00    +0.000 C 
BRANCH  17  18
ATOM     18  C   UNL     1       2.274   2.349  17.882  0.00  0.00    +0.000 C 
BRANCH  18  19
ATOM     19  N   UNL     1       1.812   1.873  19.188  0.00  0.00    +0.000 NA
ATOM     20  H   UNL     1       2.640   1.677  19.762  0.00  0.00    +0.000 HD
BRANCH  19  21
ATOM     21  C   UNL     1       1.016   2.918  19.869  0.00  0.00    +0.000 C 
BRANCH  21  22
ATOM     22  C   UNL     1       1.677   3.236  21.208  0.00  0.00    +0.000 C 
ATOM     23  O   UNL     1       2.159   4.317  21.503  0.00  0.00    +0.000 OA
BRANCH  22  24
ATOM     24  O   UNL     1       1.634   2.178  22.059  0.00  0.00    +0.000 OA
ATOM     25  H   UNL     1       2.335   2.316  22.741  0.00  0.00    +0.000 HD
ENDBRANCH  22  24
ENDBRANCH  21  22
ENDBRANCH  19  21
ENDBRANCH  18  19
ENDBRANCH  17  18
ENDBRANCH  16  17
ENDBRANCH  11  16
ENDBRANCH   9  11
ENDBRANCH   4   7
BRANCH   1  27
ATOM     26  C   UNL     1      -0.824  10.544  17.976  0.00  0.00    +0.000 C 
ATOM     27  N   UNL     1       0.032  10.258  19.127  0.00  0.00    +0.000 N 
BRANCH  27  28
ATOM     28  C   UNL     1       0.371  11.392  20.012  0.00  0.00    +0.000 C 
BRANCH  28  29
ATOM     29  C   UNL     1      -0.634  11.660  21.117  0.00  0.00    +0.000 A 
ATOM     30  C   UNL     1      -0.542  11.115  22.384  0.00  0.00    +0.000 A 
ATOM     31  N   UNL     1      -1.499  11.274  23.337  0.00  0.00    +0.000 NA
ATOM     32  C   UNL     1      -2.574  12.014  23.037  0.00  0.00    +0.000 A 
ATOM     33  N   UNL     1      -3.534  12.122  23.960  0.00  0.00    +0.000 NA
ATOM     34  C   UNL     1      -4.602  12.845  23.655  0.00  0.00    +0.000 A 
ATOM     35  N   UNL     1      -5.619  12.908  24.582  0.00  0.00    +0.000 N 
ATOM     36  N   UNL     1      -4.761  13.530  22.526  0.00  0.00    +0.000 NA
ATOM     37  C   UNL     1      -3.785  13.411  21.614  0.00  0.00    +0.000 A 
ATOM     38  N   UNL     1      -3.925  14.217  20.472  0.00  0.00    +0.000 N 
ATOM     39  C   UNL     1      -2.647  12.627  21.787  0.00  0.00    +0.000 A 
ATOM     40  N   UNL     1      -1.698  12.446  20.811  0.00  0.00    +0.000 NA
ATOM     41  H   UNL     1      -5.274  12.697  25.508  0.00  0.00    +0.000 HD
ATOM     42  H   UNL     1      -6.168  13.747  24.467  0.00  0.00    +0.000 HD
ATOM     43  H   UNL     1      -4.862  14.605  20.439  0.00  0.00    +0.000 HD
ATOM     44  H   UNL     1      -3.628  13.733  19.630  0.00  0.00    +0.000 HD
ENDBRANCH  28  29
ENDBRANCH  27  28
ENDBRANCH   1  27
TORSDOF 14
ENDMDL
MODEL 3
REMARK VINA RESULT:      -7.8      2.183      4.371
REMARK  Name = 
REMARK  15 active torsions:
REMARK  status: ('A' for Active; 'I' for Inactive)
REMARK    1  A    between atoms: C_1  and  N_2
REMARK    2  A    between atoms: N_2  and  C_3
REMARK    3  A    between atoms: N_2  and  C_16
REMARK    4  A    between atoms: C_3  and  C_4
REMARK    5  A    between atoms: C_19  and  C_20
REMARK    6  A    between atoms: N_22  and  CA_23
REMARK    7  A    between atoms: CA_23  and  C_24
REMARK    8  A    between atoms: CA_23  and  C_32
REMARK    9  A    between atoms: C_24  and  C_25
REMARK   10  A    between atoms: C_25  and  C_26
REMARK   11  A    between atoms: C_26  and  N_27
REMARK   12  A    between atoms: N_27  and  C_28
REMARK   13  A    between atoms: C_28  and  C_29
REMARK   14  A    between atoms: C_29  and  O_31
REMARK   15  A    between atoms: C_32  and  OXT_34
REMARK                            x       y       z     vdW  Elec       q    Type
REMARK                         _______ _______ _______ _____ _____    ______ ____
ROOT
ATOM      1  C   UNL     1       1.449   9.381  19.275  0.00  0.00    +0.000 A 
ATOM      2  C   UNL     1       1.091   8.817  20.510  0.00  0.00    +0.000 A 
ATOM      3  C   UNL     1       1.313   7.462  20.793  0.00  0.00    +0.000 A 
ATOM      4  C   UNL     1       1.922   6.635  19.849  0.00  0.00    +0.000 A 
ATOM      5  C   UNL     1       2.251   7.163  18.598  0.00  0.00    +0.000 A 
ATOM      6  C   UNL     1       2.013   8.517  18.322  0.00  0.00    +0.000 A 
ENDROOT
BRANCH   4   7
ATOM      7  C   UNL     1       2.175   5.212  20.215  0.00  0.00    +0.000 C 
ATOM      8  O   UNL     1       2.185   4.864  21.390  0.00  0.00    +0.000 OA
ATOM      9  N   UNL     1       2.407   4.342  19.173  0.00  0.00    +0.000 N 
ATOM     10  H   UNL     1       2.569   4.701  18.237  0.00  0.00    +0.000 HD
BRANCH   9  11
ATOM     11  CA  UNL     1       2.656   2.911  19.360  0.00  0.00    +0.000 C 
BRANCH  11  12
ATOM     12  C   UNL     1       3.894   2.764  20.260  0.00  0.00    +0.000 C 
ATOM     13  O   UNL     1       5.034   2.998  19.878  0.00  0.00    +0.000 OA
BRANCH  12  14
ATOM     14  OXT UNL     1       3.635   2.354  21.523  0.00  0.00    +0.000 OA
ATOM     15  HXT UNL     1       2.709   2.103  21.699  0.00  0.00    +0.000 HD
ENDBRANCH  12  14
ENDBRANCH  11  12
BRANCH  11  16
ATOM     16  C   UNL     1       2.854   2.187  18.024  0.00  0.00    +0.000 C 
BRANCH  16  17
ATOM     17  C   UNL     1       2.974   3.155  16.837  0.00  0.00    +0.000 C 
BRANCH  17  18
ATOM     18  C   UNL     1       4.427   3.456  16.474  0.00  0.00    +0.000 C 
BRANCH  18  19
ATOM     19  N   UNL     1       4.931   4.532  17.331  0.00  0.00    +0.000 NA
ATOM     20  H   UNL     1       4.830   4.231  18.307  0.00  0.00    +0.000 HD
BRANCH  19  21
ATOM     21  C   UNL     1       6.366   4.776  17.070  0.00  0.00    +0.000 C 
BRANCH  21  22
ATOM     22  C   UNL     1       6.504   6.085  16.298  0.00  0.00    +0.000 C 
ATOM     23  O   UNL     1       5.645   6.554  15.570  0.00  0.00    +0.000 OA
BRANCH  22  24
ATOM     24  O   UNL     1       7.692   6.696  16.544  0.00  0.00    +0.000 OA
ATOM     25  H   UNL     1       7.636   7.108  17.441  0.00  0.00    +0.000 HD
ENDBRANCH  22  24
ENDBRANCH  21  22
ENDBRANCH  19  21
ENDBRANCH  18  19
ENDBRANCH  17  18
ENDBRANCH  16  17
ENDBRANCH  11  16
ENDBRANCH   9  11
ENDBRANCH   4   7
BRANCH   1  27
ATOM     26  C   UNL     1       2.311  11.410  18.181  0.00  0.00    +0.000 C 
ATOM     27  N   UNL     1       1.279  10.734  18.967  0.00  0.00    +0.000 N 
BRANCH  27  28
ATOM     28  C   UNL     1       0.567  11.543  19.979  0.00  0.00    +0.000 C 
BRANCH  28  29
ATOM     29  C   UNL     1      -0.895  11.807  19.668  0.00  0.00    +0.000 A 
ATOM     30  C   UNL     1      -1.796  12.305  20.590  0.00  0.00    +0.000 A 
ATOM     31  N   UNL     1      -3.125  12.442  20.338  0.00  0.00    +0.000 NA
ATOM     32  C   UNL     1      -3.578  12.096  19.126  0.00  0.00    +0.000 A 
ATOM     33  N   UNL     1      -4.891  12.183  18.903  0.00  0.00    +0.000 NA
ATOM     34  C   UNL     1      -5.338  11.828  17.706  0.00  0.00    +0.000 A 
ATOM     35  N   UNL     1      -6.699  11.860  17.494  0.00  0.00    +0.000 N 
ATOM     36  N   UNL     1      -4.569  11.456  16.686  0.00  0.00    +0.000 NA
ATOM     37  C   UNL     1      -3.252  11.378  16.930  0.00  0.00    +0.000 A 
ATOM     38  N   UNL     1      -2.450  11.079  15.816  0.00  0.00    +0.000 N 
ATOM     39  C   UNL     1      -2.669  11.658  18.163  0.00  0.00    +0.000 A 
ATOM     40  N   UNL     1      -1.331  11.490  18.422  0.00  0.00    +0.000 NA
ATOM     41  H   UNL     1      -7.149  12.486  18.147  0.00  0.00    +0.000 HD
ATOM     42  H   UNL     1      -6.914  11.972  16.514  0.00  0.00    +0.000 HD
ATOM     43  H   UNL     1      -3.033  10.766  15.047  0.00  0.00    +0.000 HD
ATOM     44  H   UNL     1      -1.684  10.458  16.059  0.00  0.00    +0.000 HD
ENDBRANCH  28  29
ENDBRANCH  27  28
ENDBRANCH   1  27
TORSDOF 14
ENDMDL
MODEL 4
REMARK VINA RESULT:      -7.7      2.409      4.516
REMARK  Name = 
REMARK  15 active torsions:
REMARK  status: ('A' for Active; 'I' for Inactive)
REMARK    1  A    between atoms: C_1  and  N_2
REMARK    2  A    between atoms: N_2  and  C_3
REMARK    3  A    between atoms: N_2  and  C_16
REMARK    4  A    between atoms: C_3  and  C_4
REMARK    5  A    between atoms: C_19  and  C_20
REMARK    6  A    between atoms: N_22  and  CA_23
REMARK    7  A    between atoms: CA_23  and  C_24
REMARK    8  A    between atoms: CA_23  and  C_32
REMARK    9  A    between atoms: C_24  and  C_25
REMARK   10  A    between atoms: C_25  and  C_26
REMARK   11  A    between atoms: C_26  and  N_27
REMARK   12  A    between atoms: N_27  and  C_28
REMARK   13  A    between atoms: C_28  and  C_29
REMARK   14  A    between atoms: C_29  and  O_31
REMARK   15  A    between atoms: C_32  and  OXT_34
REMARK                            x       y       z     vdW  Elec       q    Type
REMARK                         _______ _______ _______ _____ _____    ______ ____
ROOT
ATOM      1  C   UNL     1       1.304  10.463  19.388  0.00  0.00    +0.000 A 
ATOM      2  C   UNL     1       1.835  10.099  18.141  0.00  0.00    +0.000 A 
ATOM      3  C   UNL     1       2.259   8.790  17.874  0.00  0.00    +0.000 A 
ATOM      4  C   UNL     1       2.142   7.798  18.848  0.00  0.00    +0.000 A 
ATOM      5  C   UNL     1       1.654   8.144  20.111  0.00  0.00    +0.000 A 
ATOM      6  C   UNL     1       1.246   9.460  20.370  0.00  0.00    +0.000 A 
ENDROOT
BRANCH   4   7
ATOM      7  C   UNL     1       2.567   6.413  18.501  0.00  0.00    +0.000 C 
ATOM      8  O   UNL     1       3.416   6.220  17.638  0.00  0.00    +0.000 OA
ATOM      9  N   UNL     1       1.947   5.391  19.183  0.00  0.00    +0.000 N 
ATOM     10  H   UNL     1       1.127   5.583  19.753  0.00  0.00    +0.000 HD
BRANCH   9  11
ATOM     11  CA  UNL     1       2.260   3.975  18.972  0.00  0.00    +0.000 C 
BRANCH  11  12
ATOM     12  C   UNL     1       0.984   3.166  19.257  0.00  0.00    +0.000 C 
ATOM     13  O   UNL     1       0.522   2.342  18.476  0.00  0.00    +0.000 OA
BRANCH  12  14
ATOM     14  OXT UNL     1       0.396   3.429  20.447  0.00  0.00    +0.000 OA
ATOM     15  HXT UNL     1       0.246   4.372  20.638  0.00  0.00    +0.000 HD
ENDBRANCH  12  14
ENDBRANCH  11  12
BRANCH  11  16
ATOM     16  C   UNL     1       3.421   3.509  19.858  0.00  0.00    +0.000 C 
BRANCH  16  17
ATOM     17  C   UNL     1       4.662   3.108  19.045  0.00  0.00    +0.000 C 
BRANCH  17  18
ATOM     18  C   UNL     1       4.347   2.886  17.568  0.00  0.00    +0.000 C 
BRANCH  18  19
ATOM     19  N   UNL     1       5.176   3.777  16.752  0.00  0.00    +0.000 NA
ATOM     20  H   UNL     1       4.569   4.511  16.370  0.00  0.00    +0.000 HD
BRANCH  19  21
ATOM     21  C   UNL     1       6.215   4.424  17.583  0.00  0.00    +0.000 C 
BRANCH  21  22
ATOM     22  C   UNL     1       7.209   5.123  16.660  0.00  0.00    +0.000 C 
ATOM     23  O   UNL     1       7.578   4.688  15.582  0.00  0.00    +0.000 OA
BRANCH  22  24
ATOM     24  O   UNL     1       7.615   6.318  17.163  0.00  0.00    +0.000 OA
ATOM     25  H   UNL     1       6.877   6.676  17.714  0.00  0.00    +0.000 HD
ENDBRANCH  22  24
ENDBRANCH  21  22
ENDBRANCH  19  21
ENDBRANCH  18  19
ENDBRANCH  17  18
ENDBRANCH  16  17
ENDBRANCH  11  16
ENDBRANCH   9  11
ENDBRANCH   4   7
BRANCH   1  27
ATOM     26  C   UNL     1       1.759  12.876  19.558  0.00  0.00    +0.000 C 
ATOM     27  N   UNL     1       0.837  11.747  19.683  0.00  0.00    +0.000 N 
BRANCH  27  28
ATOM     28  C   UNL     1      -0.193  11.833  20.740  0.00  0.00    +0.000 C 
BRANCH  28  29
ATOM     29  C   UNL     1      -1.605  12.067  20.236  0.00  0.00    +0.000 A 
ATOM     30  C   UNL     1      -2.630  12.549  21.027  0.00  0.00    +0.000 A 
ATOM     31  N   UNL     1      -3.916  12.658  20.599  0.00  0.00    +0.000 NA
ATOM     32  C   UNL     1      -4.197  12.300  19.340  0.00  0.00    +0.000 A 
ATOM     33  N   UNL     1      -5.470  12.359  18.943  0.00  0.00    +0.000 NA
ATOM     34  C   UNL     1      -5.746  11.992  17.699  0.00  0.00    +0.000 A 
ATOM     35  N   UNL     1      -7.067  11.997  17.307  0.00  0.00    +0.000 N 
ATOM     36  N   UNL     1      -4.840  11.634  16.793  0.00  0.00    +0.000 NA
ATOM     37  C   UNL     1      -3.567  11.583  17.210  0.00  0.00    +0.000 A 
ATOM     38  N   UNL     1      -2.618  11.298  16.215  0.00  0.00    +0.000 N 
ATOM     39  C   UNL     1      -3.159  11.877  18.509  0.00  0.00    +0.000 A 
ATOM     40  N   UNL     1      -1.864  11.738  18.945  0.00  0.00    +0.000 NA
ATOM     41  H   UNL     1      -7.612  12.615  17.892  0.00  0.00    +0.000 HD
ATOM     42  H   UNL     1      -7.151  12.101  16.307  0.00  0.00    +0.000 HD
ATOM     43  H   UNL     1      -3.086  10.971  15.377  0.00  0.00    +0.000 HD
ATOM     44  H   UNL     1      -1.879  10.692  16.561  0.00  0.00    +0.000 HD
ENDBRANCH  28  29
ENDBRANCH  27  28
ENDBRANCH   1  27
TORSDOF 14
ENDMDL
MODEL 5
REMARK VINA RESULT:      -7.7      2.362      4.667
REMARK  Name = 
REMARK  15 active torsions:
REMARK  status: ('A' for Active; 'I' for Inactive)
REMARK    1  A    between atoms: C_1  and  N_2
REMARK    2  A    between atoms: N_2  and  C_3
REMARK    3  A    between atoms: N_2  and  C_16
REMARK    4  A    between atoms: C_3  and  C_4
REMARK    5  A    between atoms: C_19  and  C_20
REMARK    6  A    between atoms: N_22  and  CA_23
REMARK    7  A    between atoms: CA_23  and  C_24
REMARK    8  A    between atoms: CA_23  and  C_32
REMARK    9  A    between atoms: C_24  and  C_25
REMARK   10  A    between atoms: C_25  and  C_26
REMARK   11  A    between atoms: C_26  and  N_27
REMARK   12  A    between atoms: N_27  and  C_28
REMARK   13  A    between atoms: C_28  and  C_29
REMARK   14  A    between atoms: C_29  and  O_31
REMARK   15  A    between atoms: C_32  and  OXT_34
REMARK                            x       y       z     vdW  Elec       q    Type
REMARK                         _______ _______ _______ _____ _____    ______ ____
ROOT
ATOM      1  C   UNL     1       1.314  10.220  19.287  0.00  0.00    +0.000 A 
ATOM      2  C   UNL     1       1.239   9.284  20.330  0.00  0.00    +0.000 A 
ATOM      3  C   UNL     1       1.578   7.938  20.138  0.00  0.00    +0.000 A 
ATOM      4  C   UNL     1       2.024   7.494  18.893  0.00  0.00    +0.000 A 
ATOM      5  C   UNL     1       2.069   8.397  17.828  0.00  0.00    +0.000 A 
ATOM      6  C   UNL     1       1.715   9.739  18.029  0.00  0.00    +0.000 A 
ENDROOT
BRANCH   4   7
ATOM      7  C   UNL     1       2.412   6.062  18.752  0.00  0.00    +0.000 C 
ATOM      8  O   UNL     1       2.755   5.614  17.664  0.00  0.00    +0.000 OA
ATOM      9  N   UNL     1       2.346   5.292  19.891  0.00  0.00    +0.000 N 
ATOM     10  H   UNL     1       1.887   5.653  20.723  0.00  0.00    +0.000 HD
BRANCH   9  11
ATOM     11  CA  UNL     1       2.708   3.873  19.927  0.00  0.00    +0.000 C 
BRANCH  11  12
ATOM     12  C   UNL     1       1.955   3.226  21.101  0.00  0.00    +0.000 C 
ATOM     13  O   UNL     1       2.501   2.884  22.143  0.00  0.00    +0.000 OA
BRANCH  12  14
ATOM     14  OXT UNL     1       0.627   3.058  20.903  0.00  0.00    +0.000 OA
ATOM     15  HXT UNL     1       0.343   3.043  19.971  0.00  0.00    +0.000 HD
ENDBRANCH  12  14
ENDBRANCH  11  12
BRANCH  11  16
ATOM     16  C   UNL     1       4.222   3.673  20.062  0.00  0.00    +0.000 C 
BRANCH  16  17
ATOM     17  C   UNL     1       4.864   3.118  18.781  0.00  0.00    +0.000 C 
BRANCH  17  18
ATOM     18  C   UNL     1       5.623   4.185  17.998  0.00  0.00    +0.000 C 
BRANCH  18  19
ATOM     19  N   UNL     1       6.350   5.050  18.931  0.00  0.00    +0.000 NA
ATOM     20  H   UNL     1       6.613   4.484  19.745  0.00  0.00    +0.000 HD
BRANCH  19  21
ATOM     21  C   UNL     1       7.589   5.563  18.306  0.00  0.00    +0.000 C 
BRANCH  21  22
ATOM     22  C   UNL     1       7.206   6.463  17.135  0.00  0.00    +0.000 C 
ATOM     23  O   UNL     1       6.659   7.547  17.245  0.00  0.00    +0.000 OA
BRANCH  22  24
ATOM     24  O   UNL     1       7.582   5.931  15.943  0.00  0.00    +0.000 OA
ATOM     25  H   UNL     1       7.022   6.345  15.242  0.00  0.00    +0.000 HD
ENDBRANCH  22  24
ENDBRANCH  21  22
ENDBRANCH  19  21
ENDBRANCH  18  19
ENDBRANCH  17  18
ENDBRANCH  16  17
ENDBRANCH  11  16
ENDBRANCH   9  11
ENDBRANCH   4   7
BRANCH   1  27
ATOM     26  C   UNL     1       2.063  12.560  19.148  0.00  0.00    +0.000 C 
ATOM     27  N   UNL     1       1.021  11.578  19.446  0.00  0.00    +0.000 N 
BRANCH  27  28
ATOM     28  C   UNL     1       0.072  11.912  20.529  0.00  0.00    +0.000 C 
BRANCH  28  29
ATOM     29  C   UNL     1      -1.366  12.094  20.081  0.00  0.00    +0.000 A 
ATOM     30  C   UNL     1      -2.375  12.547  20.910  0.00  0.00    +0.000 A 
ATOM     31  N   UNL     1      -3.680  12.610  20.534  0.00  0.00    +0.000 NA
ATOM     32  C   UNL     1      -3.999  12.233  19.289  0.00  0.00    +0.000 A 
ATOM     33  N   UNL     1      -5.288  12.247  18.943  0.00  0.00    +0.000 NA
ATOM     34  C   UNL     1      -5.601  11.862  17.714  0.00  0.00    +0.000 A 
ATOM     35  N   UNL     1      -6.936  11.819  17.375  0.00  0.00    +0.000 N 
ATOM     36  N   UNL     1      -4.721  11.528  16.774  0.00  0.00    +0.000 NA
ATOM     37  C   UNL     1      -3.431  11.523  17.140  0.00  0.00    +0.000 A 
ATOM     38  N   UNL     1      -2.513  11.263  16.109  0.00  0.00    +0.000 N 
ATOM     39  C   UNL     1      -2.982  11.840  18.419  0.00  0.00    +0.000 A 
ATOM     40  N   UNL     1      -1.666  11.747  18.803  0.00  0.00    +0.000 NA
ATOM     41  H   UNL     1      -7.478  12.422  17.978  0.00  0.00    +0.000 HD
ATOM     42  H   UNL     1      -7.064  11.914  16.379  0.00  0.00    +0.000 HD
ATOM     43  H   UNL     1      -3.004  10.915  15.292  0.00  0.00    +0.000 HD
ATOM     44  H   UNL     1      -1.741  10.685  16.428  0.00  0.00    +0.000 HD
ENDBRANCH  28  29
ENDBRANCH  27  28
ENDBRANCH   1  27
TORSDOF 14
ENDMDL
MODEL 6
REMARK VINA RESULT:      -7.6      5.295     11.035
REMARK  Name = 
REMARK  15 active torsions:
REMARK  status: ('A' for Active; 'I' for Inactive)
REMARK    1  A    between atoms: C_1  and  N_2
REMARK    2  A    between atoms: N_2  and  C_3
REMARK    3  A    between atoms: N_2  and  C_16
REMARK    4  A    between atoms: C_3  and  C_4
REMARK    5  A    between atoms: C_19  and  C_20
REMARK    6  A    between atoms: N_22  and  CA_23
REMARK    7  A    between atoms: CA_23  and  C_24
REMARK    8  A    between atoms: CA_23  and  C_32
REMARK    9  A    between atoms: C_24  and  C_25
REMARK   10  A    between atoms: C_25  and  C_26
REMARK   11  A    between atoms: C_26  and  N_27
REMARK   12  A    between atoms: N_27  and  C_28
REMARK   13  A    between atoms: C_28  and  C_29
REMARK   14  A    between atoms: C_29  and  O_31
REMARK   15  A    between atoms: C_32  and  OXT_34
REMARK                            x       y       z     vdW  Elec       q    Type
REMARK                         _______ _______ _______ _____ _____    ______ ____
ROOT
ATOM      1  C   UNL     1      -0.516  10.670  18.672  0.00  0.00    +0.000 A 
ATOM      2  C   UNL     1      -1.066  10.016  17.558  0.00  0.00    +0.000 A 
ATOM      3  C   UNL     1      -2.358  10.304  17.099  0.00  0.00    +0.000 A 
ATOM      4  C   UNL     1      -3.132  11.276  17.733  0.00  0.00    +0.000 A 
ATOM      5  C   UNL     1      -2.623  11.913  18.868  0.00  0.00    +0.000 A 
ATOM      6  C   UNL     1      -1.333  11.607  19.326  0.00  0.00    +0.000 A 
ENDROOT
BRANCH   4   7
ATOM      7  C   UNL     1      -4.483  11.575  17.180  0.00  0.00    +0.000 C 
ATOM      8  O   UNL     1      -4.864  11.044  16.143  0.00  0.00    +0.000 OA
ATOM      9  N   UNL     1      -5.248  12.479  17.883  0.00  0.00    +0.000 N 
ATOM     10  H   UNL     1      -4.831  13.029  18.628  0.00  0.00    +0.000 HD
BRANCH   9  11
ATOM     11  CA  UNL     1      -6.602  12.870  17.483  0.00  0.00    +0.000 C 
BRANCH  11  12
ATOM     12  C   UNL     1      -6.595  14.385  17.222  0.00  0.00    +0.000 C 
ATOM     13  O   UNL     1      -6.843  14.880  16.128  0.00  0.00    +0.000 OA
BRANCH  12  14
ATOM     14  OXT UNL     1      -6.290  15.147  18.297  0.00  0.00    +0.000 OA
ATOM     15  HXT UNL     1      -5.400  15.545  18.288  0.00  0.00    +0.000 HD
ENDBRANCH  12  14
ENDBRANCH  11  12
BRANCH  11  16
ATOM     16  C   UNL     1      -7.642  12.497  18.547  0.00  0.00    +0.000 C 
BRANCH  16  17
ATOM     17  C   UNL     1      -7.005  11.919  19.821  0.00  0.00    +0.000 C 
BRANCH  17  18
ATOM     18  C   UNL     1      -6.973  12.928  20.967  0.00  0.00    +0.000 C 
BRANCH  18  19
ATOM     19  N   UNL     1      -5.662  13.582  21.004  0.00  0.00    +0.000 NA
ATOM     20  H   UNL     1      -5.784  14.506  21.436  0.00  0.00    +0.000 HD
BRANCH  19  21
ATOM     21  C   UNL     1      -4.717  12.806  21.835  0.00  0.00    +0.000 C 
BRANCH  21  22
ATOM     22  C   UNL     1      -4.924  13.191  23.297  0.00  0.00    +0.000 C 
ATOM     23  O   UNL     1      -5.201  14.314  23.684  0.00  0.00    +0.000 OA
BRANCH  22  24
ATOM     24  O   UNL     1      -4.801  12.122  24.126  0.00  0.00    +0.000 OA
ATOM     25  H   UNL     1      -5.592  12.110  24.717  0.00  0.00    +0.000 HD
ENDBRANCH  22  24
ENDBRANCH  21  22
ENDBRANCH  19  21
ENDBRANCH  18  19
ENDBRANCH  17  18
ENDBRANCH  16  17
ENDBRANCH  11  16
ENDBRANCH   9  11
ENDBRANCH   4   7
BRANCH   1  27
ATOM     26  C   UNL     1       1.314  11.308  20.189  0.00  0.00    +0.000 C 
ATOM     27  N   UNL     1       0.781  10.439  19.139  0.00  0.00    +0.000 N 
BRANCH  27  28
ATOM     28  C   UNL     1       1.744   9.919  18.145  0.00  0.00    +0.000 C 
BRANCH  28  29
ATOM     29  C   UNL     1       2.268   8.525  18.436  0.00  0.00    +0.000 A 
ATOM     30  C   UNL     1       1.868   7.768  19.521  0.00  0.00    +0.000 A 
ATOM     31  N   UNL     1       2.416   6.564  19.835  0.00  0.00    +0.000 NA
ATOM     32  C   UNL     1       3.377   6.079  19.037  0.00  0.00    +0.000 A 
ATOM     33  N   UNL     1       3.948   4.922  19.381  0.00  0.00    +0.000 NA
ATOM     34  C   UNL     1       4.907   4.450  18.597  0.00  0.00    +0.000 A 
ATOM     35  N   UNL     1       5.537   3.288  18.981  0.00  0.00    +0.000 N 
ATOM     36  N   UNL     1       5.298   5.009  17.454  0.00  0.00    +0.000 NA
ATOM     37  C   UNL     1       4.711   6.168  17.125  0.00  0.00    +0.000 A 
ATOM     38  N   UNL     1       5.067   6.690  15.870  0.00  0.00    +0.000 N 
ATOM     39  C   UNL     1       3.741   6.799  17.900  0.00  0.00    +0.000 A 
ATOM     40  N   UNL     1       3.211   8.029  17.595  0.00  0.00    +0.000 NA
ATOM     41  H   UNL     1       4.954   2.755  19.611  0.00  0.00    +0.000 HD
ATOM     42  H   UNL     1       5.932   2.806  18.188  0.00  0.00    +0.000 HD
ATOM     43  H   UNL     1       5.876   6.196  15.510  0.00  0.00    +0.000 HD
ATOM     44  H   UNL     1       5.153   7.702  15.893  0.00  0.00    +0.000 HD
ENDBRANCH  28  29
ENDBRANCH  27  28
ENDBRANCH   1  27
TORSDOF 14
ENDMDL
MODEL 7
REMARK VINA RESULT:      -7.6      1.579      2.045
REMARK  Name = 
REMARK  15 active torsions:
REMARK  status: ('A' for Active; 'I' for Inactive)
REMARK    1  A    between atoms: C_1  and  N_2
REMARK    2  A    between atoms: N_2  and  C_3
REMARK    3  A    between atoms: N_2  and  C_16
REMARK    4  A    between atoms: C_3  and  C_4
REMARK    5  A    between atoms: C_19  and  C_20
REMARK    6  A    between atoms: N_22  and  CA_23
REMARK    7  A    between atoms: CA_23  and  C_24
REMARK    8  A    between atoms: CA_23  and  C_32
REMARK    9  A    between atoms: C_24  and  C_25
REMARK   10  A    between atoms: C_25  and  C_26
REMARK   11  A    between atoms: C_26  and  N_27
REMARK   12  A    between atoms: N_27  and  C_28
REMARK   13  A    between atoms: C_28  and  C_29
REMARK   14  A    between atoms: C_29  and  O_31
REMARK   15  A    between atoms: C_32  and  OXT_34
REMARK                            x       y       z     vdW  Elec       q    Type
REMARK                         _______ _______ _______ _____ _____    ______ ____
ROOT
ATOM      1  C   UNL     1       1.043   9.377  19.054  0.00  0.00    +0.000 A 
ATOM      2  C   UNL     1       1.744   9.236  17.847  0.00  0.00    +0.000 A 
ATOM      3  C   UNL     1       2.642   8.181  17.635  0.00  0.00    +0.000 A 
ATOM      4  C   UNL     1       2.847   7.219  18.624  0.00  0.00    +0.000 A 
ATOM      5  C   UNL     1       2.190   7.359  19.849  0.00  0.00    +0.000 A 
ATOM      6  C   UNL     1       1.304   8.426  20.055  0.00  0.00    +0.000 A 
ENDROOT
BRANCH   4   7
ATOM      7  C   UNL     1       3.780   6.094  18.333  0.00  0.00    +0.000 C 
ATOM      8  O   UNL     1       3.874   5.640  17.199  0.00  0.00    +0.000 OA
ATOM      9  N   UNL     1       4.496   5.599  19.400  0.00  0.00    +0.000 N 
ATOM     10  H   UNL     1       4.257   5.877  20.347  0.00  0.00    +0.000 HD
BRANCH   9  11
ATOM     11  CA  UNL     1       5.465   4.506  19.281  0.00  0.00    +0.000 C 
BRANCH  11  12
ATOM     12  C   UNL     1       6.471   4.889  18.183  0.00  0.00    +0.000 C 
ATOM     13  O   UNL     1       7.239   5.839  18.277  0.00  0.00    +0.000 OA
BRANCH  12  14
ATOM     14  OXT UNL     1       6.451   4.093  17.090  0.00  0.00    +0.000 OA
ATOM     15  HXT UNL     1       6.150   4.521  16.267  0.00  0.00    +0.000 HD
ENDBRANCH  12  14
ENDBRANCH  11  12
BRANCH  11  16
ATOM     16  C   UNL     1       4.782   3.170  18.966  0.00  0.00    +0.000 C 
BRANCH  16  17
ATOM     17  C   UNL     1       4.366   2.403  20.231  0.00  0.00    +0.000 C 
BRANCH  17  18
ATOM     18  C   UNL     1       2.851   2.350  20.410  0.00  0.00    +0.000 C 
BRANCH  18  19
ATOM     19  N   UNL     1       2.320   3.714  20.479  0.00  0.00    +0.000 NA
ATOM     20  H   UNL     1       2.882   4.303  19.854  0.00  0.00    +0.000 HD
BRANCH  19  21
ATOM     21  C   UNL     1       0.918   3.750  20.009  0.00  0.00    +0.000 C 
BRANCH  21  22
ATOM     22  C   UNL     1       0.859   3.142  18.611  0.00  0.00    +0.000 C 
ATOM     23  O   UNL     1       1.256   3.693  17.597  0.00  0.00    +0.000 OA
BRANCH  22  24
ATOM     24  O   UNL     1       0.342   1.886  18.625  0.00  0.00    +0.000 OA
ATOM     25  H   UNL     1       1.059   1.264  18.351  0.00  0.00    +0.000 HD
ENDBRANCH  22  24
ENDBRANCH  21  22
ENDBRANCH  19  21
ENDBRANCH  18  19
ENDBRANCH  17  18
ENDBRANCH  16  17
ENDBRANCH  11  16
ENDBRANCH   9  11
ENDBRANCH   4   7
BRANCH   1  27
ATOM     26  C   UNL     1      -0.693  10.883  18.173  0.00  0.00    +0.000 C 
ATOM     27  N   UNL     1       0.112  10.392  19.291  0.00  0.00    +0.000 N 
BRANCH  27  28
ATOM     28  C   UNL     1       0.476  11.370  20.338  0.00  0.00    +0.000 C 
BRANCH  28  29
ATOM     29  C   UNL     1      -0.616  11.650  21.355  0.00  0.00    +0.000 A 
ATOM     30  C   UNL     1      -0.717  10.997  22.568  0.00  0.00    +0.000 A 
ATOM     31  N   UNL     1      -1.753  11.176  23.430  0.00  0.00    +0.000 NA
ATOM     32  C   UNL     1      -2.714  12.047  23.092  0.00  0.00    +0.000 A 
ATOM     33  N   UNL     1      -3.755  12.178  23.917  0.00  0.00    +0.000 NA
ATOM     34  C   UNL     1      -4.710  13.032  23.573  0.00  0.00    +0.000 A 
ATOM     35  N   UNL     1      -5.813  13.125  24.394  0.00  0.00    +0.000 N 
ATOM     36  N   UNL     1      -4.677  13.819  22.501  0.00  0.00    +0.000 NA
ATOM     37  C   UNL     1      -3.621  13.674  21.687  0.00  0.00    +0.000 A 
ATOM     38  N   UNL     1      -3.557  14.580  20.616  0.00  0.00    +0.000 N 
ATOM     39  C   UNL     1      -2.589  12.764  21.902  0.00  0.00    +0.000 A 
ATOM     40  N   UNL     1      -1.559  12.565  21.016  0.00  0.00    +0.000 NA
ATOM     41  H   UNL     1      -5.594  12.804  25.326  0.00  0.00    +0.000 HD
ATOM     42  H   UNL     1      -6.263  14.022  24.300  0.00  0.00    +0.000 HD
ATOM     43  H   UNL     1      -4.443  15.065  20.523  0.00  0.00    +0.000 HD
ATOM     44  H   UNL     1      -3.216  14.138  19.768  0.00  0.00    +0.000 HD
ENDBRANCH  28  29
ENDBRANCH  27  28
ENDBRANCH   1  27
TORSDOF 14
ENDMDL
MODEL 8
REMARK VINA RESULT:      -7.5      2.124      2.997
REMARK  Name = 
REMARK  15 active torsions:
REMARK  status: ('A' for Active; 'I' for Inactive)
REMARK    1  A    between atoms: C_1  and  N_2
REMARK    2  A    between atoms: N_2  and  C_3
REMARK    3  A    between atoms: N_2  and  C_16
REMARK    4  A    between atoms: C_3  and  C_4
REMARK    5  A    between atoms: C_19  and  C_20
REMARK    6  A    between atoms: N_22  and  CA_23
REMARK    7  A    between atoms: CA_23  and  C_24
REMARK    8  A    between atoms: CA_23  and  C_32
REMARK    9  A    between atoms: C_24  and  C_25
REMARK   10  A    between atoms: C_25  and  C_26
REMARK   11  A    between atoms: C_26  and  N_27
REMARK   12  A    between atoms: N_27  and  C_28
REMARK   13  A    between atoms: C_28  and  C_29
REMARK   14  A    between atoms: C_29  and  O_31
REMARK   15  A    between atoms: C_32  and  OXT_34
REMARK                            x       y       z     vdW  Elec       q    Type
REMARK                         _______ _______ _______ _____ _____    ______ ____
ROOT
ATOM      1  C   UNL     1       1.118   9.819  18.983  0.00  0.00    +0.000 A 
ATOM      2  C   UNL     1       1.207   8.934  20.068  0.00  0.00    +0.000 A 
ATOM      3  C   UNL     1       1.981   7.767  20.005  0.00  0.00    +0.000 A 
ATOM      4  C   UNL     1       2.708   7.464  18.854  0.00  0.00    +0.000 A 
ATOM      5  C   UNL     1       2.604   8.309  17.746  0.00  0.00    +0.000 A 
ATOM      6  C   UNL     1       1.816   9.466  17.816  0.00  0.00    +0.000 A 
ENDROOT
BRANCH   4   7
ATOM      7  C   UNL     1       3.549   6.233  18.853  0.00  0.00    +0.000 C 
ATOM      8  O   UNL     1       3.580   5.499  19.833  0.00  0.00    +0.000 OA
ATOM      9  N   UNL     1       4.284   5.993  17.713  0.00  0.00    +0.000 N 
ATOM     10  H   UNL     1       4.371   6.714  17.002  0.00  0.00    +0.000 HD
BRANCH   9  11
ATOM     11  CA  UNL     1       5.147   4.822  17.544  0.00  0.00    +0.000 C 
BRANCH  11  12
ATOM     12  C   UNL     1       6.443   5.290  16.861  0.00  0.00    +0.000 C 
ATOM     13  O   UNL     1       6.492   6.245  16.095  0.00  0.00    +0.000 OA
BRANCH  12  14
ATOM     14  OXT UNL     1       7.543   4.564  17.167  0.00  0.00    +0.000 OA
ATOM     15  HXT UNL     1       8.384   4.913  16.820  0.00  0.00    +0.000 HD
ENDBRANCH  12  14
ENDBRANCH  11  12
BRANCH  11  16
ATOM     16  C   UNL     1       4.460   3.718  16.732  0.00  0.00    +0.000 C 
BRANCH  16  17
ATOM     17  C   UNL     1       3.030   3.431  17.214  0.00  0.00    +0.000 C 
BRANCH  17  18
ATOM     18  C   UNL     1       2.803   1.953  17.523  0.00  0.00    +0.000 C 
BRANCH  18  19
ATOM     19  N   UNL     1       2.378   1.806  18.918  0.00  0.00    +0.000 NA
ATOM     20  H   UNL     1       3.083   2.258  19.511  0.00  0.00    +0.000 HD
BRANCH  19  21
ATOM     21  C   UNL     1       1.083   2.484  19.140  0.00  0.00    +0.000 C 
BRANCH  21  22
ATOM     22  C   UNL     1       1.101   3.123  20.526  0.00  0.00    +0.000 C 
ATOM     23  O   UNL     1       1.289   2.514  21.567  0.00  0.00    +0.000 OA
BRANCH  22  24
ATOM     24  O   UNL     1       0.919   4.468  20.468  0.00  0.00    +0.000 OA
ATOM     25  H   UNL     1       0.984   4.737  19.519  0.00  0.00    +0.000 HD
ENDBRANCH  22  24
ENDBRANCH  21  22
ENDBRANCH  19  21
ENDBRANCH  18  19
ENDBRANCH  17  18
ENDBRANCH  16  17
ENDBRANCH  11  16
ENDBRANCH   9  11
ENDBRANCH   4   7
BRANCH   1  27
ATOM     26  C   UNL     1       1.107  12.279  18.896  0.00  0.00    +0.000 C 
ATOM     27  N   UNL     1       0.388  11.011  19.018  0.00  0.00    +0.000 N 
BRANCH  27  28
ATOM     28  C   UNL     1      -0.822  11.004  19.869  0.00  0.00    +0.000 C 
BRANCH  28  29
ATOM     29  C   UNL     1      -2.123  11.243  19.126  0.00  0.00    +0.000 A 
ATOM     30  C   UNL     1      -2.367  10.790  17.843  0.00  0.00    +0.000 A 
ATOM     31  N   UNL     1      -3.493  11.095  17.144  0.00  0.00    +0.000 NA
ATOM     32  C   UNL     1      -4.420  11.857  17.739  0.00  0.00    +0.000 A 
ATOM     33  N   UNL     1      -5.498  12.197  17.028  0.00  0.00    +0.000 NA
ATOM     34  C   UNL     1      -6.408  12.960  17.616  0.00  0.00    +0.000 A 
ATOM     35  N   UNL     1      -7.492  13.360  16.865  0.00  0.00    +0.000 N 
ATOM     36  N   UNL     1      -6.363  13.358  18.885  0.00  0.00    +0.000 NA
ATOM     37  C   UNL     1      -5.274  13.004  19.582  0.00  0.00    +0.000 A 
ATOM     38  N   UNL     1      -5.292  13.350  20.944  0.00  0.00    +0.000 N 
ATOM     39  C   UNL     1      -4.219  12.263  19.057  0.00  0.00    +0.000 A 
ATOM     40  N   UNL     1      -3.071  11.982  19.758  0.00  0.00    +0.000 NA
ATOM     41  H   UNL     1      -7.637  12.735  16.084  0.00  0.00    +0.000 HD
ATOM     42  H   UNL     1      -8.285  13.572  17.451  0.00  0.00    +0.000 HD
ATOM     43  H   UNL     1      -6.049  14.000  21.123  0.00  0.00    +0.000 HD
ATOM     44  H   UNL     1      -4.378  13.651  21.268  0.00  0.00    +0.000 HD
ENDBRANCH  28  29
ENDBRANCH  27  28
ENDBRANCH   1  27
TORSDOF 14
ENDMDL
MODEL 9
REMARK VINA RESULT:      -7.5      3.268      4.842
REMARK  Name = 
REMARK  15 active torsions:
REMARK  status: ('A' for Active; 'I' for Inactive)
REMARK    1  A    between atoms: C_1  and  N_2
REMARK    2  A    between atoms: N_2  and  C_3
REMARK    3  A    between atoms: N_2  and  C_16
REMARK    4  A    between atoms: C_3  and  C_4
REMARK    5  A    between atoms: C_19  and  C_20
REMARK    6  A    between atoms: N_22  and  CA_23
REMARK    7  A    between atoms: CA_23  and  C_24
REMARK    8  A    between atoms: CA_23  and  C_32
REMARK    9  A    between atoms: C_24  and  C_25
REMARK   10  A    between atoms: C_25  and  C_26
REMARK   11  A    between atoms: C_26  and  N_27
REMARK   12  A    between atoms: N_27  and  C_28
REMARK   13  A    between atoms: C_28  and  C_29
REMARK   14  A    between atoms: C_29  and  O_31
REMARK   15  A    between atoms: C_32  and  OXT_34
REMARK                            x       y       z     vdW  Elec       q    Type
REMARK                         _______ _______ _______ _____ _____    ______ ____
ROOT
ATOM      1  C   UNL     1       0.618  10.010  19.033  0.00  0.00    +0.000 A 
ATOM      2  C   UNL     1       1.275   9.619  17.855  0.00  0.00    +0.000 A 
ATOM      3  C   UNL     1       2.144   8.520  17.827  0.00  0.00    +0.000 A 
ATOM      4  C   UNL     1       2.365   7.765  18.979  0.00  0.00    +0.000 A 
ATOM      5  C   UNL     1       1.754   8.158  20.173  0.00  0.00    +0.000 A 
ATOM      6  C   UNL     1       0.897   9.267  20.192  0.00  0.00    +0.000 A 
ENDROOT
BRANCH   4   7
ATOM      7  C   UNL     1       3.265   6.581  18.886  0.00  0.00    +0.000 C 
ATOM      8  O   UNL     1       3.192   5.677  19.710  0.00  0.00    +0.000 OA
ATOM      9  N   UNL     1       4.171   6.578  17.850  0.00  0.00    +0.000 N 
ATOM     10  H   UNL     1       4.322   7.422  17.303  0.00  0.00    +0.000 HD
BRANCH   9  11
ATOM     11  CA  UNL     1       5.115   5.484  17.608  0.00  0.00    +0.000 C 
BRANCH  11  12
ATOM     12  C   UNL     1       6.409   6.097  17.048  0.00  0.00    +0.000 C 
ATOM     13  O   UNL     1       6.429   7.102  16.348  0.00  0.00    +0.000 OA
BRANCH  12  14
ATOM     14  OXT UNL     1       7.543   5.440  17.387  0.00  0.00    +0.000 OA
ATOM     15  HXT UNL     1       8.174   5.295  16.659  0.00  0.00    +0.000 HD
ENDBRANCH  12  14
ENDBRANCH  11  12
BRANCH  11  16
ATOM     16  C   UNL     1       4.539   4.435  16.650  0.00  0.00    +0.000 C 
BRANCH  16  17
ATOM     17  C   UNL     1       4.040   3.177  17.378  0.00  0.00    +0.000 C 
BRANCH  17  18
ATOM     18  C   UNL     1       2.523   3.020  17.301  0.00  0.00    +0.000 C 
BRANCH  18  19
ATOM     19  N   UNL     1       1.942   3.245  18.628  0.00  0.00    +0.000 NA
ATOM     20  H   UNL     1       0.926   3.118  18.552  0.00  0.00    +0.000 HD
BRANCH  19  21
ATOM     21  C   UNL     1       2.460   2.254  19.596  0.00  0.00    +0.000 C 
BRANCH  21  22
ATOM     22  C   UNL     1       2.016   2.666  20.997  0.00  0.00    +0.000 C 
ATOM     23  O   UNL     1       0.953   3.205  21.257  0.00  0.00    +0.000 OA
BRANCH  22  24
ATOM     24  O   UNL     1       2.934   2.328  21.939  0.00  0.00    +0.000 OA
ATOM     25  H   UNL     1       2.625   1.496  22.373  0.00  0.00    +0.000 HD
ENDBRANCH  22  24
ENDBRANCH  21  22
ENDBRANCH  19  21
ENDBRANCH  18  19
ENDBRANCH  17  18
ENDBRANCH  16  17
ENDBRANCH  11  16
ENDBRANCH   9  11
ENDBRANCH   4   7
BRANCH   1  27
ATOM     26  C   UNL     1      -1.710  10.800  18.920  0.00  0.00    +0.000 C 
ATOM     27  N   UNL     1      -0.284  11.076  19.095  0.00  0.00    +0.000 N 
BRANCH  27  28
ATOM     28  C   UNL     1       0.215  12.376  18.597  0.00  0.00    +0.000 C 
BRANCH  28  29
ATOM     29  C   UNL     1       1.314  12.999  19.438  0.00  0.00    +0.000 A 
ATOM     30  C   UNL     1       1.281  13.061  20.818  0.00  0.00    +0.000 A 
ATOM     31  N   UNL     1       2.216  13.711  21.560  0.00  0.00    +0.000 NA
ATOM     32  C   UNL     1       3.233  14.304  20.919  0.00  0.00    +0.000 A 
ATOM     33  N   UNL     1       4.118  14.986  21.650  0.00  0.00    +0.000 NA
ATOM     34  C   UNL     1       5.116  15.581  21.012  0.00  0.00    +0.000 A 
ATOM     35  N   UNL     1       5.996  16.333  21.757  0.00  0.00    +0.000 N 
ATOM     36  N   UNL     1       5.342  15.493  19.703  0.00  0.00    +0.000 NA
ATOM     37  C   UNL     1       4.443  14.802  18.988  0.00  0.00    +0.000 A 
ATOM     38  N   UNL     1       4.752  14.640  17.627  0.00  0.00    +0.000 N 
ATOM     39  C   UNL     1       3.317  14.190  19.532  0.00  0.00    +0.000 A 
ATOM     40  N   UNL     1       2.359  13.559  18.776  0.00  0.00    +0.000 NA
ATOM     41  H   UNL     1       5.982  16.046  22.726  0.00  0.00    +0.000 HD
ATOM     42  H   UNL     1       6.894  16.404  21.302  0.00  0.00    +0.000 HD
ATOM     43  H   UNL     1       5.513  15.259  17.372  0.00  0.00    +0.000 HD
ATOM     44  H   UNL     1       3.924  14.708  17.042  0.00  0.00    +0.000 HD
ENDBRANCH  28  29
ENDBRANCH  27  28
ENDBRANCH   1  27
TORSDOF 14
ENDMDL
