MODEL 1
REMARK VINA RESULT:      -7.2      0.000      0.000
REMARK  Name = 
REMARK  3 active torsions:
REMARK  status: ('A' for Active; 'I' for Inactive)
REMARK    1  A    between atoms: C_2  and  C_3
REMARK    2  A    between atoms: C_6  and  N_7
REMARK    3  A    between atoms: N_7  and  C_8
REMARK                            x       y       z     vdW  Elec       q    Type
REMARK                         _______ _______ _______ _____ _____    ______ ____
ROOT
ATOM      1  C   UNL     1       4.934   3.706  18.172  0.00  0.00    +0.000 C 
ATOM      2  C   UNL     1       3.893   3.873  17.335  0.00  0.00    +0.000 C 
ATOM      3 CL   UNL     1       4.131   4.297  15.667  0.00  0.00    +0.000 Cl
ATOM      4  C   UNL     1       2.473   3.710  17.756  0.00  0.00    +0.000 C 
ATOM      5  O   UNL     1       1.539   3.897  16.985  0.00  0.00    +0.000 OA
ATOM      6  C   UNL     1       2.228   3.332  19.166  0.00  0.00    +0.000 A 
ATOM      7  N   UNL     1       0.931   3.235  19.549  0.00  0.00    +0.000 NA
ATOM      8  C   UNL     1       0.719   2.899  20.826  0.00  0.00    +0.000 A 
ATOM      9  N   UNL     1       1.678   2.658  21.731  0.00  0.00    +0.000 NA
ATOM     10  C   UNL     1       2.954   2.768  21.302  0.00  0.00    +0.000 A 
ATOM     11  C   UNL     1       3.282   3.111  20.010  0.00  0.00    +0.000 A 
ATOM     12  C   UNL     1       4.664   3.249  19.573  0.00  0.00    +0.000 C 
ATOM     13  O   UNL     1       5.591   3.017  20.343  0.00  0.00    +0.000 OA
ENDROOT
BRANCH   1  14
ATOM     14  N   UNL     1       6.291   3.899  17.880  0.00  0.00    +0.000 N 
ATOM     15  H   UNL     1       6.856   3.308  18.511  0.00  0.00    +0.000 HD
BRANCH  14  19
ATOM     16  C   UNL     1       7.941   7.796  18.080  0.00  0.00    +0.000 A 
ATOM     17  C   UNL     1       7.092   7.461  17.024  0.00  0.00    +0.000 A 
ATOM     18  C   UNL     1       6.559   6.172  16.933  0.00  0.00    +0.000 A 
ATOM     19  C   UNL     1       6.882   5.194  17.885  0.00  0.00    +0.000 A 
ATOM     20  C   UNL     1       7.720   5.545  18.950  0.00  0.00    +0.000 A 
ATOM     21  C   UNL     1       8.258   6.833  19.043  0.00  0.00    +0.000 A 
BRANCH  16  23
ATOM     22  N   UNL     1       8.866  10.212  18.268  0.00  0.00    +0.000 NA
ATOM     23  C   UNL     1       8.461   9.128  18.186  0.00  0.00    +0.000 C 
ENDBRANCH  16  23
ENDBRANCH  14  19
ENDBRANCH   1  14
TORSDOF 3
ENDMDL
MODEL 2
REMARK VINA RESULT:      -7.0      0.499      1.142
REMARK  Name = 
REMARK  3 active torsions:
REMARK  status: ('A' for Active; 'I' for Inactive)
REMARK    1  A    between atoms: C_2  and  C_3
REMARK    2  A    between atoms: C_6  and  N_7
REMARK    3  A    between atoms: N_7  and  C_8
REMARK                            x       y       z     vdW  Elec       q    Type
REMARK                         _______ _______ _______ _____ _____    ______ ____
ROOT
ATOM      1  C   UNL     1       5.177   3.805  18.074  0.00  0.00    +0.000 C 
ATOM      2  C   UNL     1       4.284   3.812  17.067  0.00  0.00    +0.000 C 
ATOM      3 CL   UNL     1       4.765   4.158  15.434  0.00  0.00    +0.000 Cl
ATOM      4  C   UNL     1       2.834   3.528  17.260  0.00  0.00    +0.000 C 
ATOM      5  O   UNL     1       2.033   3.571  16.333  0.00  0.00    +0.000 OA
ATOM      6  C   UNL     1       2.387   3.213  18.634  0.00  0.00    +0.000 A 
ATOM      7  N   UNL     1       1.059   3.005  18.805  0.00  0.00    +0.000 NA
ATOM      8  C   UNL     1       0.663   2.726  20.051  0.00  0.00    +0.000 A 
ATOM      9  N   UNL     1       1.470   2.641  21.118  0.00  0.00    +0.000 NA
ATOM     10  C   UNL     1       2.785   2.857  20.898  0.00  0.00    +0.000 A 
ATOM     11  C   UNL     1       3.297   3.153  19.655  0.00  0.00    +0.000 A 
ATOM     12  C   UNL     1       4.714   3.407  19.442  0.00  0.00    +0.000 C 
ATOM     13  O   UNL     1       5.513   3.319  20.370  0.00  0.00    +0.000 OA
ENDROOT
BRANCH   1  14
ATOM     14  N   UNL     1       6.541   4.119  17.996  0.00  0.00    +0.000 N 
ATOM     15  H   UNL     1       7.055   3.553  18.690  0.00  0.00    +0.000 HD
BRANCH  14  19
ATOM     16  C   UNL     1       8.042   8.077  18.180  0.00  0.00    +0.000 A 
ATOM     17  C   UNL     1       8.439   7.145  19.141  0.00  0.00    +0.000 A 
ATOM     18  C   UNL     1       7.934   5.842  19.105  0.00  0.00    +0.000 A 
ATOM     19  C   UNL     1       7.010   5.457  18.123  0.00  0.00    +0.000 A 
ATOM     20  C   UNL     1       6.632   6.394  17.153  0.00  0.00    +0.000 A 
ATOM     21  C   UNL     1       7.133   7.700  17.187  0.00  0.00    +0.000 A 
BRANCH  16  23
ATOM     22  N   UNL     1       9.041  10.470  18.217  0.00  0.00    +0.000 NA
ATOM     23  C   UNL     1       8.585   9.403  18.201  0.00  0.00    +0.000 C 
ENDBRANCH  16  23
ENDBRANCH  14  19
ENDBRANCH   1  14
TORSDOF 3
ENDMDL
MODEL 3
REMARK VINA RESULT:      -6.6      6.466      7.934
REMARK  Name = 
REMARK  3 active torsions:
REMARK  status: ('A' for Active; 'I' for Inactive)
REMARK    1  A    between atoms: C_2  and  C_3
REMARK    2  A    between atoms: C_6  and  N_7
REMARK    3  A    between atoms: N_7  and  C_8
REMARK                            x       y       z     vdW  Elec       q    Type
REMARK                         _______ _______ _______ _____ _____    ______ ____
ROOT
ATOM      1  C   UNL     1       1.104   9.221  20.449  0.00  0.00    +0.000 C 
ATOM      2  C   UNL     1       0.616   9.816  19.346  0.00  0.00    +0.000 C 
ATOM      3 CL   UNL     1       1.223   9.428  17.765  0.00  0.00    +0.000 Cl
ATOM      4  C   UNL     1      -0.467  10.839  19.380  0.00  0.00    +0.000 C 
ATOM      5  O   UNL     1      -0.875  11.391  18.365  0.00  0.00    +0.000 OA
ATOM      6  C   UNL     1      -1.023  11.186  20.708  0.00  0.00    +0.000 A 
ATOM      7  N   UNL     1      -1.973  12.152  20.731  0.00  0.00    +0.000 NA
ATOM      8  C   UNL     1      -2.465  12.463  21.935  0.00  0.00    +0.000 A 
ATOM      9  N   UNL     1      -2.092  11.899  23.092  0.00  0.00    +0.000 NA
ATOM     10  C   UNL     1      -1.142  10.941  23.017  0.00  0.00    +0.000 A 
ATOM     11  C   UNL     1      -0.568  10.548  21.830  0.00  0.00    +0.000 A 
ATOM     12  C   UNL     1       0.472   9.531  21.772  0.00  0.00    +0.000 C 
ATOM     13  O   UNL     1       0.843   8.955  22.791  0.00  0.00    +0.000 OA
ENDROOT
BRANCH   1  14
ATOM     14  N   UNL     1       2.158   8.299  20.517  0.00  0.00    +0.000 N 
ATOM     15  H   UNL     1       2.999   8.722  20.094  0.00  0.00    +0.000 HD
BRANCH  14  19
ATOM     16  C   UNL     1       1.940   4.317  19.086  0.00  0.00    +0.000 A 
ATOM     17  C   UNL     1       2.516   5.306  18.285  0.00  0.00    +0.000 A 
ATOM     18  C   UNL     1       2.574   6.628  18.736  0.00  0.00    +0.000 A 
ATOM     19  C   UNL     1       2.040   6.986  19.982  0.00  0.00    +0.000 A 
ATOM     20  C   UNL     1       1.481   5.983  20.785  0.00  0.00    +0.000 A 
ATOM     21  C   UNL     1       1.418   4.659  20.337  0.00  0.00    +0.000 A 
BRANCH  16  23
ATOM     22  N   UNL     1       1.884   1.862  18.250  0.00  0.00    +0.000 NA
ATOM     23  C   UNL     1       1.911   2.957  18.633  0.00  0.00    +0.000 C 
ENDBRANCH  16  23
ENDBRANCH  14  19
ENDBRANCH   1  14
TORSDOF 3
ENDMDL
MODEL 4
REMARK VINA RESULT:      -6.6      5.605      6.638
REMARK  Name = 
REMARK  3 active torsions:
REMARK  status: ('A' for Active; 'I' for Inactive)
REMARK    1  A    between atoms: C_2  and  C_3
REMARK    2  A    between atoms: C_6  and  N_7
REMARK    3  A    between atoms: N_7  and  C_8
REMARK                            x       y       z     vdW  Elec       q    Type
REMARK                         _______ _______ _______ _____ _____    ______ ____
ROOT
ATOM      1  C   UNL     1       1.770   8.167  19.079  0.00  0.00    +0.000 C 
ATOM      2  C   UNL     1       1.456   7.994  20.376  0.00  0.00    +0.000 C 
ATOM      3 CL   UNL     1       1.547   6.431  21.129  0.00  0.00    +0.000 Cl
ATOM      4  C   UNL     1       1.013   9.106  21.264  0.00  0.00    +0.000 C 
ATOM      5  O   UNL     1       0.702   8.920  22.435  0.00  0.00    +0.000 OA
ATOM      6  C   UNL     1       0.938  10.457  20.665  0.00  0.00    +0.000 A 
ATOM      7  N   UNL     1       0.488  11.451  21.469  0.00  0.00    +0.000 NA
ATOM      8  C   UNL     1       0.417  12.666  20.917  0.00  0.00    +0.000 A 
ATOM      9  N   UNL     1       0.753  12.963  19.654  0.00  0.00    +0.000 NA
ATOM     10  C   UNL     1       1.196  11.939  18.892  0.00  0.00    +0.000 A 
ATOM     11  C   UNL     1       1.304  10.650  19.360  0.00  0.00    +0.000 A 
ATOM     12  C   UNL     1       1.760   9.555  18.516  0.00  0.00    +0.000 C 
ATOM     13  O   UNL     1       2.110   9.760  17.357  0.00  0.00    +0.000 OA
ENDROOT
BRANCH   1  14
ATOM     14  N   UNL     1       2.133   7.174  18.158  0.00  0.00    +0.000 N 
ATOM     15  H   UNL     1       1.458   6.397  18.220  0.00  0.00    +0.000 HD
BRANCH  14  19
ATOM     16  C   UNL     1       5.963   5.373  17.949  0.00  0.00    +0.000 A 
ATOM     17  C   UNL     1       5.046   4.932  18.905  0.00  0.00    +0.000 A 
ATOM     18  C   UNL     1       3.787   5.532  19.000  0.00  0.00    +0.000 A 
ATOM     19  C   UNL     1       3.434   6.596  18.156  0.00  0.00    +0.000 A 
ATOM     20  C   UNL     1       4.354   7.018  17.188  0.00  0.00    +0.000 A 
ATOM     21  C   UNL     1       5.616   6.422  17.092  0.00  0.00    +0.000 A 
BRANCH  16  23
ATOM     22  N   UNL     1       8.277   4.224  17.727  0.00  0.00    +0.000 NA
ATOM     23  C   UNL     1       7.241   4.734  17.835  0.00  0.00    +0.000 C 
ENDBRANCH  16  23
ENDBRANCH  14  19
ENDBRANCH   1  14
TORSDOF 3
ENDMDL
MODEL 5
REMARK VINA RESULT:      -6.6      2.746      3.906
REMARK  Name = 
REMARK  3 active torsions:
REMARK  status: ('A' for Active; 'I' for Inactive)
REMARK    1  A    between atoms: C_2  and  C_3
REMARK    2  A    between atoms: C_6  and  N_7
REMARK    3  A    between atoms: N_7  and  C_8
REMARK                            x       y       z     vdW  Elec       q    Type
REMARK                         _______ _______ _______ _____ _____    ______ ____
ROOT
ATOM      1  C   UNL     1       4.593   5.581  18.646  0.00  0.00    +0.000 C 
ATOM      2  C   UNL     1       3.446   6.262  18.819  0.00  0.00    +0.000 C 
ATOM      3 CL   UNL     1       3.155   7.768  18.003  0.00  0.00    +0.000 Cl
ATOM      4  C   UNL     1       2.344   5.794  19.707  0.00  0.00    +0.000 C 
ATOM      5  O   UNL     1       1.320   6.446  19.874  0.00  0.00    +0.000 OA
ATOM      6  C   UNL     1       2.546   4.506  20.408  0.00  0.00    +0.000 A 
ATOM      7  N   UNL     1       1.558   4.115  21.249  0.00  0.00    +0.000 NA
ATOM      8  C   UNL     1       1.752   2.953  21.883  0.00  0.00    +0.000 A 
ATOM      9  N   UNL     1       2.830   2.168  21.746  0.00  0.00    +0.000 NA
ATOM     10  C   UNL     1       3.786   2.601  20.896  0.00  0.00    +0.000 A 
ATOM     11  C   UNL     1       3.688   3.782  20.197  0.00  0.00    +0.000 A 
ATOM     12  C   UNL     1       4.742   4.243  19.305  0.00  0.00    +0.000 C 
ATOM     13  O   UNL     1       5.744   3.561  19.112  0.00  0.00    +0.000 OA
ENDROOT
BRANCH   1  14
ATOM     14  N   UNL     1       5.702   5.974  17.884  0.00  0.00    +0.000 N 
ATOM     15  H   UNL     1       5.715   7.003  17.817  0.00  0.00    +0.000 HD
BRANCH  14  19
ATOM     16  C   UNL     1       6.322   4.272  14.053  0.00  0.00    +0.000 A 
ATOM     17  C   UNL     1       7.391   4.872  14.721  0.00  0.00    +0.000 A 
ATOM     18  C   UNL     1       7.195   5.457  15.976  0.00  0.00    +0.000 A 
ATOM     19  C   UNL     1       5.926   5.470  16.572  0.00  0.00    +0.000 A 
ATOM     20  C   UNL     1       4.864   4.849  15.902  0.00  0.00    +0.000 A 
ATOM     21  C   UNL     1       5.055   4.265  14.645  0.00  0.00    +0.000 A 
BRANCH  16  23
ATOM     22  N   UNL     1       6.687   3.138  11.749  0.00  0.00    +0.000 NA
ATOM     23  C   UNL     1       6.533   3.646  12.781  0.00  0.00    +0.000 C 
ENDBRANCH  16  23
ENDBRANCH  14  19
ENDBRANCH   1  14
TORSDOF 3
ENDMDL
MODEL 6
REMARK VINA RESULT:      -6.6      6.348      7.980
REMARK  Name = 
REMARK  3 active torsions:
REMARK  status: ('A' for Active; 'I' for Inactive)
REMARK    1  A    between atoms: C_2  and  C_3
REMARK    2  A    between atoms: C_6  and  N_7
REMARK    3  A    between atoms: N_7  and  C_8
REMARK                            x       y       z     vdW  Elec       q    Type
REMARK                         _______ _______ _______ _____ _____    ______ ____
ROOT
ATOM      1  C   UNL     1       1.213   9.105  20.351  0.00  0.00    +0.000 C 
ATOM      2  C   UNL     1       0.700   9.701  19.259  0.00  0.00    +0.000 C 
ATOM      3 CL   UNL     1       1.261   9.303  17.663  0.00  0.00    +0.000 Cl
ATOM      4  C   UNL     1      -0.374  10.733  19.320  0.00  0.00    +0.000 C 
ATOM      5  O   UNL     1      -0.804  11.285  18.314  0.00  0.00    +0.000 OA
ATOM      6  C   UNL     1      -0.890  11.088  20.660  0.00  0.00    +0.000 A 
ATOM      7  N   UNL     1      -1.832  12.062  20.706  0.00  0.00    +0.000 NA
ATOM      8  C   UNL     1      -2.288  12.380  21.922  0.00  0.00    +0.000 A 
ATOM      9  N   UNL     1      -1.889  11.816  23.071  0.00  0.00    +0.000 NA
ATOM     10  C   UNL     1      -0.949  10.851  22.973  0.00  0.00    +0.000 A 
ATOM     11  C   UNL     1      -0.410  10.450  21.772  0.00  0.00    +0.000 A 
ATOM     12  C   UNL     1       0.620   9.425  21.689  0.00  0.00    +0.000 C 
ATOM     13  O   UNL     1       1.013   8.848  22.700  0.00  0.00    +0.000 OA
ENDROOT
BRANCH   1  14
ATOM     14  N   UNL     1       2.261   8.175  20.393  0.00  0.00    +0.000 N 
ATOM     15  H   UNL     1       3.048   8.533  19.830  0.00  0.00    +0.000 HD
BRANCH  14  19
ATOM     16  C   UNL     1       1.554   4.192  19.134  0.00  0.00    +0.000 A 
ATOM     17  C   UNL     1       1.167   4.588  20.416  0.00  0.00    +0.000 A 
ATOM     18  C   UNL     1       1.414   5.893  20.852  0.00  0.00    +0.000 A 
ATOM     19  C   UNL     1       2.070   6.814  20.023  0.00  0.00    +0.000 A 
ATOM     20  C   UNL     1       2.438   6.413  18.733  0.00  0.00    +0.000 A 
ATOM     21  C   UNL     1       2.195   5.107  18.293  0.00  0.00    +0.000 A 
BRANCH  16  23
ATOM     22  N   UNL     1       1.040   1.781  18.329  0.00  0.00    +0.000 NA
ATOM     23  C   UNL     1       1.270   2.862  18.680  0.00  0.00    +0.000 C 
ENDBRANCH  16  23
ENDBRANCH  14  19
ENDBRANCH   1  14
TORSDOF 3
ENDMDL
MODEL 7
REMARK VINA RESULT:      -6.5      6.641      8.290
REMARK  Name = 
REMARK  3 active torsions:
REMARK  status: ('A' for Active; 'I' for Inactive)
REMARK    1  A    between atoms: C_2  and  C_3
REMARK    2  A    between atoms: C_6  and  N_7
REMARK    3  A    between atoms: N_7  and  C_8
REMARK                            x       y       z     vdW  Elec       q    Type
REMARK                         _______ _______ _______ _____ _____    ______ ____
ROOT
ATOM      1  C   UNL     1       1.485   9.040  19.281  0.00  0.00    +0.000 C 
ATOM      2  C   UNL     1       1.262   8.112  20.229  0.00  0.00    +0.000 C 
ATOM      3 CL   UNL     1       0.175   8.412  21.551  0.00  0.00    +0.000 Cl
ATOM      4  C   UNL     1       1.912   6.771  20.228  0.00  0.00    +0.000 C 
ATOM      5  O   UNL     1       1.718   5.952  21.119  0.00  0.00    +0.000 OA
ATOM      6  C   UNL     1       2.832   6.470  19.109  0.00  0.00    +0.000 A 
ATOM      7  N   UNL     1       3.454   5.266  19.146  0.00  0.00    +0.000 NA
ATOM      8  C   UNL     1       4.289   5.005  18.134  0.00  0.00    +0.000 A 
ATOM      9  N   UNL     1       4.546   5.832  17.111  0.00  0.00    +0.000 NA
ATOM     10  C   UNL     1       3.902   7.019  17.119  0.00  0.00    +0.000 A 
ATOM     11  C   UNL     1       3.025   7.389  18.114  0.00  0.00    +0.000 A 
ATOM     12  C   UNL     1       2.360   8.683  18.118  0.00  0.00    +0.000 C 
ATOM     13  O   UNL     1       2.529   9.479  17.198  0.00  0.00    +0.000 OA
ENDROOT
BRANCH   1  14
ATOM     14  N   UNL     1       0.969  10.343  19.235  0.00  0.00    +0.000 N 
ATOM     15  H   UNL     1       1.133  10.800  20.145  0.00  0.00    +0.000 HD
BRANCH  14  19
ATOM     16  C   UNL     1      -2.990  11.185  17.981  0.00  0.00    +0.000 A 
ATOM     17  C   UNL     1      -2.454  11.868  19.075  0.00  0.00    +0.000 A 
ATOM     18  C   UNL     1      -1.157  11.583  19.513  0.00  0.00    +0.000 A 
ATOM     19  C   UNL     1      -0.385  10.600  18.879  0.00  0.00    +0.000 A 
ATOM     20  C   UNL     1      -0.925   9.934  17.771  0.00  0.00    +0.000 A 
ATOM     21  C   UNL     1      -2.224  10.213  17.332  0.00  0.00    +0.000 A 
BRANCH  16  23
ATOM     22  N   UNL     1      -5.382  11.747  17.152  0.00  0.00    +0.000 NA
ATOM     23  C   UNL     1      -4.308  11.502  17.517  0.00  0.00    +0.000 C 
ENDBRANCH  16  23
ENDBRANCH  14  19
ENDBRANCH   1  14
TORSDOF 3
ENDMDL
MODEL 8
REMARK VINA RESULT:      -6.5      6.778      8.466
REMARK  Name = 
REMARK  3 active torsions:
REMARK  status: ('A' for Active; 'I' for Inactive)
REMARK    1  A    between atoms: C_2  and  C_3
REMARK    2  A    between atoms: C_6  and  N_7
REMARK    3  A    between atoms: N_7  and  C_8
REMARK                            x       y       z     vdW  Elec       q    Type
REMARK                         _______ _______ _______ _____ _____    ______ ____
ROOT
ATOM      1  C   UNL     1       1.284   9.224  19.257  0.00  0.00    +0.000 C 
ATOM      2  C   UNL     1       1.059   8.330  20.237  0.00  0.00    +0.000 C 
ATOM      3 CL   UNL     1      -0.046   8.669  21.534  0.00  0.00    +0.000 Cl
ATOM      4  C   UNL     1       1.722   6.997  20.295  0.00  0.00    +0.000 C 
ATOM      5  O   UNL     1       1.525   6.210  21.214  0.00  0.00    +0.000 OA
ATOM      6  C   UNL     1       2.659   6.663  19.199  0.00  0.00    +0.000 A 
ATOM      7  N   UNL     1       3.292   5.468  19.289  0.00  0.00    +0.000 NA
ATOM      8  C   UNL     1       4.141   5.177  18.298  0.00  0.00    +0.000 A 
ATOM      9  N   UNL     1       4.403   5.967  17.247  0.00  0.00    +0.000 NA
ATOM     10  C   UNL     1       3.747   7.147  17.202  0.00  0.00    +0.000 A 
ATOM     11  C   UNL     1       2.855   7.545  18.172  0.00  0.00    +0.000 A 
ATOM     12  C   UNL     1       2.177   8.832  18.119  0.00  0.00    +0.000 C 
ATOM     13  O   UNL     1       2.349   9.593  17.171  0.00  0.00    +0.000 OA
ENDROOT
BRANCH   1  14
ATOM     14  N   UNL     1       0.756  10.518  19.155  0.00  0.00    +0.000 N 
ATOM     15  H   UNL     1       0.865  10.996  20.062  0.00  0.00    +0.000 HD
BRANCH  14  19
ATOM     16  C   UNL     1      -3.291  11.135  18.061  0.00  0.00    +0.000 A 
ATOM     17  C   UNL     1      -2.526  10.193  17.369  0.00  0.00    +0.000 A 
ATOM     18  C   UNL     1      -1.184   9.995  17.705  0.00  0.00    +0.000 A 
ATOM     19  C   UNL     1      -0.580  10.750  18.722  0.00  0.00    +0.000 A 
ATOM     20  C   UNL     1      -1.360  11.679  19.421  0.00  0.00    +0.000 A 
ATOM     21  C   UNL     1      -2.703  11.882  19.086  0.00  0.00    +0.000 A 
BRANCH  16  23
ATOM     22  N   UNL     1      -5.799  11.460  17.486  0.00  0.00    +0.000 NA
ATOM     23  C   UNL     1      -4.675  11.312  17.734  0.00  0.00    +0.000 C 
ENDBRANCH  16  23
ENDBRANCH  14  19
ENDBRANCH   1  14
TORSDOF 3
ENDMDL
MODEL 9
REMARK VINA RESULT:      -6.5      3.570      6.316
REMARK  Name = 
REMARK  3 active torsions:
REMARK  status: ('A' for Active; 'I' for Inactive)
REMARK    1  A    between atoms: C_2  and  C_3
REMARK    2  A    between atoms: C_6  and  N_7
REMARK    3  A    between atoms: N_7  and  C_8
REMARK                            x       y       z     vdW  Elec       q    Type
REMARK                         _______ _______ _______ _____ _____    ______ ____
ROOT
ATOM      1  C   UNL     1       4.850   4.482  17.864  0.00  0.00    +0.000 C 
ATOM      2  C   UNL     1       6.036   5.065  18.119  0.00  0.00    +0.000 C 
ATOM      3 CL   UNL     1       6.471   5.565  19.725  0.00  0.00    +0.000 Cl
ATOM      4  C   UNL     1       7.060   5.325  17.069  0.00  0.00    +0.000 C 
ATOM      5  O   UNL     1       8.121   5.886  17.318  0.00  0.00    +0.000 OA
ATOM      6  C   UNL     1       6.734   4.898  15.690  0.00  0.00    +0.000 A 
ATOM      7  N   UNL     1       7.653   5.184  14.736  0.00  0.00    +0.000 NA
ATOM      8  C   UNL     1       7.347   4.800  13.492  0.00  0.00    +0.000 A 
ATOM      9  N   UNL     1       6.222   4.167  13.133  0.00  0.00    +0.000 NA
ATOM     10  C   UNL     1       5.337   3.904  14.119  0.00  0.00    +0.000 A 
ATOM     11  C   UNL     1       5.552   4.259  15.431  0.00  0.00    +0.000 A 
ATOM     12  C   UNL     1       4.575   3.989  16.476  0.00  0.00    +0.000 C 
ATOM     13  O   UNL     1       3.535   3.388  16.222  0.00  0.00    +0.000 OA
ENDROOT
BRANCH   1  14
ATOM     14  N   UNL     1       3.807   4.255  18.773  0.00  0.00    +0.000 N 
ATOM     15  H   UNL     1       3.160   3.559  18.372  0.00  0.00    +0.000 HD
BRANCH  14  19
ATOM     16  C   UNL     1       1.618   7.542  20.308  0.00  0.00    +0.000 A 
ATOM     17  C   UNL     1       1.614   6.329  21.000  0.00  0.00    +0.000 A 
ATOM     18  C   UNL     1       2.314   5.230  20.493  0.00  0.00    +0.000 A 
ATOM     19  C   UNL     1       3.009   5.320  19.278  0.00  0.00    +0.000 A 
ATOM     20  C   UNL     1       3.021   6.546  18.602  0.00  0.00    +0.000 A 
ATOM     21  C   UNL     1       2.320   7.648  19.104  0.00  0.00    +0.000 A 
BRANCH  16  23
ATOM     22  N   UNL     1       0.374   9.603  21.275  0.00  0.00    +0.000 NA
ATOM     23  C   UNL     1       0.924   8.675  20.847  0.00  0.00    +0.000 C 
ENDBRANCH  16  23
ENDBRANCH  14  19
ENDBRANCH   1  14
TORSDOF 3
ENDMDL
