MODEL 1
REMARK VINA RESULT:      -9.0      0.000      0.000
REMARK  Name = 
REMARK  8 active torsions:
REMARK  status: ('A' for Active; 'I' for Inactive)
REMARK    1  A    between atoms: C_1  and  C_2
REMARK    2  A    between atoms: C_2  and  C_3
REMARK    3  A    between atoms: C_2  and  C_18
REMARK    4  A    between atoms: N_5  and  C_6
REMARK    5  A    between atoms: C_6  and  C_7
REMARK    6  A    between atoms: C_7  and  C_8
REMARK    7  A    between atoms: C_14  and  O_15
REMARK    8  A    between atoms: C_21  and  C_22
REMARK                            x       y       z     vdW  Elec       q    Type
REMARK                         _______ _______ _______ _____ _____    ______ ____
ROOT
ATOM      1  C   UNL     1       2.661   4.490  18.793  0.00  0.00    +0.000 C 
ATOM      2  O   UNL     1       1.623   4.272  18.170  0.00  0.00    +0.000 OA
ATOM      3  N   UNL     1       3.885   3.991  18.396  0.00  0.00    +0.000 N 
ATOM      4  H   UNL     1       4.585   3.893  19.122  0.00  0.00    +0.000 HD
ENDROOT
BRANCH   1   6
ATOM      5  C   UNL     1       1.974   4.666  21.211  0.00  0.00    +0.000 C 
ATOM      6  C   UNL     1       2.676   5.370  20.047  0.00  0.00    +0.000 C 
BRANCH   6   7
ATOM      7  C   UNL     1       2.167   6.779  19.780  0.00  0.00    +0.000 A 
ATOM      8  C   UNL     1       2.384   7.367  18.528  0.00  0.00    +0.000 A 
ATOM      9  C   UNL     1       1.927   8.664  18.252  0.00  0.00    +0.000 A 
ATOM     10  C   UNL     1       1.214   9.417  19.204  0.00  0.00    +0.000 A 
ATOM     11  C   UNL     1       1.012   8.810  20.452  0.00  0.00    +0.000 A 
ATOM     12  F   UNL     1       0.351   9.453  21.428  0.00  0.00    +0.000 F 
ATOM     13  C   UNL     1       1.476   7.525  20.740  0.00  0.00    +0.000 A 
BRANCH  10  14
ATOM     14  C   UNL     1       0.701  10.771  18.889  0.00  0.00    +0.000 A 
ATOM     15  C   UNL     1      -0.651  10.978  18.555  0.00  0.00    +0.000 A 
ATOM     16  C   UNL     1      -1.146  12.251  18.257  0.00  0.00    +0.000 A 
ATOM     17  C   UNL     1      -0.303  13.354  18.304  0.00  0.00    +0.000 A 
ATOM     18  C   UNL     1       1.036  13.184  18.640  0.00  0.00    +0.000 A 
ATOM     19  C   UNL     1       1.531  11.907  18.920  0.00  0.00    +0.000 A 
ENDBRANCH  10  14
ENDBRANCH   6   7
ENDBRANCH   1   6
BRANCH   3  20
ATOM     20  C   UNL     1       3.969   3.069  17.274  0.00  0.00    +0.000 C 
BRANCH  20  21
ATOM     21  C   UNL     1       5.151   3.342  16.339  0.00  0.00    +0.000 C 
BRANCH  21  22
ATOM     22  C   UNL     1       5.592   4.775  16.361  0.00  0.00    +0.000 A 
ATOM     23  C   UNL     1       5.251   5.754  15.448  0.00  0.00    +0.000 A 
ATOM     24  N   UNL     1       5.897   6.910  15.788  0.00  0.00    +0.000 N 
ATOM     25  C   UNL     1       6.665   6.710  16.912  0.00  0.00    +0.000 A 
ATOM     26  C   UNL     1       7.514   7.591  17.595  0.00  0.00    +0.000 A 
ATOM     27  C   UNL     1       8.188   7.101  18.718  0.00  0.00    +0.000 A 
ATOM     28  C   UNL     1       7.997   5.790  19.137  0.00  0.00    +0.000 A 
ATOM     29  C   UNL     1       7.135   4.926  18.464  0.00  0.00    +0.000 A 
ATOM     30  C   UNL     1       6.468   5.387  17.312  0.00  0.00    +0.000 A 
ATOM     31  H   UNL     1       5.839   7.783  15.282  0.00  0.00    +0.000 HD
BRANCH  28  32
ATOM     32  O   UNL     1       8.675   5.284  20.208  0.00  0.00    +0.000 OA
ATOM     33  H   UNL     1       8.435   4.346  20.300  0.00  0.00    +0.000 HD
ENDBRANCH  28  32
ENDBRANCH  21  22
ENDBRANCH  20  21
ENDBRANCH   3  20
TORSDOF 7
ENDMDL
MODEL 2
REMARK VINA RESULT:      -9.0      0.869      1.512
REMARK  Name = 
REMARK  8 active torsions:
REMARK  status: ('A' for Active; 'I' for Inactive)
REMARK    1  A    between atoms: C_1  and  C_2
REMARK    2  A    between atoms: C_2  and  C_3
REMARK    3  A    between atoms: C_2  and  C_18
REMARK    4  A    between atoms: N_5  and  C_6
REMARK    5  A    between atoms: C_6  and  C_7
REMARK    6  A    between atoms: C_7  and  C_8
REMARK    7  A    between atoms: C_14  and  O_15
REMARK    8  A    between atoms: C_21  and  C_22
REMARK                            x       y       z     vdW  Elec       q    Type
REMARK                         _______ _______ _______ _____ _____    ______ ____
ROOT
ATOM      1  C   UNL     1       2.648   4.523  18.857  0.00  0.00    +0.000 C 
ATOM      2  O   UNL     1       1.619   4.334  18.211  0.00  0.00    +0.000 OA
ATOM      3  N   UNL     1       3.857   3.953  18.514  0.00  0.00    +0.000 N 
ATOM      4  H   UNL     1       4.530   3.848  19.264  0.00  0.00    +0.000 HD
ENDROOT
BRANCH   1   6
ATOM      5  C   UNL     1       1.976   4.777  21.272  0.00  0.00    +0.000 C 
ATOM      6  C   UNL     1       2.669   5.444  20.081  0.00  0.00    +0.000 C 
BRANCH   6   7
ATOM      7  C   UNL     1       2.156   6.843  19.773  0.00  0.00    +0.000 A 
ATOM      8  C   UNL     1       1.434   7.545  20.747  0.00  0.00    +0.000 A 
ATOM      9  C   UNL     1       0.948   8.835  20.492  0.00  0.00    +0.000 A 
ATOM     10  C   UNL     1       1.183   9.487  19.266  0.00  0.00    +0.000 A 
ATOM     11  C   UNL     1       1.903   8.764  18.304  0.00  0.00    +0.000 A 
ATOM     12  F   UNL     1       2.169   9.298  17.102  0.00  0.00    +0.000 F 
ATOM     13  C   UNL     1       2.379   7.474  18.545  0.00  0.00    +0.000 A 
BRANCH  10  14
ATOM     14  C   UNL     1       0.699  10.866  19.021  0.00  0.00    +0.000 A 
ATOM     15  C   UNL     1       1.578  11.965  19.067  0.00  0.00    +0.000 A 
ATOM     16  C   UNL     1       1.132  13.270  18.837  0.00  0.00    +0.000 A 
ATOM     17  C   UNL     1      -0.204  13.507  18.536  0.00  0.00    +0.000 A 
ATOM     18  C   UNL     1      -1.095  12.441  18.474  0.00  0.00    +0.000 A 
ATOM     19  C   UNL     1      -0.649  11.140  18.722  0.00  0.00    +0.000 A 
ENDBRANCH  10  14
ENDBRANCH   6   7
ENDBRANCH   1   6
BRANCH   3  20
ATOM     20  C   UNL     1       3.929   2.991  17.425  0.00  0.00    +0.000 C 
BRANCH  20  21
ATOM     21  C   UNL     1       5.079   3.251  16.447  0.00  0.00    +0.000 C 
BRANCH  21  22
ATOM     22  C   UNL     1       5.511   4.687  16.426  0.00  0.00    +0.000 A 
ATOM     23  C   UNL     1       5.148   5.642  15.496  0.00  0.00    +0.000 A 
ATOM     24  N   UNL     1       5.794   6.809  15.796  0.00  0.00    +0.000 N 
ATOM     25  C   UNL     1       6.583   6.641  16.911  0.00  0.00    +0.000 A 
ATOM     26  C   UNL     1       7.438   7.542  17.556  0.00  0.00    +0.000 A 
ATOM     27  C   UNL     1       8.136   7.084  18.679  0.00  0.00    +0.000 A 
ATOM     28  C   UNL     1       7.959   5.783  19.133  0.00  0.00    +0.000 A 
ATOM     29  C   UNL     1       7.090   4.898  18.497  0.00  0.00    +0.000 A 
ATOM     30  C   UNL     1       6.400   5.327  17.346  0.00  0.00    +0.000 A 
ATOM     31  H   UNL     1       5.722   7.669  15.270  0.00  0.00    +0.000 HD
BRANCH  28  32
ATOM     32  O   UNL     1       8.659   5.306  20.204  0.00  0.00    +0.000 OA
ATOM     33  H   UNL     1       9.581   5.176  19.927  0.00  0.00    +0.000 HD
ENDBRANCH  28  32
ENDBRANCH  21  22
ENDBRANCH  20  21
ENDBRANCH   3  20
TORSDOF 7
ENDMDL
MODEL 3
REMARK VINA RESULT:      -8.7      2.243      3.219
REMARK  Name = 
REMARK  8 active torsions:
REMARK  status: ('A' for Active; 'I' for Inactive)
REMARK    1  A    between atoms: C_1  and  C_2
REMARK    2  A    between atoms: C_2  and  C_3
REMARK    3  A    between atoms: C_2  and  C_18
REMARK    4  A    between atoms: N_5  and  C_6
REMARK    5  A    between atoms: C_6  and  C_7
REMARK    6  A    between atoms: C_7  and  C_8
REMARK    7  A    between atoms: C_14  and  O_15
REMARK    8  A    between atoms: C_21  and  C_22
REMARK                            x       y       z     vdW  Elec       q    Type
REMARK                         _______ _______ _______ _____ _____    ______ ____
ROOT
ATOM      1  C   UNL     1       3.587   5.281  19.618  0.00  0.00    +0.000 C 
ATOM      2  O   UNL     1       4.598   5.970  19.494  0.00  0.00    +0.000 OA
ATOM      3  N   UNL     1       3.454   4.040  19.026  0.00  0.00    +0.000 N 
ATOM      4  H   UNL     1       2.507   3.722  18.862  0.00  0.00    +0.000 HD
ENDROOT
BRANCH   1   6
ATOM      5  C   UNL     1       1.285   4.692  20.456  0.00  0.00    +0.000 C 
ATOM      6  C   UNL     1       2.403   5.738  20.476  0.00  0.00    +0.000 C 
BRANCH   6   7
ATOM      7  C   UNL     1       1.938   7.146  20.133  0.00  0.00    +0.000 A 
ATOM      8  C   UNL     1       2.136   7.642  18.839  0.00  0.00    +0.000 A 
ATOM      9  C   UNL     1       1.719   8.936  18.492  0.00  0.00    +0.000 A 
ATOM     10  C   UNL     1       1.065   9.776  19.414  0.00  0.00    +0.000 A 
ATOM     11  C   UNL     1       0.882   9.260  20.705  0.00  0.00    +0.000 A 
ATOM     12  F   UNL     1       0.278   9.989  21.656  0.00  0.00    +0.000 F 
ATOM     13  C   UNL     1       1.307   7.979  21.063  0.00  0.00    +0.000 A 
BRANCH  10  14
ATOM     14  C   UNL     1       0.593  11.126  19.027  0.00  0.00    +0.000 A 
ATOM     15  C   UNL     1      -0.753  11.356  18.686  0.00  0.00    +0.000 A 
ATOM     16  C   UNL     1      -1.211  12.625  18.320  0.00  0.00    +0.000 A 
ATOM     17  C   UNL     1      -0.333  13.703  18.303  0.00  0.00    +0.000 A 
ATOM     18  C   UNL     1       1.001  13.510  18.644  0.00  0.00    +0.000 A 
ATOM     19  C   UNL     1       1.458  12.235  18.993  0.00  0.00    +0.000 A 
ENDBRANCH  10  14
ENDBRANCH   6   7
ENDBRANCH   1   6
BRANCH   3  20
ATOM     20  C   UNL     1       4.479   3.552  18.117  0.00  0.00    +0.000 C 
BRANCH  20  21
ATOM     21  C   UNL     1       4.237   3.932  16.653  0.00  0.00    +0.000 C 
BRANCH  21  22
ATOM     22  C   UNL     1       5.472   4.441  15.972  0.00  0.00    +0.000 A 
ATOM     23  C   UNL     1       6.426   5.279  16.517  0.00  0.00    +0.000 A 
ATOM     24  N   UNL     1       7.363   5.552  15.560  0.00  0.00    +0.000 N 
ATOM     25  C   UNL     1       7.044   4.909  14.387  0.00  0.00    +0.000 A 
ATOM     26  C   UNL     1       7.689   4.922  13.144  0.00  0.00    +0.000 A 
ATOM     27  C   UNL     1       7.121   4.172  12.110  0.00  0.00    +0.000 A 
ATOM     28  C   UNL     1       5.967   3.430  12.331  0.00  0.00    +0.000 A 
ATOM     29  C   UNL     1       5.342   3.406  13.577  0.00  0.00    +0.000 A 
ATOM     30  C   UNL     1       5.878   4.179  14.626  0.00  0.00    +0.000 A 
ATOM     31  H   UNL     1       8.168   6.152  15.683  0.00  0.00    +0.000 HD
BRANCH  28  32
ATOM     32  O   UNL     1       5.377   2.721  11.324  0.00  0.00    +0.000 OA
ATOM     33  H   UNL     1       4.589   3.210  11.034  0.00  0.00    +0.000 HD
ENDBRANCH  28  32
ENDBRANCH  21  22
ENDBRANCH  20  21
ENDBRANCH   3  20
TORSDOF 7
ENDMDL
MODEL 4
REMARK VINA RESULT:      -8.5      2.390      3.521
REMARK  Name = 
REMARK  8 active torsions:
REMARK  status: ('A' for Active; 'I' for Inactive)
REMARK    1  A    between atoms: C_1  and  C_2
REMARK    2  A    between atoms: C_2  and  C_3
REMARK    3  A    between atoms: C_2  and  C_18
REMARK    4  A    between atoms: N_5  and  C_6
REMARK    5  A    between atoms: C_6  and  C_7
REMARK    6  A    between atoms: C_7  and  C_8
REMARK    7  A    between atoms: C_14  and  O_15
REMARK    8  A    between atoms: C_21  and  C_22
REMARK                            x       y       z     vdW  Elec       q    Type
REMARK                         _______ _______ _______ _____ _____    ______ ____
ROOT
ATOM      1  C   UNL     1       3.170   4.584  19.266  0.00  0.00    +0.000 C 
ATOM      2  O   UNL     1       2.518   3.831  18.544  0.00  0.00    +0.000 OA
ATOM      3  N   UNL     1       4.517   4.817  19.075  0.00  0.00    +0.000 N 
ATOM      4  H   UNL     1       5.037   5.125  19.888  0.00  0.00    +0.000 HD
ENDROOT
BRANCH   1   6
ATOM      5  C   UNL     1       1.427   4.513  21.084  0.00  0.00    +0.000 C 
ATOM      6  C   UNL     1       2.518   5.356  20.419  0.00  0.00    +0.000 C 
BRANCH   6   7
ATOM      7  C   UNL     1       2.059   6.747  20.008  0.00  0.00    +0.000 A 
ATOM      8  C   UNL     1       1.414   7.566  20.944  0.00  0.00    +0.000 A 
ATOM      9  C   UNL     1       0.980   8.853  20.595  0.00  0.00    +0.000 A 
ATOM     10  C   UNL     1       1.192   9.384  19.309  0.00  0.00    +0.000 A 
ATOM     11  C   UNL     1       1.835   8.545  18.387  0.00  0.00    +0.000 A 
ATOM     12  F   UNL     1       2.074   8.959  17.133  0.00  0.00    +0.000 F 
ATOM     13  C   UNL     1       2.259   7.258  18.721  0.00  0.00    +0.000 A 
BRANCH  10  14
ATOM     14  C   UNL     1       0.764  10.760  18.962  0.00  0.00    +0.000 A 
ATOM     15  C   UNL     1      -0.581  11.053  18.669  0.00  0.00    +0.000 A 
ATOM     16  C   UNL     1      -0.996  12.347  18.342  0.00  0.00    +0.000 A 
ATOM     17  C   UNL     1      -0.074  13.388  18.317  0.00  0.00    +0.000 A 
ATOM     18  C   UNL     1       1.261  13.133  18.611  0.00  0.00    +0.000 A 
ATOM     19  C   UNL     1       1.674  11.834  18.921  0.00  0.00    +0.000 A 
ENDBRANCH  10  14
ENDBRANCH   6   7
ENDBRANCH   1   6
BRANCH   3  20
ATOM     20  C   UNL     1       5.253   4.067  18.069  0.00  0.00    +0.000 C 
BRANCH  20  21
ATOM     21  C   UNL     1       4.784   4.335  16.635  0.00  0.00    +0.000 C 
BRANCH  21  22
ATOM     22  C   UNL     1       5.911   4.680  15.709  0.00  0.00    +0.000 A 
ATOM     23  C   UNL     1       6.985   5.503  15.991  0.00  0.00    +0.000 A 
ATOM     24  N   UNL     1       7.761   5.604  14.870  0.00  0.00    +0.000 N 
ATOM     25  C   UNL     1       7.217   4.862  13.847  0.00  0.00    +0.000 A 
ATOM     26  C   UNL     1       7.644   4.696  12.524  0.00  0.00    +0.000 A 
ATOM     27  C   UNL     1       6.873   3.880  11.691  0.00  0.00    +0.000 A 
ATOM     28  C   UNL     1       5.735   3.249  12.181  0.00  0.00    +0.000 A 
ATOM     29  C   UNL     1       5.328   3.403  13.505  0.00  0.00    +0.000 A 
ATOM     30  C   UNL     1       6.071   4.246  14.355  0.00  0.00    +0.000 A 
ATOM     31  H   UNL     1       8.605   6.156  14.790  0.00  0.00    +0.000 HD
BRANCH  28  32
ATOM     32  O   UNL     1       4.950   2.479  11.373  0.00  0.00    +0.000 OA
ATOM     33  H   UNL     1       4.330   1.987  11.938  0.00  0.00    +0.000 HD
ENDBRANCH  28  32
ENDBRANCH  21  22
ENDBRANCH  20  21
ENDBRANCH   3  20
TORSDOF 7
ENDMDL
MODEL 5
REMARK VINA RESULT:      -8.5      0.682      1.026
REMARK  Name = 
REMARK  8 active torsions:
REMARK  status: ('A' for Active; 'I' for Inactive)
REMARK    1  A    between atoms: C_1  and  C_2
REMARK    2  A    between atoms: C_2  and  C_3
REMARK    3  A    between atoms: C_2  and  C_18
REMARK    4  A    between atoms: N_5  and  C_6
REMARK    5  A    between atoms: C_6  and  C_7
REMARK    6  A    between atoms: C_7  and  C_8
REMARK    7  A    between atoms: C_14  and  O_15
REMARK    8  A    between atoms: C_21  and  C_22
REMARK                            x       y       z     vdW  Elec       q    Type
REMARK                         _______ _______ _______ _____ _____    ______ ____
ROOT
ATOM      1  C   UNL     1       2.549   4.165  18.958  0.00  0.00    +0.000 C 
ATOM      2  O   UNL     1       1.473   3.803  18.485  0.00  0.00    +0.000 OA
ATOM      3  N   UNL     1       3.755   3.937  18.326  0.00  0.00    +0.000 N 
ATOM      4  H   UNL     1       4.575   3.919  18.920  0.00  0.00    +0.000 HD
ENDROOT
BRANCH   1   6
ATOM      5  C   UNL     1       1.996   4.127  21.416  0.00  0.00    +0.000 C 
ATOM      6  C   UNL     1       2.627   4.936  20.280  0.00  0.00    +0.000 C 
BRANCH   6   7
ATOM      7  C   UNL     1       2.093   6.356  20.163  0.00  0.00    +0.000 A 
ATOM      8  C   UNL     1       2.442   7.136  19.053  0.00  0.00    +0.000 A 
ATOM      9  C   UNL     1       1.966   8.448  18.916  0.00  0.00    +0.000 A 
ATOM     10  C   UNL     1       1.103   9.026  19.867  0.00  0.00    +0.000 A 
ATOM     11  C   UNL     1       0.771   8.229  20.973  0.00  0.00    +0.000 A 
ATOM     12  F   UNL     1      -0.037   8.696  21.937  0.00  0.00    +0.000 F 
ATOM     13  C   UNL     1       1.252   6.927  21.123  0.00  0.00    +0.000 A 
BRANCH  10  14
ATOM     14  C   UNL     1       0.574  10.399  19.694  0.00  0.00    +0.000 A 
ATOM     15  C   UNL     1       1.002  11.455  20.521  0.00  0.00    +0.000 A 
ATOM     16  C   UNL     1       0.509  12.754  20.366  0.00  0.00    +0.000 A 
ATOM     17  C   UNL     1      -0.413  13.034  19.364  0.00  0.00    +0.000 A 
ATOM     18  C   UNL     1      -0.848  12.015  18.525  0.00  0.00    +0.000 A 
ATOM     19  C   UNL     1      -0.367  10.714  18.695  0.00  0.00    +0.000 A 
ENDBRANCH  10  14
ENDBRANCH   6   7
ENDBRANCH   1   6
BRANCH   3  20
ATOM     20  C   UNL     1       3.803   3.134  17.113  0.00  0.00    +0.000 C 
BRANCH  20  21
ATOM     21  C   UNL     1       5.035   3.404  16.243  0.00  0.00    +0.000 C 
BRANCH  21  22
ATOM     22  C   UNL     1       5.488   4.832  16.303  0.00  0.00    +0.000 A 
ATOM     23  C   UNL     1       5.144   5.842  15.425  0.00  0.00    +0.000 A 
ATOM     24  N   UNL     1       5.804   6.981  15.791  0.00  0.00    +0.000 N 
ATOM     25  C   UNL     1       6.583   6.742  16.900  0.00  0.00    +0.000 A 
ATOM     26  C   UNL     1       7.447   7.594  17.599  0.00  0.00    +0.000 A 
ATOM     27  C   UNL     1       8.130   7.066  18.699  0.00  0.00    +0.000 A 
ATOM     28  C   UNL     1       7.933   5.744  19.081  0.00  0.00    +0.000 A 
ATOM     29  C   UNL     1       7.056   4.908  18.392  0.00  0.00    +0.000 A 
ATOM     30  C   UNL     1       6.379   5.409  17.262  0.00  0.00    +0.000 A 
ATOM     31  H   UNL     1       5.748   7.870  15.313  0.00  0.00    +0.000 HD
BRANCH  28  32
ATOM     32  O   UNL     1       8.619   5.200  20.128  0.00  0.00    +0.000 OA
ATOM     33  H   UNL     1       9.568   5.247  19.922  0.00  0.00    +0.000 HD
ENDBRANCH  28  32
ENDBRANCH  21  22
ENDBRANCH  20  21
ENDBRANCH   3  20
TORSDOF 7
ENDMDL
MODEL 6
REMARK VINA RESULT:      -8.3      5.199     10.560
REMARK  Name = 
REMARK  8 active torsions:
REMARK  status: ('A' for Active; 'I' for Inactive)
REMARK    1  A    between atoms: C_1  and  C_2
REMARK    2  A    between atoms: C_2  and  C_3
REMARK    3  A    between atoms: C_2  and  C_18
REMARK    4  A    between atoms: N_5  and  C_6
REMARK    5  A    between atoms: C_6  and  C_7
REMARK    6  A    between atoms: C_7  and  C_8
REMARK    7  A    between atoms: C_14  and  O_15
REMARK    8  A    between atoms: C_21  and  C_22
REMARK                            x       y       z     vdW  Elec       q    Type
REMARK                         _______ _______ _______ _____ _____    ______ ____
ROOT
ATOM      1  C   UNL     1       0.299  11.446  20.893  0.00  0.00    +0.000 C 
ATOM      2  O   UNL     1       1.263  11.755  21.592  0.00  0.00    +0.000 OA
ATOM      3  N   UNL     1      -0.985  11.363  21.392  0.00  0.00    +0.000 N 
ATOM      4  H   UNL     1      -1.625  10.766  20.882  0.00  0.00    +0.000 HD
ENDROOT
BRANCH   1   6
ATOM      5  C   UNL     1      -0.884  11.367  18.670  0.00  0.00    +0.000 C 
ATOM      6  C   UNL     1       0.450  11.168  19.394  0.00  0.00    +0.000 C 
BRANCH   6   7
ATOM      7  C   UNL     1       1.112   9.827  19.110  0.00  0.00    +0.000 A 
ATOM      8  C   UNL     1       1.674   9.587  17.850  0.00  0.00    +0.000 A 
ATOM      9  C   UNL     1       2.291   8.362  17.558  0.00  0.00    +0.000 A 
ATOM     10  C   UNL     1       2.394   7.337  18.517  0.00  0.00    +0.000 A 
ATOM     11  C   UNL     1       1.819   7.597  19.770  0.00  0.00    +0.000 A 
ATOM     12  F   UNL     1       1.859   6.677  20.747  0.00  0.00    +0.000 F 
ATOM     13  C   UNL     1       1.192   8.809  20.065  0.00  0.00    +0.000 A 
BRANCH  10  14
ATOM     14  C   UNL     1       3.082   6.061  18.212  0.00  0.00    +0.000 A 
ATOM     15  C   UNL     1       4.486   5.962  18.254  0.00  0.00    +0.000 A 
ATOM     16  C   UNL     1       5.146   4.763  17.969  0.00  0.00    +0.000 A 
ATOM     17  C   UNL     1       4.415   3.625  17.650  0.00  0.00    +0.000 A 
ATOM     18  C   UNL     1       3.026   3.688  17.609  0.00  0.00    +0.000 A 
ATOM     19  C   UNL     1       2.371   4.893  17.878  0.00  0.00    +0.000 A 
ENDBRANCH  10  14
ENDBRANCH   6   7
ENDBRANCH   1   6
BRANCH   3  20
ATOM     20  C   UNL     1      -1.226  11.518  22.818  0.00  0.00    +0.000 C 
BRANCH  20  21
ATOM     21  C   UNL     1      -1.746  12.905  23.209  0.00  0.00    +0.000 C 
BRANCH  21  22
ATOM     22  C   UNL     1      -3.238  12.949  23.349  0.00  0.00    +0.000 A 
ATOM     23  C   UNL     1      -3.954  12.952  24.530  0.00  0.00    +0.000 A 
ATOM     24  N   UNL     1      -5.288  12.944  24.231  0.00  0.00    +0.000 N 
ATOM     25  C   UNL     1      -5.467  12.935  22.867  0.00  0.00    +0.000 A 
ATOM     26  C   UNL     1      -6.645  12.893  22.111  0.00  0.00    +0.000 A 
ATOM     27  C   UNL     1      -6.522  12.879  20.718  0.00  0.00    +0.000 A 
ATOM     28  C   UNL     1      -5.267  12.923  20.123  0.00  0.00    +0.000 A 
ATOM     29  C   UNL     1      -4.100  12.985  20.882  0.00  0.00    +0.000 A 
ATOM     30  C   UNL     1      -4.197  12.969  22.288  0.00  0.00    +0.000 A 
ATOM     31  H   UNL     1      -6.039  12.930  24.907  0.00  0.00    +0.000 HD
BRANCH  28  32
ATOM     32  O   UNL     1      -5.125  12.873  18.766  0.00  0.00    +0.000 OA
ATOM     33  H   UNL     1      -4.190  12.695  18.568  0.00  0.00    +0.000 HD
ENDBRANCH  28  32
ENDBRANCH  21  22
ENDBRANCH  20  21
ENDBRANCH   3  20
TORSDOF 7
ENDMDL
MODEL 7
REMARK VINA RESULT:      -8.3      5.095     10.515
REMARK  Name = 
REMARK  8 active torsions:
REMARK  status: ('A' for Active; 'I' for Inactive)
REMARK    1  A    between atoms: C_1  and  C_2
REMARK    2  A    between atoms: C_2  and  C_3
REMARK    3  A    between atoms: C_2  and  C_18
REMARK    4  A    between atoms: N_5  and  C_6
REMARK    5  A    between atoms: C_6  and  C_7
REMARK    6  A    between atoms: C_7  and  C_8
REMARK    7  A    between atoms: C_14  and  O_15
REMARK    8  A    between atoms: C_21  and  C_22
REMARK                            x       y       z     vdW  Elec       q    Type
REMARK                         _______ _______ _______ _____ _____    ______ ____
ROOT
ATOM      1  C   UNL     1       0.276  11.327  20.925  0.00  0.00    +0.000 C 
ATOM      2  O   UNL     1       1.183  11.981  21.436  0.00  0.00    +0.000 OA
ATOM      3  N   UNL     1      -0.925  11.094  21.565  0.00  0.00    +0.000 N 
ATOM      4  H   UNL     1      -1.441  10.276  21.264  0.00  0.00    +0.000 HD
ENDROOT
BRANCH   1   6
ATOM      5  C   UNL     1      -0.965  10.726  18.816  0.00  0.00    +0.000 C 
ATOM      6  C   UNL     1       0.399  10.748  19.512  0.00  0.00    +0.000 C 
BRANCH   6   7
ATOM      7  C   UNL     1       1.127   9.413  19.486  0.00  0.00    +0.000 A 
ATOM      8  C   UNL     1       1.109   8.594  20.622  0.00  0.00    +0.000 A 
ATOM      9  C   UNL     1       1.771   7.357  20.629  0.00  0.00    +0.000 A 
ATOM     10  C   UNL     1       2.455   6.876  19.496  0.00  0.00    +0.000 A 
ATOM     11  C   UNL     1       2.463   7.714  18.372  0.00  0.00    +0.000 A 
ATOM     12  F   UNL     1       3.097   7.347  17.247  0.00  0.00    +0.000 F 
ATOM     13  C   UNL     1       1.819   8.953  18.361  0.00  0.00    +0.000 A 
BRANCH  10  14
ATOM     14  C   UNL     1       3.117   5.550  19.501  0.00  0.00    +0.000 A 
ATOM     15  C   UNL     1       4.482   5.417  19.184  0.00  0.00    +0.000 A 
ATOM     16  C   UNL     1       5.117   4.172  19.186  0.00  0.00    +0.000 A 
ATOM     17  C   UNL     1       4.404   3.027  19.523  0.00  0.00    +0.000 A 
ATOM     18  C   UNL     1       3.056   3.127  19.850  0.00  0.00    +0.000 A 
ATOM     19  C   UNL     1       2.421   4.372  19.830  0.00  0.00    +0.000 A 
ENDBRANCH  10  14
ENDBRANCH   6   7
ENDBRANCH   1   6
BRANCH   3  20
ATOM     20  C   UNL     1      -1.112  11.520  22.944  0.00  0.00    +0.000 C 
BRANCH  20  21
ATOM     21  C   UNL     1      -1.770  12.896  23.081  0.00  0.00    +0.000 C 
BRANCH  21  22
ATOM     22  C   UNL     1      -3.268  12.829  23.074  0.00  0.00    +0.000 A 
ATOM     23  C   UNL     1      -4.095  12.784  24.180  0.00  0.00    +0.000 A 
ATOM     24  N   UNL     1      -5.389  12.674  23.752  0.00  0.00    +0.000 N 
ATOM     25  C   UNL     1      -5.432  12.643  22.377  0.00  0.00    +0.000 A 
ATOM     26  C   UNL     1      -6.523  12.508  21.510  0.00  0.00    +0.000 A 
ATOM     27  C   UNL     1      -6.263  12.495  20.136  0.00  0.00    +0.000 A 
ATOM     28  C   UNL     1      -4.962  12.631  19.666  0.00  0.00    +0.000 A 
ATOM     29  C   UNL     1      -3.884  12.785  20.535  0.00  0.00    +0.000 A 
ATOM     30  C   UNL     1      -4.117  12.770  21.924  0.00  0.00    +0.000 A 
ATOM     31  H   UNL     1      -6.200  12.607  24.352  0.00  0.00    +0.000 HD
BRANCH  28  32
ATOM     32  O   UNL     1      -4.684  12.584  18.330  0.00  0.00    +0.000 OA
ATOM     33  H   UNL     1      -5.200  11.858  17.941  0.00  0.00    +0.000 HD
ENDBRANCH  28  32
ENDBRANCH  21  22
ENDBRANCH  20  21
ENDBRANCH   3  20
TORSDOF 7
ENDMDL
MODEL 8
REMARK VINA RESULT:      -8.3      4.183      8.377
REMARK  Name = 
REMARK  8 active torsions:
REMARK  status: ('A' for Active; 'I' for Inactive)
REMARK    1  A    between atoms: C_1  and  C_2
REMARK    2  A    between atoms: C_2  and  C_3
REMARK    3  A    between atoms: C_2  and  C_18
REMARK    4  A    between atoms: N_5  and  C_6
REMARK    5  A    between atoms: C_6  and  C_7
REMARK    6  A    between atoms: C_7  and  C_8
REMARK    7  A    between atoms: C_14  and  O_15
REMARK    8  A    between atoms: C_21  and  C_22
REMARK                            x       y       z     vdW  Elec       q    Type
REMARK                         _______ _______ _______ _____ _____    ______ ____
ROOT
ATOM      1  C   UNL     1       0.235  11.127  21.054  0.00  0.00    +0.000 C 
ATOM      2  O   UNL     1       1.175  11.789  21.490  0.00  0.00    +0.000 OA
ATOM      3  N   UNL     1      -0.736  11.664  20.232  0.00  0.00    +0.000 N 
ATOM      4  H   UNL     1      -1.630  11.189  20.228  0.00  0.00    +0.000 HD
ENDROOT
BRANCH   1   6
ATOM      5  C   UNL     1       0.295   9.368  22.857  0.00  0.00    +0.000 C 
ATOM      6  C   UNL     1       0.093   9.633  21.363  0.00  0.00    +0.000 C 
BRANCH   6   7
ATOM      7  C   UNL     1       0.954   8.762  20.459  0.00  0.00    +0.000 A 
ATOM      8  C   UNL     1       1.395   7.515  20.918  0.00  0.00    +0.000 A 
ATOM      9  C   UNL     1       2.190   6.690  20.109  0.00  0.00    +0.000 A 
ATOM     10  C   UNL     1       2.556   7.064  18.802  0.00  0.00    +0.000 A 
ATOM     11  C   UNL     1       2.107   8.319  18.366  0.00  0.00    +0.000 A 
ATOM     12  F   UNL     1       2.413   8.768  17.138  0.00  0.00    +0.000 F 
ATOM     13  C   UNL     1       1.327   9.152  19.169  0.00  0.00    +0.000 A 
BRANCH  10  14
ATOM     14  C   UNL     1       3.363   6.168  17.941  0.00  0.00    +0.000 A 
ATOM     15  C   UNL     1       4.494   6.644  17.253  0.00  0.00    +0.000 A 
ATOM     16  C   UNL     1       5.264   5.807  16.439  0.00  0.00    +0.000 A 
ATOM     17  C   UNL     1       4.928   4.465  16.306  0.00  0.00    +0.000 A 
ATOM     18  C   UNL     1       3.821   3.962  16.980  0.00  0.00    +0.000 A 
ATOM     19  C   UNL     1       3.045   4.806  17.780  0.00  0.00    +0.000 A 
ENDBRANCH  10  14
ENDBRANCH   6   7
ENDBRANCH   1   6
BRANCH   3  20
ATOM     20  C   UNL     1      -0.747  13.092  19.951  0.00  0.00    +0.000 C 
BRANCH  20  21
ATOM     21  C   UNL     1      -0.321  13.443  18.523  0.00  0.00    +0.000 C 
BRANCH  21  22
ATOM     22  C   UNL     1       1.165  13.577  18.375  0.00  0.00    +0.000 A 
ATOM     23  C   UNL     1       2.051  12.576  18.027  0.00  0.00    +0.000 A 
ATOM     24  N   UNL     1       3.318  13.088  18.052  0.00  0.00    +0.000 N 
ATOM     25  C   UNL     1       3.286  14.416  18.414  0.00  0.00    +0.000 A 
ATOM     26  C   UNL     1       4.332  15.327  18.601  0.00  0.00    +0.000 A 
ATOM     27  C   UNL     1       3.998  16.628  18.989  0.00  0.00    +0.000 A 
ATOM     28  C   UNL     1       2.667  16.991  19.161  0.00  0.00    +0.000 A 
ATOM     29  C   UNL     1       1.630  16.083  18.953  0.00  0.00    +0.000 A 
ATOM     30  C   UNL     1       1.944  14.757  18.592  0.00  0.00    +0.000 A 
ATOM     31  H   UNL     1       4.163  12.570  17.853  0.00  0.00    +0.000 HD
BRANCH  28  32
ATOM     32  O   UNL     1       2.323  18.245  19.575  0.00  0.00    +0.000 OA
ATOM     33  H   UNL     1       3.103  18.817  19.483  0.00  0.00    +0.000 HD
ENDBRANCH  28  32
ENDBRANCH  21  22
ENDBRANCH  20  21
ENDBRANCH   3  20
TORSDOF 7
ENDMDL
MODEL 9
REMARK VINA RESULT:      -8.3      2.385      3.308
REMARK  Name = 
REMARK  8 active torsions:
REMARK  status: ('A' for Active; 'I' for Inactive)
REMARK    1  A    between atoms: C_1  and  C_2
REMARK    2  A    between atoms: C_2  and  C_3
REMARK    3  A    between atoms: C_2  and  C_18
REMARK    4  A    between atoms: N_5  and  C_6
REMARK    5  A    between atoms: C_6  and  C_7
REMARK    6  A    between atoms: C_7  and  C_8
REMARK    7  A    between atoms: C_14  and  O_15
REMARK    8  A    between atoms: C_21  and  C_22
REMARK                            x       y       z     vdW  Elec       q    Type
REMARK                         _______ _______ _______ _____ _____    ______ ____
ROOT
ATOM      1  C   UNL     1       2.058   5.714  18.670  0.00  0.00    +0.000 C 
ATOM      2  O   UNL     1       1.985   5.486  19.877  0.00  0.00    +0.000 OA
ATOM      3  N   UNL     1       1.846   4.740  17.715  0.00  0.00    +0.000 N 
ATOM      4  H   UNL     1       2.276   4.899  16.812  0.00  0.00    +0.000 HD
ENDROOT
BRANCH   1   6
ATOM      5  C   UNL     1       3.853   7.282  17.851  0.00  0.00    +0.000 C 
ATOM      6  C   UNL     1       2.357   7.118  18.135  0.00  0.00    +0.000 C 
BRANCH   6   7
ATOM      7  C   UNL     1       1.770   8.217  19.009  0.00  0.00    +0.000 A 
ATOM      8  C   UNL     1       1.288   9.389  18.414  0.00  0.00    +0.000 A 
ATOM      9  C   UNL     1       0.741  10.420  19.192  0.00  0.00    +0.000 A 
ATOM     10  C   UNL     1       0.631  10.312  20.592  0.00  0.00    +0.000 A 
ATOM     11  C   UNL     1       1.125   9.132  21.166  0.00  0.00    +0.000 A 
ATOM     12  F   UNL     1       1.073   8.941  22.494  0.00  0.00    +0.000 F 
ATOM     13  C   UNL     1       1.683   8.107  20.400  0.00  0.00    +0.000 A 
BRANCH  10  14
ATOM     14  C   UNL     1       0.016  11.390  21.402  0.00  0.00    +0.000 A 
ATOM     15  C   UNL     1      -1.020  11.114  22.314  0.00  0.00    +0.000 A 
ATOM     16  C   UNL     1      -1.607  12.123  23.084  0.00  0.00    +0.000 A 
ATOM     17  C   UNL     1      -1.158  13.434  22.973  0.00  0.00    +0.000 A 
ATOM     18  C   UNL     1      -0.129  13.737  22.087  0.00  0.00    +0.000 A 
ATOM     19  C   UNL     1       0.443  12.728  21.307  0.00  0.00    +0.000 A 
ENDBRANCH  10  14
ENDBRANCH   6   7
ENDBRANCH   1   6
BRANCH   3  20
ATOM     20  C   UNL     1       1.646   3.356  18.115  0.00  0.00    +0.000 C 
BRANCH  20  21
ATOM     21  C   UNL     1       2.848   2.451  17.825  0.00  0.00    +0.000 C 
BRANCH  21  22
ATOM     22  C   UNL     1       4.160   3.113  18.122  0.00  0.00    +0.000 A 
ATOM     23  C   UNL     1       4.706   3.335  19.371  0.00  0.00    +0.000 A 
ATOM     24  N   UNL     1       5.884   4.011  19.218  0.00  0.00    +0.000 N 
ATOM     25  C   UNL     1       6.127   4.243  17.884  0.00  0.00    +0.000 A 
ATOM     26  C   UNL     1       7.183   4.921  17.263  0.00  0.00    +0.000 A 
ATOM     27  C   UNL     1       7.162   5.014  15.867  0.00  0.00    +0.000 A 
ATOM     28  C   UNL     1       6.131   4.434  15.139  0.00  0.00    +0.000 A 
ATOM     29  C   UNL     1       5.093   3.744  15.764  0.00  0.00    +0.000 A 
ATOM     30  C   UNL     1       5.076   3.663  17.170  0.00  0.00    +0.000 A 
ATOM     31  H   UNL     1       6.486   4.316  19.971  0.00  0.00    +0.000 HD
BRANCH  28  32
ATOM     32  O   UNL     1       6.073   4.546  13.780  0.00  0.00    +0.000 OA
ATOM     33  H   UNL     1       6.982   4.642  13.448  0.00  0.00    +0.000 HD
ENDBRANCH  28  32
ENDBRANCH  21  22
ENDBRANCH  20  21
ENDBRANCH   3  20
TORSDOF 7
ENDMDL
