MODEL 1
REMARK VINA RESULT:      -7.8      0.000      0.000
REMARK  Name = 
REMARK  3 active torsions:
REMARK  status: ('A' for Active; 'I' for Inactive)
REMARK    1  A    between atoms: C_7  and  N_8
REMARK    2  A    between atoms: N_15  and  C_16
REMARK    3  A    between atoms: N_21  and  O_22
REMARK                            x       y       z     vdW  Elec       q    Type
REMARK                         _______ _______ _______ _____ _____    ______ ____
ROOT
ATOM      1  O   UNL     1       5.023   5.890  15.943  0.00  0.00    +0.000 OA
ATOM      2  C   UNL     1       4.527   5.409  16.960  0.00  0.00    +0.000 A 
ATOM      3  C   UNL     1       3.692   6.252  17.828  0.00  0.00    +0.000 A 
ATOM      4  C   UNL     1       3.456   7.580  17.450  0.00  0.00    +0.000 A 
ATOM      5  C   UNL     1       2.623   8.379  18.219  0.00  0.00    +0.000 A 
ATOM      6  F   UNL     1       2.431   9.643  17.824  0.00  0.00    +0.000 F 
ATOM      7  C   UNL     1       2.054   7.888  19.391  0.00  0.00    +0.000 A 
ATOM      8  C   UNL     1       2.324   6.562  19.790  0.00  0.00    +0.000 A 
ATOM      9  C   UNL     1       3.116   5.714  18.988  0.00  0.00    +0.000 A 
ATOM     10  N   UNL     1       3.286   4.324  19.295  0.00  0.00    +0.000 N 
ATOM     11  C   UNL     1       3.995   3.482  18.428  0.00  0.00    +0.000 A 
ATOM     12  O   UNL     1       4.048   2.253  18.532  0.00  0.00    +0.000 OA
ATOM     13  N   UNL     1       4.659   4.107  17.381  0.00  0.00    +0.000 N 
ENDROOT
BRANCH   7  14
ATOM     14  N   UNL     1       1.181   8.700  20.157  0.00  0.00    +0.000 N 
ATOM     15  C   UNL     1       0.980   8.656  21.520  0.00  0.00    +0.000 A 
ATOM     16  C   UNL     1       0.048   9.629  21.796  0.00  0.00    +0.000 A 
ATOM     17  N   UNL     1      -0.365  10.244  20.650  0.00  0.00    +0.000 NA
ATOM     18  C   UNL     1       0.328   9.675  19.688  0.00  0.00    +0.000 A 
ENDBRANCH   7  14
BRANCH  10  19
ATOM     19  C   UNL     1       2.561   3.751  20.416  0.00  0.00    +0.000 C 
ATOM     20  C   UNL     1       1.110   4.013  20.732  0.00  0.00    +0.000 C 
ATOM     21  C   UNL     1       1.512   2.684  20.177  0.00  0.00    +0.000 C 
ENDBRANCH  10  19
BRANCH  13  22
ATOM     22  O   UNL     1       5.367   3.244  16.512  0.00  0.00    +0.000 OA
ATOM     23  H   UNL     1       6.051   2.872  17.106  0.00  0.00    +0.000 HD
ENDBRANCH  13  22
TORSDOF 3
ENDMDL
MODEL 2
REMARK VINA RESULT:      -7.7      0.738      1.092
REMARK  Name = 
REMARK  3 active torsions:
REMARK  status: ('A' for Active; 'I' for Inactive)
REMARK    1  A    between atoms: C_7  and  N_8
REMARK    2  A    between atoms: N_15  and  C_16
REMARK    3  A    between atoms: N_21  and  O_22
REMARK                            x       y       z     vdW  Elec       q    Type
REMARK                         _______ _______ _______ _____ _____    ______ ____
ROOT
ATOM      1  O   UNL     1       4.840   5.564  16.282  0.00  0.00    +0.000 OA
ATOM      2  C   UNL     1       4.186   5.199  17.257  0.00  0.00    +0.000 A 
ATOM      3  C   UNL     1       3.399   6.185  18.013  0.00  0.00    +0.000 A 
ATOM      4  C   UNL     1       3.390   7.515  17.576  0.00  0.00    +0.000 A 
ATOM      5  C   UNL     1       2.608   8.453  18.233  0.00  0.00    +0.000 A 
ATOM      6  F   UNL     1       2.635   9.714  17.785  0.00  0.00    +0.000 F 
ATOM      7  C   UNL     1       1.867   8.095  19.356  0.00  0.00    +0.000 A 
ATOM      8  C   UNL     1       1.908   6.763  19.818  0.00  0.00    +0.000 A 
ATOM      9  C   UNL     1       2.645   5.781  19.124  0.00  0.00    +0.000 A 
ATOM     10  N   UNL     1       2.588   4.395  19.486  0.00  0.00    +0.000 N 
ATOM     11  C   UNL     1       3.250   3.427  18.719  0.00  0.00    +0.000 A 
ATOM     12  O   UNL     1       3.119   2.208  18.864  0.00  0.00    +0.000 OA
ATOM     13  N   UNL     1       4.092   3.910  17.727  0.00  0.00    +0.000 N 
ENDROOT
BRANCH   7  14
ATOM     14  N   UNL     1       1.047   9.051  20.007  0.00  0.00    +0.000 N 
ATOM     15  C   UNL     1       0.161   9.929  19.422  0.00  0.00    +0.000 A 
ATOM     16  C   UNL     1      -0.395  10.648  20.454  0.00  0.00    +0.000 A 
ATOM     17  N   UNL     1       0.143  10.275  21.651  0.00  0.00    +0.000 NA
ATOM     18  C   UNL     1       0.997   9.318  21.358  0.00  0.00    +0.000 A 
ENDBRANCH   7  14
BRANCH  10  19
ATOM     19  C   UNL     1       1.686   3.975  20.545  0.00  0.00    +0.000 C 
ATOM     20  C   UNL     1       1.468   2.547  20.980  0.00  0.00    +0.000 C 
ATOM     21  C   UNL     1       2.240   3.474  21.862  0.00  0.00    +0.000 C 
ENDBRANCH  10  19
BRANCH  13  22
ATOM     22  O   UNL     1       4.752   2.922  16.958  0.00  0.00    +0.000 OA
ATOM     23  H   UNL     1       5.677   3.004  17.270  0.00  0.00    +0.000 HD
ENDBRANCH  13  22
TORSDOF 3
ENDMDL
MODEL 3
REMARK VINA RESULT:      -7.7      1.897      3.567
REMARK  Name = 
REMARK  3 active torsions:
REMARK  status: ('A' for Active; 'I' for Inactive)
REMARK    1  A    between atoms: C_7  and  N_8
REMARK    2  A    between atoms: N_15  and  C_16
REMARK    3  A    between atoms: N_21  and  O_22
REMARK                            x       y       z     vdW  Elec       q    Type
REMARK                         _______ _______ _______ _____ _____    ______ ____
ROOT
ATOM      1  O   UNL     1       2.840   3.023  21.034  0.00  0.00    +0.000 OA
ATOM      2  C   UNL     1       3.385   3.760  20.215  0.00  0.00    +0.000 A 
ATOM      3  C   UNL     1       2.855   5.112  19.990  0.00  0.00    +0.000 A 
ATOM      4  C   UNL     1       1.756   5.538  20.748  0.00  0.00    +0.000 A 
ATOM      5  C   UNL     1       1.274   6.829  20.600  0.00  0.00    +0.000 A 
ATOM      6  F   UNL     1       0.219   7.191  21.339  0.00  0.00    +0.000 F 
ATOM      7  C   UNL     1       1.842   7.696  19.669  0.00  0.00    +0.000 A 
ATOM      8  C   UNL     1       2.923   7.252  18.880  0.00  0.00    +0.000 A 
ATOM      9  C   UNL     1       3.470   5.965  19.062  0.00  0.00    +0.000 A 
ATOM     10  N   UNL     1       4.656   5.542  18.378  0.00  0.00    +0.000 N 
ATOM     11  C   UNL     1       5.235   4.295  18.651  0.00  0.00    +0.000 A 
ATOM     12  O   UNL     1       6.336   3.926  18.233  0.00  0.00    +0.000 OA
ATOM     13  N   UNL     1       4.495   3.449  19.467  0.00  0.00    +0.000 N 
ENDROOT
BRANCH   7  14
ATOM     14  N   UNL     1       1.364   9.024  19.543  0.00  0.00    +0.000 N 
ATOM     15  C   UNL     1       1.021   9.889  20.560  0.00  0.00    +0.000 A 
ATOM     16  C   UNL     1       0.618  11.052  19.946  0.00  0.00    +0.000 A 
ATOM     17  N   UNL     1       0.660  10.924  18.588  0.00  0.00    +0.000 NA
ATOM     18  C   UNL     1       1.112   9.708  18.373  0.00  0.00    +0.000 A 
ENDBRANCH   7  14
BRANCH  10  19
ATOM     19  C   UNL     1       5.365   6.490  17.535  0.00  0.00    +0.000 C 
ATOM     20  C   UNL     1       6.434   6.127  16.534  0.00  0.00    +0.000 C 
ATOM     21  C   UNL     1       5.083   6.543  16.047  0.00  0.00    +0.000 C 
ENDBRANCH  10  19
BRANCH  13  22
ATOM     22  O   UNL     1       5.093   2.195  19.737  0.00  0.00    +0.000 OA
ATOM     23  H   UNL     1       5.311   1.873  18.838  0.00  0.00    +0.000 HD
ENDBRANCH  13  22
TORSDOF 3
ENDMDL
MODEL 4
REMARK VINA RESULT:      -7.3      4.135      5.411
REMARK  Name = 
REMARK  3 active torsions:
REMARK  status: ('A' for Active; 'I' for Inactive)
REMARK    1  A    between atoms: C_7  and  N_8
REMARK    2  A    between atoms: N_15  and  C_16
REMARK    3  A    between atoms: N_21  and  O_22
REMARK                            x       y       z     vdW  Elec       q    Type
REMARK                         _______ _______ _______ _____ _____    ______ ____
ROOT
ATOM      1  O   UNL     1       5.046   3.727  14.014  0.00  0.00    +0.000 OA
ATOM      2  C   UNL     1       5.384   4.352  15.018  0.00  0.00    +0.000 A 
ATOM      3  C   UNL     1       4.695   4.105  16.293  0.00  0.00    +0.000 A 
ATOM      4  C   UNL     1       3.688   3.132  16.335  0.00  0.00    +0.000 A 
ATOM      5  C   UNL     1       3.065   2.836  17.538  0.00  0.00    +0.000 A 
ATOM      6  F   UNL     1       2.104   1.905  17.531  0.00  0.00    +0.000 F 
ATOM      7  C   UNL     1       3.396   3.532  18.698  0.00  0.00    +0.000 A 
ATOM      8  C   UNL     1       4.382   4.538  18.644  0.00  0.00    +0.000 A 
ATOM      9  C   UNL     1       5.075   4.808  17.445  0.00  0.00    +0.000 A 
ATOM     10  N   UNL     1       6.178   5.721  17.398  0.00  0.00    +0.000 N 
ATOM     11  C   UNL     1       6.911   5.896  16.216  0.00  0.00    +0.000 A 
ATOM     12  O   UNL     1       7.967   6.531  16.133  0.00  0.00    +0.000 OA
ATOM     13  N   UNL     1       6.392   5.284  15.083  0.00  0.00    +0.000 N 
ENDROOT
BRANCH   7  14
ATOM     14  N   UNL     1       2.775   3.205  19.930  0.00  0.00    +0.000 N 
ATOM     15  C   UNL     1       1.469   3.447  20.297  0.00  0.00    +0.000 A 
ATOM     16  C   UNL     1       1.339   2.952  21.574  0.00  0.00    +0.000 A 
ATOM     17  N   UNL     1       2.525   2.451  22.024  0.00  0.00    +0.000 NA
ATOM     18  C   UNL     1       3.364   2.609  21.024  0.00  0.00    +0.000 A 
ENDBRANCH   7  14
BRANCH  10  19
ATOM     19  C   UNL     1       6.653   6.326  18.630  0.00  0.00    +0.000 C 
ATOM     20  C   UNL     1       7.589   5.667  19.613  0.00  0.00    +0.000 C 
ATOM     21  C   UNL     1       8.093   6.779  18.750  0.00  0.00    +0.000 C 
ENDBRANCH  10  19
BRANCH  13  22
ATOM     22  O   UNL     1       7.145   5.465  13.899  0.00  0.00    +0.000 OA
ATOM     23  H   UNL     1       7.158   4.561  13.523  0.00  0.00    +0.000 HD
ENDBRANCH  13  22
TORSDOF 3
ENDMDL
MODEL 5
REMARK VINA RESULT:      -7.2      3.178      6.036
REMARK  Name = 
REMARK  3 active torsions:
REMARK  status: ('A' for Active; 'I' for Inactive)
REMARK    1  A    between atoms: C_7  and  N_8
REMARK    2  A    between atoms: N_15  and  C_16
REMARK    3  A    between atoms: N_21  and  O_22
REMARK                            x       y       z     vdW  Elec       q    Type
REMARK                         _______ _______ _______ _____ _____    ______ ____
ROOT
ATOM      1  O   UNL     1       2.377   9.864  17.183  0.00  0.00    +0.000 OA
ATOM      2  C   UNL     1       1.941   9.748  18.327  0.00  0.00    +0.000 A 
ATOM      3  C   UNL     1       1.869   8.417  18.946  0.00  0.00    +0.000 A 
ATOM      4  C   UNL     1       2.336   7.313  18.221  0.00  0.00    +0.000 A 
ATOM      5  C   UNL     1       2.337   6.055  18.803  0.00  0.00    +0.000 A 
ATOM      6  F   UNL     1       2.786   5.027  18.072  0.00  0.00    +0.000 F 
ATOM      7  C   UNL     1       1.832   5.868  20.088  0.00  0.00    +0.000 A 
ATOM      8  C   UNL     1       1.326   6.975  20.801  0.00  0.00    +0.000 A 
ATOM      9  C   UNL     1       1.378   8.273  20.251  0.00  0.00    +0.000 A 
ATOM     10  N   UNL     1       1.005   9.431  21.009  0.00  0.00    +0.000 N 
ATOM     11  C   UNL     1       1.160  10.717  20.473  0.00  0.00    +0.000 A 
ATOM     12  O   UNL     1       1.021  11.764  21.112  0.00  0.00    +0.000 OA
ATOM     13  N   UNL     1       1.511  10.777  19.131  0.00  0.00    +0.000 N 
ENDROOT
BRANCH   7  14
ATOM     14  N   UNL     1       1.861   4.585  20.689  0.00  0.00    +0.000 N 
ATOM     15  C   UNL     1       1.001   3.533  20.457  0.00  0.00    +0.000 A 
ATOM     16  C   UNL     1       1.430   2.509  21.268  0.00  0.00    +0.000 A 
ATOM     17  N   UNL     1       2.498   2.900  22.021  0.00  0.00    +0.000 NA
ATOM     18  C   UNL     1       2.738   4.140  21.655  0.00  0.00    +0.000 A 
ENDBRANCH   7  14
BRANCH  10  19
ATOM     19  C   UNL     1       0.642   9.278  22.407  0.00  0.00    +0.000 C 
ATOM     20  C   UNL     1      -0.342  10.150  23.146  0.00  0.00    +0.000 C 
ATOM     21  C   UNL     1      -0.729   8.753  22.783  0.00  0.00    +0.000 C 
ENDBRANCH  10  19
BRANCH  13  22
ATOM     22  O   UNL     1       1.667  12.081  18.605  0.00  0.00    +0.000 OA
ATOM     23  H   UNL     1       2.603  12.277  18.817  0.00  0.00    +0.000 HD
ENDBRANCH  13  22
TORSDOF 3
ENDMDL
MODEL 6
REMARK VINA RESULT:      -7.1      4.841      7.102
REMARK  Name = 
REMARK  3 active torsions:
REMARK  status: ('A' for Active; 'I' for Inactive)
REMARK    1  A    between atoms: C_7  and  N_8
REMARK    2  A    between atoms: N_15  and  C_16
REMARK    3  A    between atoms: N_21  and  O_22
REMARK                            x       y       z     vdW  Elec       q    Type
REMARK                         _______ _______ _______ _____ _____    ______ ____
ROOT
ATOM      1  O   UNL     1       8.087   6.292  17.760  0.00  0.00    +0.000 OA
ATOM      2  C   UNL     1       7.117   5.537  17.739  0.00  0.00    +0.000 A 
ATOM      3  C   UNL     1       6.642   5.001  16.455  0.00  0.00    +0.000 A 
ATOM      4  C   UNL     1       7.336   5.342  15.287  0.00  0.00    +0.000 A 
ATOM      5  C   UNL     1       6.947   4.801  14.071  0.00  0.00    +0.000 A 
ATOM      6  F   UNL     1       7.634   5.159  12.979  0.00  0.00    +0.000 F 
ATOM      7  C   UNL     1       5.841   3.959  13.990  0.00  0.00    +0.000 A 
ATOM      8  C   UNL     1       5.121   3.648  15.163  0.00  0.00    +0.000 A 
ATOM      9  C   UNL     1       5.540   4.135  16.418  0.00  0.00    +0.000 A 
ATOM     10  N   UNL     1       4.914   3.719  17.639  0.00  0.00    +0.000 N 
ATOM     11  C   UNL     1       5.414   4.140  18.879  0.00  0.00    +0.000 A 
ATOM     12  O   UNL     1       5.040   3.701  19.971  0.00  0.00    +0.000 OA
ATOM     13  N   UNL     1       6.409   5.107  18.836  0.00  0.00    +0.000 N 
ENDROOT
BRANCH   7  14
ATOM     14  N   UNL     1       5.465   3.387  12.749  0.00  0.00    +0.000 N 
ATOM     15  C   UNL     1       4.338   3.667  12.007  0.00  0.00    +0.000 A 
ATOM     16  C   UNL     1       4.413   2.869  10.890  0.00  0.00    +0.000 A 
ATOM     17  N   UNL     1       5.524   2.076  10.934  0.00  0.00    +0.000 NA
ATOM     18  C   UNL     1       6.136   2.407  12.049  0.00  0.00    +0.000 A 
ENDBRANCH   7  14
BRANCH  10  19
ATOM     19  C   UNL     1       3.873   2.707  17.593  0.00  0.00    +0.000 C 
ATOM     20  C   UNL     1       2.882   2.434  18.698  0.00  0.00    +0.000 C 
ATOM     21  C   UNL     1       2.421   3.116  17.450  0.00  0.00    +0.000 C 
ENDBRANCH  10  19
BRANCH  13  22
ATOM     22  O   UNL     1       6.907   5.519  20.095  0.00  0.00    +0.000 OA
ATOM     23  H   UNL     1       7.874   5.419  19.975  0.00  0.00    +0.000 HD
ENDBRANCH  13  22
TORSDOF 3
ENDMDL
MODEL 7
REMARK VINA RESULT:      -6.8      2.918      5.896
REMARK  Name = 
REMARK  3 active torsions:
REMARK  status: ('A' for Active; 'I' for Inactive)
REMARK    1  A    between atoms: C_7  and  N_8
REMARK    2  A    between atoms: N_15  and  C_16
REMARK    3  A    between atoms: N_21  and  O_22
REMARK                            x       y       z     vdW  Elec       q    Type
REMARK                         _______ _______ _______ _____ _____    ______ ____
ROOT
ATOM      1  O   UNL     1       2.376   8.127  19.157  0.00  0.00    +0.000 OA
ATOM      2  C   UNL     1       2.604   6.919  19.149  0.00  0.00    +0.000 A 
ATOM      3  C   UNL     1       3.376   6.333  18.043  0.00  0.00    +0.000 A 
ATOM      4  C   UNL     1       3.861   7.181  17.040  0.00  0.00    +0.000 A 
ATOM      5  C   UNL     1       4.644   6.664  16.019  0.00  0.00    +0.000 A 
ATOM      6  F   UNL     1       5.081   7.509  15.077  0.00  0.00    +0.000 F 
ATOM      7  C   UNL     1       4.913   5.300  15.953  0.00  0.00    +0.000 A 
ATOM      8  C   UNL     1       4.390   4.442  16.943  0.00  0.00    +0.000 A 
ATOM      9  C   UNL     1       3.648   4.958  18.026  0.00  0.00    +0.000 A 
ATOM     10  N   UNL     1       3.229   4.131  19.120  0.00  0.00    +0.000 N 
ATOM     11  C   UNL     1       2.580   4.687  20.230  0.00  0.00    +0.000 A 
ATOM     12  O   UNL     1       2.336   4.079  21.277  0.00  0.00    +0.000 OA
ATOM     13  N   UNL     1       2.215   6.021  20.114  0.00  0.00    +0.000 N 
ENDROOT
BRANCH   7  14
ATOM     14  N   UNL     1       5.736   4.781  14.923  0.00  0.00    +0.000 N 
ATOM     15  C   UNL     1       7.091   4.976  14.758  0.00  0.00    +0.000 A 
ATOM     16  C   UNL     1       7.438   4.277  13.625  0.00  0.00    +0.000 A 
ATOM     17  N   UNL     1       6.342   3.692  13.061  0.00  0.00    +0.000 NA
ATOM     18  C   UNL     1       5.341   4.003  13.856  0.00  0.00    +0.000 A 
ENDBRANCH   7  14
BRANCH  10  19
ATOM     19  C   UNL     1       3.648   2.740  19.158  0.00  0.00    +0.000 C 
ATOM     20  C   UNL     1       2.751   1.575  19.492  0.00  0.00    +0.000 C 
ATOM     21  C   UNL     1       3.194   1.779  18.079  0.00  0.00    +0.000 C 
ENDBRANCH  10  19
BRANCH  13  22
ATOM     22  O   UNL     1       1.563   6.570  21.244  0.00  0.00    +0.000 OA
ATOM     23  H   UNL     1       0.982   5.833  21.524  0.00  0.00    +0.000 HD
ENDBRANCH  13  22
TORSDOF 3
ENDMDL
MODEL 8
REMARK VINA RESULT:      -6.8      1.248      1.463
REMARK  Name = 
REMARK  3 active torsions:
REMARK  status: ('A' for Active; 'I' for Inactive)
REMARK    1  A    between atoms: C_7  and  N_8
REMARK    2  A    between atoms: N_15  and  C_16
REMARK    3  A    between atoms: N_21  and  O_22
REMARK                            x       y       z     vdW  Elec       q    Type
REMARK                         _______ _______ _______ _____ _____    ______ ____
ROOT
ATOM      1  O   UNL     1       4.048   6.952  16.530  0.00  0.00    +0.000 OA
ATOM      2  C   UNL     1       3.542   6.390  17.500  0.00  0.00    +0.000 A 
ATOM      3  C   UNL     1       2.775   7.176  18.477  0.00  0.00    +0.000 A 
ATOM      4  C   UNL     1       2.612   8.549  18.254  0.00  0.00    +0.000 A 
ATOM      5  C   UNL     1       1.842   9.303  19.126  0.00  0.00    +0.000 A 
ATOM      6  F   UNL     1       1.718  10.613  18.879  0.00  0.00    +0.000 F 
ATOM      7  C   UNL     1       1.267   8.718  20.251  0.00  0.00    +0.000 A 
ATOM      8  C   UNL     1       1.465   7.343  20.494  0.00  0.00    +0.000 A 
ATOM      9  C   UNL     1       2.189   6.546  19.583  0.00  0.00    +0.000 A 
ATOM     10  N   UNL     1       2.282   5.123  19.731  0.00  0.00    +0.000 N 
ATOM     11  C   UNL     1       2.924   4.343  18.759  0.00  0.00    +0.000 A 
ATOM     12  O   UNL     1       2.906   3.109  18.725  0.00  0.00    +0.000 OA
ATOM     13  N   UNL     1       3.605   5.043  17.771  0.00  0.00    +0.000 N 
ENDROOT
BRANCH   7  14
ATOM     14  N   UNL     1       0.457   9.487  21.123  0.00  0.00    +0.000 N 
ATOM     15  C   UNL     1       0.306   9.325  22.484  0.00  0.00    +0.000 A 
ATOM     16  C   UNL     1      -0.574  10.303  22.885  0.00  0.00    +0.000 A 
ATOM     17  N   UNL     1      -1.003  11.038  21.818  0.00  0.00    +0.000 NA
ATOM     18  C   UNL     1      -0.371  10.535  20.781  0.00  0.00    +0.000 A 
ENDBRANCH   7  14
BRANCH  10  19
ATOM     19  C   UNL     1       1.545   4.470  20.799  0.00  0.00    +0.000 C 
ATOM     20  C   UNL     1       1.145   3.016  20.811  0.00  0.00    +0.000 C 
ATOM     21  C   UNL     1       2.243   3.483  21.712  0.00  0.00    +0.000 C 
ENDBRANCH  10  19
BRANCH  13  22
ATOM     22  O   UNL     1       4.244   4.244  16.795  0.00  0.00    +0.000 OA
ATOM     23  H   UNL     1       4.281   3.370  17.237  0.00  0.00    +0.000 HD
ENDBRANCH  13  22
TORSDOF 3
ENDMDL
MODEL 9
REMARK VINA RESULT:      -6.6      3.114      5.221
REMARK  Name = 
REMARK  3 active torsions:
REMARK  status: ('A' for Active; 'I' for Inactive)
REMARK    1  A    between atoms: C_7  and  N_8
REMARK    2  A    between atoms: N_15  and  C_16
REMARK    3  A    between atoms: N_21  and  O_22
REMARK                            x       y       z     vdW  Elec       q    Type
REMARK                         _______ _______ _______ _____ _____    ______ ____
ROOT
ATOM      1  O   UNL     1       2.521   1.725  16.815  0.00  0.00    +0.000 OA
ATOM      2  C   UNL     1       2.476   2.569  17.708  0.00  0.00    +0.000 A 
ATOM      3  C   UNL     1       3.561   3.552  17.834  0.00  0.00    +0.000 A 
ATOM      4  C   UNL     1       4.607   3.521  16.903  0.00  0.00    +0.000 A 
ATOM      5  C   UNL     1       5.611   4.475  16.961  0.00  0.00    +0.000 A 
ATOM      6  F   UNL     1       6.595   4.403  16.055  0.00  0.00    +0.000 F 
ATOM      7  C   UNL     1       5.617   5.438  17.967  0.00  0.00    +0.000 A 
ATOM      8  C   UNL     1       4.584   5.443  18.926  0.00  0.00    +0.000 A 
ATOM      9  C   UNL     1       3.518   4.523  18.845  0.00  0.00    +0.000 A 
ATOM     10  N   UNL     1       2.384   4.599  19.719  0.00  0.00    +0.000 N 
ATOM     11  C   UNL     1       1.294   3.734  19.552  0.00  0.00    +0.000 A 
ATOM     12  O   UNL     1       0.218   3.839  20.149  0.00  0.00    +0.000 OA
ATOM     13  N   UNL     1       1.466   2.709  18.632  0.00  0.00    +0.000 N 
ENDROOT
BRANCH   7  14
ATOM     14  N   UNL     1       6.631   6.428  18.004  0.00  0.00    +0.000 N 
ATOM     15  C   UNL     1       6.708   7.574  17.243  0.00  0.00    +0.000 A 
ATOM     16  C   UNL     1       7.862   8.212  17.636  0.00  0.00    +0.000 A 
ATOM     17  N   UNL     1       8.522   7.481  18.581  0.00  0.00    +0.000 NA
ATOM     18  C   UNL     1       7.766   6.425  18.787  0.00  0.00    +0.000 A 
ENDBRANCH   7  14
BRANCH  10  19
ATOM     19  C   UNL     1       2.287   5.700  20.661  0.00  0.00    +0.000 C 
ATOM     20  C   UNL     1       2.192   7.157  20.282  0.00  0.00    +0.000 C 
ATOM     21  C   UNL     1       0.984   6.457  20.814  0.00  0.00    +0.000 C 
ENDBRANCH  10  19
BRANCH  13  22
ATOM     22  O   UNL     1       0.356   1.847  18.471  0.00  0.00    +0.000 OA
ATOM     23  H   UNL     1      -0.398   2.463  18.575  0.00  0.00    +0.000 HD
ENDBRANCH  13  22
TORSDOF 3
ENDMDL
