MODEL 1
REMARK VINA RESULT:      -7.8      0.000      0.000
REMARK  Name = 
REMARK  9 active torsions:
REMARK  status: ('A' for Active; 'I' for Inactive)
REMARK    1  A    between atoms: C_1  and  C_2
REMARK    2  A    between atoms: C_2  and  C_3
REMARK    3  A    between atoms: C_3  and  C_4
REMARK    4  A    between atoms: C_4  and  C_5
REMARK    5  A    between atoms: C_5  and  N_6
REMARK    6  A    between atoms: C_8  and  C_9
REMARK    7  A    between atoms: N_11  and  C_12
REMARK    8  A    between atoms: C_21  and  C_22
REMARK    9  A    between atoms: N_29  and  C_30
REMARK                            x       y       z     vdW  Elec       q    Type
REMARK                         _______ _______ _______ _____ _____    ______ ____
ROOT
ATOM      1  N   UNL     1       2.876   5.345  20.044  0.00  0.00    +0.000 N 
ATOM      2  C   UNL     1       2.378   6.584  19.605  0.00  0.00    +0.000 A 
ATOM      3  C   UNL     1       2.780   7.269  18.516  0.00  0.00    +0.000 A 
ATOM      4  C   UNL     1       3.858   6.682  17.675  0.00  0.00    +0.000 A 
ATOM      5  O   UNL     1       4.362   7.327  16.759  0.00  0.00    +0.000 OA
ATOM      6  C   UNL     1       4.240   5.328  18.040  0.00  0.00    +0.000 A 
ATOM      7  C   UNL     1       5.072   4.364  17.409  0.00  0.00    +0.000 A 
ATOM      8  N   UNL     1       5.167   3.265  18.182  0.00  0.00    +0.000 NA
ATOM      9  N   UNL     1       4.389   3.507  19.257  0.00  0.00    +0.000 N 
ATOM     10  C   UNL     1       4.322   2.465  20.252  0.00  0.00    +0.000 C 
ATOM     11  C   UNL     1       3.777   4.735  19.205  0.00  0.00    +0.000 A 
ENDROOT
BRANCH   7  12
ATOM     12  C   UNL     1       5.785   4.431  16.130  0.00  0.00    +0.000 A 
ATOM     13  C   UNL     1       7.003   5.119  16.038  0.00  0.00    +0.000 A 
ATOM     14  C   UNL     1       7.668   5.241  14.814  0.00  0.00    +0.000 A 
ATOM     15  C   UNL     1       7.118   4.680  13.663  0.00  0.00    +0.000 A 
ATOM     16  C   UNL     1       5.928   3.964  13.743  0.00  0.00    +0.000 A 
ATOM     17  C   UNL     1       5.283   3.818  14.974  0.00  0.00    +0.000 A 
ENDBRANCH   7  12
BRANCH   3  18
ATOM     18  C   UNL     1       2.127   8.578  18.227  0.00  0.00    +0.000 C 
ATOM     19  O   UNL     1       2.106   9.030  17.084  0.00  0.00    +0.000 OA
ATOM     20  N   UNL     1       1.577   9.252  19.298  0.00  0.00    +0.000 N 
ATOM     21  H   UNL     1       1.710   8.872  20.232  0.00  0.00    +0.000 HD
BRANCH  20  22
ATOM     22  C   UNL     1       1.064  10.614  19.153  0.00  0.00    +0.000 C 
ATOM     23  C   UNL     1      -0.376  10.652  18.614  0.00  0.00    +0.000 C 
ATOM     24  C   UNL     1      -1.460  10.421  19.665  0.00  0.00    +0.000 C 
ATOM     25  C   UNL     1      -1.254  11.282  20.905  0.00  0.00    +0.000 C 
ATOM     26  C   UNL     1       0.136  11.064  21.489  0.00  0.00    +0.000 C 
ATOM     27  C   UNL     1       1.216  11.399  20.463  0.00  0.00    +0.000 C 
ENDBRANCH  20  22
ENDBRANCH   3  18
BRANCH   1  28
ATOM     28  C   UNL     1       2.446   4.803  21.343  0.00  0.00    +0.000 C 
BRANCH  28  29
ATOM     29  C   UNL     1       1.504   3.598  21.196  0.00  0.00    +0.000 C 
BRANCH  29  30
ATOM     30  C   UNL     1       0.646   3.663  19.930  0.00  0.00    +0.000 C 
BRANCH  30  32
ATOM     31  C   UNL     1       1.548   2.572  17.865  0.00  0.00    +0.000 C 
ATOM     32  C   UNL     1       0.699   2.376  19.112  0.00  0.00    +0.000 C 
ENDBRANCH  30  32
ENDBRANCH  29  30
ENDBRANCH  28  29
ENDBRANCH   1  28
TORSDOF 7
ENDMDL
MODEL 2
REMARK VINA RESULT:      -7.3      0.576      1.047
REMARK  Name = 
REMARK  9 active torsions:
REMARK  status: ('A' for Active; 'I' for Inactive)
REMARK    1  A    between atoms: C_1  and  C_2
REMARK    2  A    between atoms: C_2  and  C_3
REMARK    3  A    between atoms: C_3  and  C_4
REMARK    4  A    between atoms: C_4  and  C_5
REMARK    5  A    between atoms: C_5  and  N_6
REMARK    6  A    between atoms: C_8  and  C_9
REMARK    7  A    between atoms: N_11  and  C_12
REMARK    8  A    between atoms: C_21  and  C_22
REMARK    9  A    between atoms: N_29  and  C_30
REMARK                            x       y       z     vdW  Elec       q    Type
REMARK                         _______ _______ _______ _____ _____    ______ ____
ROOT
ATOM      1  N   UNL     1       3.001   5.434  19.664  0.00  0.00    +0.000 N 
ATOM      2  C   UNL     1       2.535   6.698  19.263  0.00  0.00    +0.000 A 
ATOM      3  C   UNL     1       2.936   7.392  18.179  0.00  0.00    +0.000 A 
ATOM      4  C   UNL     1       3.975   6.787  17.302  0.00  0.00    +0.000 A 
ATOM      5  O   UNL     1       4.479   7.435  16.387  0.00  0.00    +0.000 OA
ATOM      6  C   UNL     1       4.318   5.414  17.630  0.00  0.00    +0.000 A 
ATOM      7  C   UNL     1       5.103   4.436  16.961  0.00  0.00    +0.000 A 
ATOM      8  N   UNL     1       5.178   3.319  17.708  0.00  0.00    +0.000 NA
ATOM      9  N   UNL     1       4.433   3.564  18.806  0.00  0.00    +0.000 N 
ATOM     10  C   UNL     1       4.353   2.504  19.780  0.00  0.00    +0.000 C 
ATOM     11  C   UNL     1       3.862   4.812  18.793  0.00  0.00    +0.000 A 
ENDROOT
BRANCH   7  12
ATOM     12  C   UNL     1       5.789   4.506  15.667  0.00  0.00    +0.000 A 
ATOM     13  C   UNL     1       5.252   3.852  14.548  0.00  0.00    +0.000 A 
ATOM     14  C   UNL     1       5.922   3.862  13.322  0.00  0.00    +0.000 A 
ATOM     15  C   UNL     1       7.143   4.522  13.199  0.00  0.00    +0.000 A 
ATOM     16  C   UNL     1       7.673   5.204  14.289  0.00  0.00    +0.000 A 
ATOM     17  C   UNL     1       6.985   5.218  15.505  0.00  0.00    +0.000 A 
ENDBRANCH   7  12
BRANCH   3  18
ATOM     18  C   UNL     1       2.321   8.728  17.931  0.00  0.00    +0.000 C 
ATOM     19  O   UNL     1       2.746   9.459  17.038  0.00  0.00    +0.000 OA
ATOM     20  N   UNL     1       1.282   9.101  18.759  0.00  0.00    +0.000 N 
ATOM     21  H   UNL     1       1.041   8.494  19.539  0.00  0.00    +0.000 HD
BRANCH  20  22
ATOM     22  C   UNL     1       0.724  10.451  18.711  0.00  0.00    +0.000 C 
ATOM     23  C   UNL     1      -0.814  10.458  18.727  0.00  0.00    +0.000 C 
ATOM     24  C   UNL     1      -1.441  10.314  20.113  0.00  0.00    +0.000 C 
ATOM     25  C   UNL     1      -0.819  11.264  21.129  0.00  0.00    +0.000 C 
ATOM     26  C   UNL     1       0.692  11.081  21.186  0.00  0.00    +0.000 C 
ATOM     27  C   UNL     1       1.322  11.331  19.817  0.00  0.00    +0.000 C 
ENDBRANCH  20  22
ENDBRANCH   3  18
BRANCH   1  28
ATOM     28  C   UNL     1       2.582   4.879  20.962  0.00  0.00    +0.000 C 
BRANCH  28  29
ATOM     29  C   UNL     1       1.190   4.233  20.904  0.00  0.00    +0.000 C 
BRANCH  29  30
ATOM     30  C   UNL     1       1.244   2.704  20.851  0.00  0.00    +0.000 C 
BRANCH  30  32
ATOM     31  C   UNL     1       0.797   3.205  18.439  0.00  0.00    +0.000 C 
ATOM     32  C   UNL     1       0.746   2.139  19.524  0.00  0.00    +0.000 C 
ENDBRANCH  30  32
ENDBRANCH  29  30
ENDBRANCH  28  29
ENDBRANCH   1  28
TORSDOF 7
ENDMDL
MODEL 3
REMARK VINA RESULT:      -7.0      3.592      9.788
REMARK  Name = 
REMARK  9 active torsions:
REMARK  status: ('A' for Active; 'I' for Inactive)
REMARK    1  A    between atoms: C_1  and  C_2
REMARK    2  A    between atoms: C_2  and  C_3
REMARK    3  A    between atoms: C_3  and  C_4
REMARK    4  A    between atoms: C_4  and  C_5
REMARK    5  A    between atoms: C_5  and  N_6
REMARK    6  A    between atoms: C_8  and  C_9
REMARK    7  A    between atoms: N_11  and  C_12
REMARK    8  A    between atoms: C_21  and  C_22
REMARK    9  A    between atoms: N_29  and  C_30
REMARK                            x       y       z     vdW  Elec       q    Type
REMARK                         _______ _______ _______ _____ _____    ______ ____
ROOT
ATOM      1  N   UNL     1      -2.164  10.129  17.546  0.00  0.00    +0.000 N 
ATOM      2  C   UNL     1      -0.884   9.569  17.686  0.00  0.00    +0.000 A 
ATOM      3  C   UNL     1       0.090   9.993  18.516  0.00  0.00    +0.000 A 
ATOM      4  C   UNL     1      -0.190  11.169  19.384  0.00  0.00    +0.000 A 
ATOM      5  O   UNL     1       0.705  11.685  20.050  0.00  0.00    +0.000 OA
ATOM      6  C   UNL     1      -1.568  11.627  19.355  0.00  0.00    +0.000 A 
ATOM      7  C   UNL     1      -2.280  12.574  20.141  0.00  0.00    +0.000 A 
ATOM      8  N   UNL     1      -3.538  12.699  19.679  0.00  0.00    +0.000 NA
ATOM      9  N   UNL     1      -3.637  11.830  18.651  0.00  0.00    +0.000 N 
ATOM     10  C   UNL     1      -4.910  11.774  17.975  0.00  0.00    +0.000 C 
ATOM     11  C   UNL     1      -2.476  11.131  18.432  0.00  0.00    +0.000 A 
ENDROOT
BRANCH   7  12
ATOM     12  C   UNL     1      -1.833  13.368  21.290  0.00  0.00    +0.000 A 
ATOM     13  C   UNL     1      -1.152  14.577  21.088  0.00  0.00    +0.000 A 
ATOM     14  C   UNL     1      -0.669  15.318  22.171  0.00  0.00    +0.000 A 
ATOM     15  C   UNL     1      -0.857  14.854  23.472  0.00  0.00    +0.000 A 
ATOM     16  C   UNL     1      -1.560  13.675  23.691  0.00  0.00    +0.000 A 
ATOM     17  C   UNL     1      -2.068  12.953  22.608  0.00  0.00    +0.000 A 
ENDBRANCH   7  12
BRANCH   3  18
ATOM     18  C   UNL     1       1.391   9.262  18.508  0.00  0.00    +0.000 C 
ATOM     19  O   UNL     1       2.365   9.723  17.916  0.00  0.00    +0.000 OA
ATOM     20  N   UNL     1       1.432   8.053  19.170  0.00  0.00    +0.000 N 
ATOM     21  H   UNL     1       0.568   7.681  19.558  0.00  0.00    +0.000 HD
BRANCH  20  22
ATOM     22  C   UNL     1       2.603   7.181  19.081  0.00  0.00    +0.000 C 
ATOM     23  C   UNL     1       2.780   6.295  20.325  0.00  0.00    +0.000 C 
ATOM     24  C   UNL     1       1.918   5.034  20.342  0.00  0.00    +0.000 C 
ATOM     25  C   UNL     1       2.001   4.262  19.030  0.00  0.00    +0.000 C 
ATOM     26  C   UNL     1       1.645   5.159  17.852  0.00  0.00    +0.000 C 
ATOM     27  C   UNL     1       2.580   6.363  17.783  0.00  0.00    +0.000 C 
ENDBRANCH  20  22
ENDBRANCH   3  18
BRANCH   1  28
ATOM     28  C   UNL     1      -3.058   9.652  16.478  0.00  0.00    +0.000 C 
BRANCH  28  29
ATOM     29  C   UNL     1      -2.816  10.371  15.142  0.00  0.00    +0.000 C 
BRANCH  29  30
ATOM     30  C   UNL     1      -3.952  10.162  14.137  0.00  0.00    +0.000 C 
BRANCH  30  32
ATOM     31  C   UNL     1      -4.590   9.737  11.753  0.00  0.00    +0.000 C 
ATOM     32  C   UNL     1      -3.453   9.719  12.764  0.00  0.00    +0.000 C 
ENDBRANCH  30  32
ENDBRANCH  29  30
ENDBRANCH  28  29
ENDBRANCH   1  28
TORSDOF 7
ENDMDL
MODEL 4
REMARK VINA RESULT:      -7.0      7.731     10.928
REMARK  Name = 
REMARK  9 active torsions:
REMARK  status: ('A' for Active; 'I' for Inactive)
REMARK    1  A    between atoms: C_1  and  C_2
REMARK    2  A    between atoms: C_2  and  C_3
REMARK    3  A    between atoms: C_3  and  C_4
REMARK    4  A    between atoms: C_4  and  C_5
REMARK    5  A    between atoms: C_5  and  N_6
REMARK    6  A    between atoms: C_8  and  C_9
REMARK    7  A    between atoms: N_11  and  C_12
REMARK    8  A    between atoms: C_21  and  C_22
REMARK    9  A    between atoms: N_29  and  C_30
REMARK                            x       y       z     vdW  Elec       q    Type
REMARK                         _______ _______ _______ _____ _____    ______ ____
ROOT
ATOM      1  N   UNL     1      -3.309  11.373  17.624  0.00  0.00    +0.000 N 
ATOM      2  C   UNL     1      -1.913  11.470  17.750  0.00  0.00    +0.000 A 
ATOM      3  C   UNL     1      -1.239  12.086  18.742  0.00  0.00    +0.000 A 
ATOM      4  C   UNL     1      -2.024  12.737  19.826  0.00  0.00    +0.000 A 
ATOM      5  O   UNL     1      -1.468  13.434  20.672  0.00  0.00    +0.000 OA
ATOM      6  C   UNL     1      -3.453  12.480  19.775  0.00  0.00    +0.000 A 
ATOM      7  C   UNL     1      -4.509  12.751  20.687  0.00  0.00    +0.000 A 
ATOM      8  N   UNL     1      -5.685  12.375  20.151  0.00  0.00    +0.000 NA
ATOM      9  N   UNL     1      -5.385  11.845  18.947  0.00  0.00    +0.000 N 
ATOM     10  C   UNL     1      -6.493  11.361  18.161  0.00  0.00    +0.000 C 
ATOM     11  C   UNL     1      -4.038  11.856  18.683  0.00  0.00    +0.000 A 
ENDROOT
BRANCH   7  12
ATOM     12  C   UNL     1      -4.465  13.354  22.023  0.00  0.00    +0.000 A 
ATOM     13  C   UNL     1      -4.981  14.641  22.233  0.00  0.00    +0.000 A 
ATOM     14  C   UNL     1      -4.896  15.252  23.487  0.00  0.00    +0.000 A 
ATOM     15  C   UNL     1      -4.288  14.584  24.548  0.00  0.00    +0.000 A 
ATOM     16  C   UNL     1      -3.802  13.294  24.367  0.00  0.00    +0.000 A 
ATOM     17  C   UNL     1      -3.917  12.675  23.120  0.00  0.00    +0.000 A 
ENDBRANCH   7  12
BRANCH   3  18
ATOM     18  C   UNL     1       0.252  12.085  18.688  0.00  0.00    +0.000 C 
ATOM     19  O   UNL     1       0.875  11.032  18.566  0.00  0.00    +0.000 OA
ATOM     20  N   UNL     1       0.882  13.307  18.801  0.00  0.00    +0.000 N 
ATOM     21  H   UNL     1       0.316  14.129  18.994  0.00  0.00    +0.000 HD
BRANCH  20  22
ATOM     22  C   UNL     1       2.336  13.400  18.928  0.00  0.00    +0.000 C 
ATOM     23  C   UNL     1       2.952  14.423  17.959  0.00  0.00    +0.000 C 
ATOM     24  C   UNL     1       2.880  15.875  18.429  0.00  0.00    +0.000 C 
ATOM     25  C   UNL     1       3.353  16.040  19.868  0.00  0.00    +0.000 C 
ATOM     26  C   UNL     1       2.578  15.119  20.801  0.00  0.00    +0.000 C 
ATOM     27  C   UNL     1       2.742  13.659  20.385  0.00  0.00    +0.000 C 
ENDBRANCH  20  22
ENDBRANCH   3  18
BRANCH   1  28
ATOM     28  C   UNL     1      -3.894  10.807  16.397  0.00  0.00    +0.000 C 
BRANCH  28  29
ATOM     29  C   UNL     1      -2.932   9.855  15.671  0.00  0.00    +0.000 C 
BRANCH  29  30
ATOM     30  C   UNL     1      -2.948  10.035  14.150  0.00  0.00    +0.000 C 
BRANCH  30  32
ATOM     31  C   UNL     1      -4.243   9.811  12.020  0.00  0.00    +0.000 C 
ATOM     32  C   UNL     1      -4.323   9.784  13.539  0.00  0.00    +0.000 C 
ENDBRANCH  30  32
ENDBRANCH  29  30
ENDBRANCH  28  29
ENDBRANCH   1  28
TORSDOF 7
ENDMDL
MODEL 5
REMARK VINA RESULT:      -7.0      7.028     10.211
REMARK  Name = 
REMARK  9 active torsions:
REMARK  status: ('A' for Active; 'I' for Inactive)
REMARK    1  A    between atoms: C_1  and  C_2
REMARK    2  A    between atoms: C_2  and  C_3
REMARK    3  A    between atoms: C_3  and  C_4
REMARK    4  A    between atoms: C_4  and  C_5
REMARK    5  A    between atoms: C_5  and  N_6
REMARK    6  A    between atoms: C_8  and  C_9
REMARK    7  A    between atoms: N_11  and  C_12
REMARK    8  A    between atoms: C_21  and  C_22
REMARK    9  A    between atoms: N_29  and  C_30
REMARK                            x       y       z     vdW  Elec       q    Type
REMARK                         _______ _______ _______ _____ _____    ______ ____
ROOT
ATOM      1  N   UNL     1      -5.311  12.555  20.299  0.00  0.00    +0.000 N 
ATOM      2  C   UNL     1      -4.994  12.957  21.607  0.00  0.00    +0.000 A 
ATOM      3  C   UNL     1      -3.769  12.954  22.172  0.00  0.00    +0.000 A 
ATOM      4  C   UNL     1      -2.620  12.483  21.352  0.00  0.00    +0.000 A 
ATOM      5  O   UNL     1      -1.512  12.323  21.859  0.00  0.00    +0.000 OA
ATOM      6  C   UNL     1      -2.933  12.237  19.955  0.00  0.00    +0.000 A 
ATOM      7  C   UNL     1      -2.118  11.960  18.824  0.00  0.00    +0.000 A 
ATOM      8  N   UNL     1      -2.892  11.740  17.744  0.00  0.00    +0.000 NA
ATOM      9  N   UNL     1      -4.163  11.908  18.166  0.00  0.00    +0.000 N 
ATOM     10  C   UNL     1      -5.199  11.724  17.181  0.00  0.00    +0.000 C 
ATOM     11  C   UNL     1      -4.242  12.243  19.495  0.00  0.00    +0.000 A 
ENDROOT
BRANCH   7  12
ATOM     12  C   UNL     1      -0.658  11.881  18.714  0.00  0.00    +0.000 A 
ATOM     13  C   UNL     1       0.105  13.054  18.618  0.00  0.00    +0.000 A 
ATOM     14  C   UNL     1       1.492  12.995  18.456  0.00  0.00    +0.000 A 
ATOM     15  C   UNL     1       2.134  11.761  18.382  0.00  0.00    +0.000 A 
ATOM     16  C   UNL     1       1.397  10.589  18.510  0.00  0.00    +0.000 A 
ATOM     17  C   UNL     1       0.014  10.652  18.704  0.00  0.00    +0.000 A 
ENDBRANCH   7  12
BRANCH   3  18
ATOM     18  C   UNL     1      -3.644  13.414  23.585  0.00  0.00    +0.000 C 
ATOM     19  O   UNL     1      -3.990  12.687  24.514  0.00  0.00    +0.000 OA
ATOM     20  N   UNL     1      -3.148  14.686  23.786  0.00  0.00    +0.000 N 
ATOM     21  H   UNL     1      -2.969  15.272  22.974  0.00  0.00    +0.000 HD
BRANCH  20  22
ATOM     22  C   UNL     1      -3.142  15.294  25.116  0.00  0.00    +0.000 C 
ATOM     23  C   UNL     1      -1.732  15.375  25.725  0.00  0.00    +0.000 C 
ATOM     24  C   UNL     1      -0.894  16.560  25.247  0.00  0.00    +0.000 C 
ATOM     25  C   UNL     1      -1.663  17.874  25.316  0.00  0.00    +0.000 C 
ATOM     26  C   UNL     1      -2.972  17.777  24.544  0.00  0.00    +0.000 C 
ATOM     27  C   UNL     1      -3.848  16.656  25.098  0.00  0.00    +0.000 C 
ENDBRANCH  20  22
ENDBRANCH   3  18
BRANCH   1  28
ATOM     28  C   UNL     1      -6.721  12.464  19.884  0.00  0.00    +0.000 C 
BRANCH  28  29
ATOM     29  C   UNL     1      -7.651  12.074  21.043  0.00  0.00    +0.000 C 
BRANCH  29  30
ATOM     30  C   UNL     1      -7.916  10.568  21.115  0.00  0.00    +0.000 C 
BRANCH  30  32
ATOM     31  C   UNL     1      -7.301   8.303  20.243  0.00  0.00    +0.000 C 
ATOM     32  C   UNL     1      -7.275   9.798  19.963  0.00  0.00    +0.000 C 
ENDBRANCH  30  32
ENDBRANCH  29  30
ENDBRANCH  28  29
ENDBRANCH   1  28
TORSDOF 7
ENDMDL
MODEL 6
REMARK VINA RESULT:      -6.9      2.070      7.494
REMARK  Name = 
REMARK  9 active torsions:
REMARK  status: ('A' for Active; 'I' for Inactive)
REMARK    1  A    between atoms: C_1  and  C_2
REMARK    2  A    between atoms: C_2  and  C_3
REMARK    3  A    between atoms: C_3  and  C_4
REMARK    4  A    between atoms: C_4  and  C_5
REMARK    5  A    between atoms: C_5  and  N_6
REMARK    6  A    between atoms: C_8  and  C_9
REMARK    7  A    between atoms: N_11  and  C_12
REMARK    8  A    between atoms: C_21  and  C_22
REMARK    9  A    between atoms: N_29  and  C_30
REMARK                            x       y       z     vdW  Elec       q    Type
REMARK                         _______ _______ _______ _____ _____    ______ ____
ROOT
ATOM      1  N   UNL     1       1.520   7.399  20.269  0.00  0.00    +0.000 N 
ATOM      2  C   UNL     1       2.444   7.223  19.226  0.00  0.00    +0.000 A 
ATOM      3  C   UNL     1       2.786   8.135  18.294  0.00  0.00    +0.000 A 
ATOM      4  C   UNL     1       2.134   9.473  18.350  0.00  0.00    +0.000 A 
ATOM      5  O   UNL     1       2.298  10.288  17.445  0.00  0.00    +0.000 OA
ATOM      6  C   UNL     1       1.317   9.698  19.529  0.00  0.00    +0.000 A 
ATOM      7  C   UNL     1       0.684  10.860  20.049  0.00  0.00    +0.000 A 
ATOM      8  N   UNL     1      -0.025  10.543  21.148  0.00  0.00    +0.000 NA
ATOM      9  N   UNL     1       0.178   9.223  21.345  0.00  0.00    +0.000 N 
ATOM     10  C   UNL     1      -0.487   8.631  22.479  0.00  0.00    +0.000 C 
ATOM     11  C   UNL     1       1.012   8.668  20.406  0.00  0.00    +0.000 A 
ENDROOT
BRANCH   7  12
ATOM     12  C   UNL     1       0.706  12.242  19.558  0.00  0.00    +0.000 A 
ATOM     13  C   UNL     1       1.871  13.014  19.681  0.00  0.00    +0.000 A 
ATOM     14  C   UNL     1       1.892  14.350  19.270  0.00  0.00    +0.000 A 
ATOM     15  C   UNL     1       0.745  14.933  18.735  0.00  0.00    +0.000 A 
ATOM     16  C   UNL     1      -0.408  14.172  18.574  0.00  0.00    +0.000 A 
ATOM     17  C   UNL     1      -0.416  12.828  18.957  0.00  0.00    +0.000 A 
ENDBRANCH   7  12
BRANCH   3  18
ATOM     18  C   UNL     1       3.787   7.746  17.260  0.00  0.00    +0.000 C 
ATOM     19  O   UNL     1       3.502   7.784  16.064  0.00  0.00    +0.000 OA
ATOM     20  N   UNL     1       5.022   7.327  17.712  0.00  0.00    +0.000 N 
ATOM     21  H   UNL     1       5.163   7.227  18.714  0.00  0.00    +0.000 HD
BRANCH  20  22
ATOM     22  C   UNL     1       6.013   6.766  16.795  0.00  0.00    +0.000 C 
ATOM     23  C   UNL     1       7.457   6.987  17.275  0.00  0.00    +0.000 C 
ATOM     24  C   UNL     1       7.946   5.985  18.319  0.00  0.00    +0.000 C 
ATOM     25  C   UNL     1       7.654   4.545  17.917  0.00  0.00    +0.000 C 
ATOM     26  C   UNL     1       6.171   4.356  17.623  0.00  0.00    +0.000 C 
ATOM     27  C   UNL     1       5.716   5.289  16.504  0.00  0.00    +0.000 C 
ENDBRANCH  20  22
ENDBRANCH   3  18
BRANCH   1  28
ATOM     28  C   UNL     1       1.135   6.251  21.107  0.00  0.00    +0.000 C 
BRANCH  28  29
ATOM     29  C   UNL     1       1.842   4.954  20.687  0.00  0.00    +0.000 C 
BRANCH  29  30
ATOM     30  C   UNL     1       0.866   3.860  20.243  0.00  0.00    +0.000 C 
BRANCH  30  32
ATOM     31  C   UNL     1       1.570   4.070  17.849  0.00  0.00    +0.000 C 
ATOM     32  C   UNL     1       1.346   3.106  19.005  0.00  0.00    +0.000 C 
ENDBRANCH  30  32
ENDBRANCH  29  30
ENDBRANCH  28  29
ENDBRANCH   1  28
TORSDOF 7
ENDMDL
MODEL 7
REMARK VINA RESULT:      -6.9      3.913     10.282
REMARK  Name = 
REMARK  9 active torsions:
REMARK  status: ('A' for Active; 'I' for Inactive)
REMARK    1  A    between atoms: C_1  and  C_2
REMARK    2  A    between atoms: C_2  and  C_3
REMARK    3  A    between atoms: C_3  and  C_4
REMARK    4  A    between atoms: C_4  and  C_5
REMARK    5  A    between atoms: C_5  and  N_6
REMARK    6  A    between atoms: C_8  and  C_9
REMARK    7  A    between atoms: N_11  and  C_12
REMARK    8  A    between atoms: C_21  and  C_22
REMARK    9  A    between atoms: N_29  and  C_30
REMARK                            x       y       z     vdW  Elec       q    Type
REMARK                         _______ _______ _______ _____ _____    ______ ____
ROOT
ATOM      1  N   UNL     1      -2.617  10.364  17.481  0.00  0.00    +0.000 N 
ATOM      2  C   UNL     1      -1.305   9.955  17.774  0.00  0.00    +0.000 A 
ATOM      3  C   UNL     1      -0.515  10.438  18.754  0.00  0.00    +0.000 A 
ATOM      4  C   UNL     1      -1.059  11.513  19.628  0.00  0.00    +0.000 A 
ATOM      5  O   UNL     1      -0.336  12.088  20.438  0.00  0.00    +0.000 OA
ATOM      6  C   UNL     1      -2.468  11.801  19.426  0.00  0.00    +0.000 A 
ATOM      7  C   UNL     1      -3.396  12.601  20.148  0.00  0.00    +0.000 A 
ATOM      8  N   UNL     1      -4.586  12.603  19.518  0.00  0.00    +0.000 NA
ATOM      9  N   UNL     1      -4.432  11.798  18.446  0.00  0.00    +0.000 N 
ATOM     10  C   UNL     1      -5.584  11.633  17.594  0.00  0.00    +0.000 C 
ATOM     11  C   UNL     1      -3.172  11.260  18.361  0.00  0.00    +0.000 A 
ENDROOT
BRANCH   7  12
ATOM     12  C   UNL     1      -3.214  13.366  21.385  0.00  0.00    +0.000 A 
ATOM     13  C   UNL     1      -3.159  12.704  22.621  0.00  0.00    +0.000 A 
ATOM     14  C   UNL     1      -3.043  13.423  23.814  0.00  0.00    +0.000 A 
ATOM     15  C   UNL     1      -2.985  14.815  23.787  0.00  0.00    +0.000 A 
ATOM     16  C   UNL     1      -3.003  15.485  22.569  0.00  0.00    +0.000 A 
ATOM     17  C   UNL     1      -3.088  14.762  21.376  0.00  0.00    +0.000 A 
ENDBRANCH   7  12
BRANCH   3  18
ATOM     18  C   UNL     1       0.858   9.872  18.895  0.00  0.00    +0.000 C 
ATOM     19  O   UNL     1       1.844  10.526  18.559  0.00  0.00    +0.000 OA
ATOM     20  N   UNL     1       0.957   8.590  19.394  0.00  0.00    +0.000 N 
ATOM     21  H   UNL     1       0.101   8.067  19.563  0.00  0.00    +0.000 HD
BRANCH  20  22
ATOM     22  C   UNL     1       2.237   7.883  19.415  0.00  0.00    +0.000 C 
ATOM     23  C   UNL     1       2.369   6.930  20.614  0.00  0.00    +0.000 C 
ATOM     24  C   UNL     1       1.692   5.572  20.432  0.00  0.00    +0.000 C 
ATOM     25  C   UNL     1       2.048   4.925  19.099  0.00  0.00    +0.000 C 
ATOM     26  C   UNL     1       1.729   5.860  17.941  0.00  0.00    +0.000 C 
ATOM     27  C   UNL     1       2.493   7.175  18.077  0.00  0.00    +0.000 C 
ENDBRANCH  20  22
ENDBRANCH   3  18
BRANCH   1  28
ATOM     28  C   UNL     1      -3.290   9.853  16.275  0.00  0.00    +0.000 C 
BRANCH  28  29
ATOM     29  C   UNL     1      -2.954  10.674  15.021  0.00  0.00    +0.000 C 
BRANCH  29  30
ATOM     30  C   UNL     1      -3.044   9.856  13.730  0.00  0.00    +0.000 C 
BRANCH  30  32
ATOM     31  C   UNL     1      -4.458   9.771  11.664  0.00  0.00    +0.000 C 
ATOM     32  C   UNL     1      -4.468   9.763  13.186  0.00  0.00    +0.000 C 
ENDBRANCH  30  32
ENDBRANCH  29  30
ENDBRANCH  28  29
ENDBRANCH   1  28
TORSDOF 7
ENDMDL
MODEL 8
REMARK VINA RESULT:      -6.9      8.164     11.545
REMARK  Name = 
REMARK  9 active torsions:
REMARK  status: ('A' for Active; 'I' for Inactive)
REMARK    1  A    between atoms: C_1  and  C_2
REMARK    2  A    between atoms: C_2  and  C_3
REMARK    3  A    between atoms: C_3  and  C_4
REMARK    4  A    between atoms: C_4  and  C_5
REMARK    5  A    between atoms: C_5  and  N_6
REMARK    6  A    between atoms: C_8  and  C_9
REMARK    7  A    between atoms: N_11  and  C_12
REMARK    8  A    between atoms: C_21  and  C_22
REMARK    9  A    between atoms: N_29  and  C_30
REMARK                            x       y       z     vdW  Elec       q    Type
REMARK                         _______ _______ _______ _____ _____    ______ ____
ROOT
ATOM      1  N   UNL     1       4.708  15.977  19.842  0.00  0.00    +0.000 N 
ATOM      2  C   UNL     1       5.891  15.702  19.137  0.00  0.00    +0.000 A 
ATOM      3  C   UNL     1       6.994  15.098  19.625  0.00  0.00    +0.000 A 
ATOM      4  C   UNL     1       6.987  14.670  21.050  0.00  0.00    +0.000 A 
ATOM      5  O   UNL     1       8.010  14.249  21.584  0.00  0.00    +0.000 OA
ATOM      6  C   UNL     1       5.702  14.803  21.715  0.00  0.00    +0.000 A 
ATOM      7  C   UNL     1       5.226  14.358  22.979  0.00  0.00    +0.000 A 
ATOM      8  N   UNL     1       3.965  14.790  23.171  0.00  0.00    +0.000 NA
ATOM      9  N   UNL     1       3.634  15.460  22.048  0.00  0.00    +0.000 N 
ATOM     10  C   UNL     1       2.311  16.032  22.005  0.00  0.00    +0.000 C 
ATOM     11  C   UNL     1       4.643  15.471  21.118  0.00  0.00    +0.000 A 
ENDROOT
BRANCH   7  12
ATOM     12  C   UNL     1       5.899  13.561  24.009  0.00  0.00    +0.000 A 
ATOM     13  C   UNL     1       6.170  12.204  23.784  0.00  0.00    +0.000 A 
ATOM     14  C   UNL     1       6.760  11.416  24.777  0.00  0.00    +0.000 A 
ATOM     15  C   UNL     1       7.081  11.977  26.012  0.00  0.00    +0.000 A 
ATOM     16  C   UNL     1       6.850  13.329  26.240  0.00  0.00    +0.000 A 
ATOM     17  C   UNL     1       6.289  14.120  25.234  0.00  0.00    +0.000 A 
ENDBRANCH   7  12
BRANCH   3  18
ATOM     18  C   UNL     1       8.155  14.905  18.709  0.00  0.00    +0.000 C 
ATOM     19  O   UNL     1       8.318  15.641  17.738  0.00  0.00    +0.000 OA
ATOM     20  N   UNL     1       9.010  13.860  18.995  0.00  0.00    +0.000 N 
ATOM     21  H   UNL     1       8.768  13.230  19.757  0.00  0.00    +0.000 HD
BRANCH  20  22
ATOM     22  C   UNL     1      10.078  13.482  18.072  0.00  0.00    +0.000 C 
ATOM     23  C   UNL     1      11.450  14.033  18.494  0.00  0.00    +0.000 C 
ATOM     24  C   UNL     1      12.169  13.213  19.564  0.00  0.00    +0.000 C 
ATOM     25  C   UNL     1      12.187  11.725  19.235  0.00  0.00    +0.000 C 
ATOM     26  C   UNL     1      10.775  11.207  18.998  0.00  0.00    +0.000 C 
ATOM     27  C   UNL     1      10.102  11.963  17.855  0.00  0.00    +0.000 C 
ENDBRANCH  20  22
ENDBRANCH   3  18
BRANCH   1  28
ATOM     28  C   UNL     1       3.654  16.789  19.212  0.00  0.00    +0.000 C 
BRANCH  28  29
ATOM     29  C   UNL     1       2.984  16.071  18.032  0.00  0.00    +0.000 C 
BRANCH  29  30
ATOM     30  C   UNL     1       1.883  15.101  18.470  0.00  0.00    +0.000 C 
BRANCH  30  32
ATOM     31  C   UNL     1       2.116  12.993  19.800  0.00  0.00    +0.000 C 
ATOM     32  C   UNL     1       2.333  13.643  18.442  0.00  0.00    +0.000 C 
ENDBRANCH  30  32
ENDBRANCH  29  30
ENDBRANCH  28  29
ENDBRANCH   1  28
TORSDOF 7
ENDMDL
MODEL 9
REMARK VINA RESULT:      -6.7      8.010     10.644
REMARK  Name = 
REMARK  9 active torsions:
REMARK  status: ('A' for Active; 'I' for Inactive)
REMARK    1  A    between atoms: C_1  and  C_2
REMARK    2  A    between atoms: C_2  and  C_3
REMARK    3  A    between atoms: C_3  and  C_4
REMARK    4  A    between atoms: C_4  and  C_5
REMARK    5  A    between atoms: C_5  and  N_6
REMARK    6  A    between atoms: C_8  and  C_9
REMARK    7  A    between atoms: N_11  and  C_12
REMARK    8  A    between atoms: C_21  and  C_22
REMARK    9  A    between atoms: N_29  and  C_30
REMARK                            x       y       z     vdW  Elec       q    Type
REMARK                         _______ _______ _______ _____ _____    ______ ____
ROOT
ATOM      1  N   UNL     1      -3.290  13.884  22.125  0.00  0.00    +0.000 N 
ATOM      2  C   UNL     1      -1.944  14.276  22.027  0.00  0.00    +0.000 A 
ATOM      3  C   UNL     1      -1.052  13.856  21.107  0.00  0.00    +0.000 A 
ATOM      4  C   UNL     1      -1.509  12.881  20.080  0.00  0.00    +0.000 A 
ATOM      5  O   UNL     1      -0.707  12.357  19.311  0.00  0.00    +0.000 OA
ATOM      6  C   UNL     1      -2.938  12.620  20.087  0.00  0.00    +0.000 A 
ATOM      7  C   UNL     1      -3.789  11.917  19.191  0.00  0.00    +0.000 A 
ATOM      8  N   UNL     1      -5.046  11.898  19.673  0.00  0.00    +0.000 NA
ATOM      9  N   UNL     1      -5.006  12.599  20.825  0.00  0.00    +0.000 N 
ATOM     10  C   UNL     1      -6.248  12.725  21.547  0.00  0.00    +0.000 C 
ATOM     11  C   UNL     1      -3.754  13.087  21.107  0.00  0.00    +0.000 A 
ENDROOT
BRANCH   7  12
ATOM     12  C   UNL     1      -3.476  11.259  17.919  0.00  0.00    +0.000 A 
ATOM     13  C   UNL     1      -4.168  11.616  16.752  0.00  0.00    +0.000 A 
ATOM     14  C   UNL     1      -3.921  10.959  15.543  0.00  0.00    +0.000 A 
ATOM     15  C   UNL     1      -2.982   9.931  15.487  0.00  0.00    +0.000 A 
ATOM     16  C   UNL     1      -2.263   9.588  16.626  0.00  0.00    +0.000 A 
ATOM     17  C   UNL     1      -2.490  10.268  17.826  0.00  0.00    +0.000 A 
ENDBRANCH   7  12
BRANCH   3  18
ATOM     18  C   UNL     1       0.339  14.388  21.181  0.00  0.00    +0.000 C 
ATOM     19  O   UNL     1       1.000  14.275  22.212  0.00  0.00    +0.000 OA
ATOM     20  N   UNL     1       0.827  15.021  20.056  0.00  0.00    +0.000 N 
ATOM     21  H   UNL     1       0.198  15.166  19.270  0.00  0.00    +0.000 HD
BRANCH  20  22
ATOM     22  C   UNL     1       2.110  15.722  20.079  0.00  0.00    +0.000 C 
ATOM     23  C   UNL     1       3.235  14.922  19.403  0.00  0.00    +0.000 C 
ATOM     24  C   UNL     1       3.273  15.030  17.879  0.00  0.00    +0.000 C 
ATOM     25  C   UNL     1       3.182  16.474  17.401  0.00  0.00    +0.000 C 
ATOM     26  C   UNL     1       1.947  17.156  17.972  0.00  0.00    +0.000 C 
ATOM     27  C   UNL     1       1.971  17.136  19.498  0.00  0.00    +0.000 C 
ENDBRANCH  20  22
ENDBRANCH   3  18
BRANCH   1  28
ATOM     28  C   UNL     1      -4.092  14.308  23.285  0.00  0.00    +0.000 C 
BRANCH  28  29
ATOM     29  C   UNL     1      -3.334  14.152  24.612  0.00  0.00    +0.000 C 
BRANCH  29  30
ATOM     30  C   UNL     1      -3.011  15.493  25.276  0.00  0.00    +0.000 C 
BRANCH  30  32
ATOM     31  C   UNL     1      -0.898  16.789  25.630  0.00  0.00    +0.000 C 
ATOM     32  C   UNL     1      -1.644  15.504  25.955  0.00  0.00    +0.000 C 
ENDBRANCH  30  32
ENDBRANCH  29  30
ENDBRANCH  28  29
ENDBRANCH   1  28
TORSDOF 7
ENDMDL
