MODEL 1
REMARK VINA RESULT:      -8.6      0.000      0.000
REMARK  Name = 
REMARK  5 active torsions:
REMARK  status: ('A' for Active; 'I' for Inactive)
REMARK    1  A    between atoms: C_1  and  C_2
REMARK    2  A    between atoms: C_6  and  C_7
REMARK    3  A    between atoms: C_11  and  C_12
REMARK    4  A    between atoms: C_11  and  C_13
REMARK    5  A    between atoms: C_19  and  C_20
REMARK                            x       y       z     vdW  Elec       q    Type
REMARK                         _______ _______ _______ _____ _____    ______ ____
ROOT
ATOM      1  C   UNL     1       1.721  16.060  20.666  0.00  0.00    +0.000 C 
ATOM      2  C   UNL     1       0.757  14.931  20.648  0.00  0.00    +0.000 C 
ATOM      3  N   UNL     1       0.702  13.974  21.512  0.00  0.00    +0.000 NA
ATOM      4  C   UNL     1      -0.462  13.179  21.020  0.00  0.00    +0.000 C 
ATOM      5  C   UNL     1      -1.715  13.604  21.791  0.00  0.00    +0.000 C 
ATOM      6  C   UNL     1      -1.507  13.345  23.270  0.00  0.00    +0.000 C 
ATOM      7  O   UNL     1      -1.469  11.936  23.501  0.00  0.00    +0.000 OA
ATOM      8  C   UNL     1      -0.722  11.217  22.582  0.00  0.00    +0.000 A 
ATOM      9  C   UNL     1      -0.450   9.899  22.941  0.00  0.00    +0.000 A 
ATOM     10  C   UNL     1       0.263   9.064  22.076  0.00  0.00    +0.000 A 
ATOM     11  C   UNL     1       0.699   9.501  20.808  0.00  0.00    +0.000 A 
ATOM     12  C   UNL     1       0.404  10.840  20.460  0.00  0.00    +0.000 A 
ATOM     13  C   UNL     1      -0.277  11.711  21.336  0.00  0.00    +0.000 A 
ATOM     14  N   UNL     1      -0.799  13.600  19.625  0.00  0.00    +0.000 NA
ATOM     15  C   UNL     1      -0.295  14.795  19.599  0.00  0.00    +0.000 C 
ATOM     16  N   UNL     1      -0.733  15.828  18.823  0.00  0.00    +0.000 N 
ATOM     17  H   UNL     1      -1.690  15.669  18.515  0.00  0.00    +0.000 HD
ATOM     18  H   UNL     1      -0.648  16.747  19.250  0.00  0.00    +0.000 HD
ENDROOT
BRANCH   6  19
ATOM     19  C   UNL     1      -2.623  14.120  24.020  0.00  0.00    +0.000 C 
ATOM     20  C   UNL     1      -2.917  15.530  23.499  0.00  0.00    +0.000 C 
ATOM     21  C   UNL     1      -4.001  15.558  22.443  0.00  0.00    +0.000 C 
ATOM     22  O   UNL     1      -5.187  14.926  22.907  0.00  0.00    +0.000 OA
ATOM     23  C   UNL     1      -5.049  13.547  23.264  0.00  0.00    +0.000 C 
ATOM     24  C   UNL     1      -6.371  13.178  23.959  0.00  0.00    +0.000 C 
ATOM     25  C   UNL     1      -4.895  12.662  22.022  0.00  0.00    +0.000 C 
ATOM     26  C   UNL     1      -3.912  13.337  24.274  0.00  0.00    +0.000 C 
ENDBRANCH   6  19
BRANCH  11  27
ATOM     27  C   UNL     1       1.477   8.595  19.919  0.00  0.00    +0.000 A 
ATOM     28  C   UNL     1       1.771   8.939  18.582  0.00  0.00    +0.000 A 
ATOM     29  C   UNL     1       2.441   8.059  17.718  0.00  0.00    +0.000 A 
ATOM     30  C   UNL     1       2.852   6.809  18.178  0.00  0.00    +0.000 A 
ATOM     31  C   UNL     1       2.596   6.457  19.497  0.00  0.00    +0.000 A 
ATOM     32 CL   UNL     1       3.109   4.916  20.076  0.00  0.00    +0.000 Cl
ATOM     33  C   UNL     1       1.918   7.330  20.357  0.00  0.00    +0.000 A 
ENDBRANCH  11  27
TORSDOF 2
ENDMDL
MODEL 2
REMARK VINA RESULT:      -8.4      1.277      1.983
REMARK  Name = 
REMARK  5 active torsions:
REMARK  status: ('A' for Active; 'I' for Inactive)
REMARK    1  A    between atoms: C_1  and  C_2
REMARK    2  A    between atoms: C_6  and  C_7
REMARK    3  A    between atoms: C_11  and  C_12
REMARK    4  A    between atoms: C_11  and  C_13
REMARK    5  A    between atoms: C_19  and  C_20
REMARK                            x       y       z     vdW  Elec       q    Type
REMARK                         _______ _______ _______ _____ _____    ______ ____
ROOT
ATOM      1  C   UNL     1       1.577  16.133  20.802  0.00  0.00    +0.000 C 
ATOM      2  C   UNL     1       0.595  15.020  20.774  0.00  0.00    +0.000 C 
ATOM      3  N   UNL     1       0.493  14.083  21.656  0.00  0.00    +0.000 NA
ATOM      4  C   UNL     1      -0.666  13.297  21.141  0.00  0.00    +0.000 C 
ATOM      5  C   UNL     1      -1.938  13.759  21.858  0.00  0.00    +0.000 C 
ATOM      6  C   UNL     1      -1.786  13.530  23.349  0.00  0.00    +0.000 C 
ATOM      7  O   UNL     1      -1.781  12.127  23.611  0.00  0.00    +0.000 OA
ATOM      8  C   UNL     1      -1.014  11.374  22.735  0.00  0.00    +0.000 A 
ATOM      9  C   UNL     1      -0.777  10.061  23.131  0.00  0.00    +0.000 A 
ATOM     10  C   UNL     1      -0.049   9.195  22.311  0.00  0.00    +0.000 A 
ATOM     11  C   UNL     1       0.438   9.597  21.050  0.00  0.00    +0.000 A 
ATOM     12  C   UNL     1       0.179  10.932  20.662  0.00  0.00    +0.000 A 
ATOM     13  C   UNL     1      -0.517  11.833  21.495  0.00  0.00    +0.000 A 
ATOM     14  N   UNL     1      -0.946  13.693  19.726  0.00  0.00    +0.000 NA
ATOM     15  C   UNL     1      -0.421  14.878  19.692  0.00  0.00    +0.000 C 
ATOM     16  N   UNL     1      -0.814  15.901  18.879  0.00  0.00    +0.000 N 
ATOM     17  H   UNL     1      -1.763  15.751  18.540  0.00  0.00    +0.000 HD
ATOM     18  H   UNL     1      -0.728  16.827  19.289  0.00  0.00    +0.000 HD
ENDROOT
BRANCH   6  19
ATOM     19  C   UNL     1      -2.914  14.340  24.042  0.00  0.00    +0.000 C 
ATOM     20  C   UNL     1      -2.659  14.712  25.506  0.00  0.00    +0.000 C 
ATOM     21  C   UNL     1      -1.984  16.058  25.667  0.00  0.00    +0.000 C 
ATOM     22  O   UNL     1      -2.710  17.081  24.997  0.00  0.00    +0.000 OA
ATOM     23  C   UNL     1      -2.858  16.904  23.584  0.00  0.00    +0.000 C 
ATOM     24  C   UNL     1      -3.873  17.976  23.150  0.00  0.00    +0.000 C 
ATOM     25  C   UNL     1      -1.539  17.162  22.848  0.00  0.00    +0.000 C 
ATOM     26  C   UNL     1      -3.455  15.529  23.247  0.00  0.00    +0.000 C 
ENDBRANCH   6  19
BRANCH  11  27
ATOM     27  C   UNL     1       1.231   8.659  20.208  0.00  0.00    +0.000 A 
ATOM     28  C   UNL     1       1.605   8.982  18.886  0.00  0.00    +0.000 A 
ATOM     29  C   UNL     1       2.289   8.073  18.064  0.00  0.00    +0.000 A 
ATOM     30  C   UNL     1       2.635   6.814  18.553  0.00  0.00    +0.000 A 
ATOM     31  C   UNL     1       2.300   6.481  19.859  0.00  0.00    +0.000 A 
ATOM     32 CL   UNL     1       2.732   4.931  20.475  0.00  0.00    +0.000 Cl
ATOM     33  C   UNL     1       1.607   7.383  20.677  0.00  0.00    +0.000 A 
ENDBRANCH  11  27
TORSDOF 2
ENDMDL
MODEL 3
REMARK VINA RESULT:      -8.2      1.765      2.514
REMARK  Name = 
REMARK  5 active torsions:
REMARK  status: ('A' for Active; 'I' for Inactive)
REMARK    1  A    between atoms: C_1  and  C_2
REMARK    2  A    between atoms: C_6  and  C_7
REMARK    3  A    between atoms: C_11  and  C_12
REMARK    4  A    between atoms: C_11  and  C_13
REMARK    5  A    between atoms: C_19  and  C_20
REMARK                            x       y       z     vdW  Elec       q    Type
REMARK                         _______ _______ _______ _____ _____    ______ ____
ROOT
ATOM      1  C   UNL     1       3.062  15.427  20.953  0.00  0.00    +0.000 C 
ATOM      2  C   UNL     1       1.902  14.514  20.798  0.00  0.00    +0.000 C 
ATOM      3  N   UNL     1       1.521  13.628  21.656  0.00  0.00    +0.000 NA
ATOM      4  C   UNL     1       0.308  13.059  20.997  0.00  0.00    +0.000 C 
ATOM      5  C   UNL     1      -0.934  13.761  21.552  0.00  0.00    +0.000 C 
ATOM      6  C   UNL     1      -1.012  13.535  23.049  0.00  0.00    +0.000 C 
ATOM      7  O   UNL     1      -1.299  12.160  23.304  0.00  0.00    +0.000 OA
ATOM      8  C   UNL     1      -0.583  11.264  22.527  0.00  0.00    +0.000 A 
ATOM      9  C   UNL     1      -0.644   9.937  22.943  0.00  0.00    +0.000 A 
ATOM     10  C   UNL     1       0.007   8.936  22.216  0.00  0.00    +0.000 A 
ATOM     11  C   UNL     1       0.712   9.218  21.027  0.00  0.00    +0.000 A 
ATOM     12  C   UNL     1       0.754  10.571  20.616  0.00  0.00    +0.000 A 
ATOM     13  C   UNL     1       0.139  11.600  21.360  0.00  0.00    +0.000 A 
ATOM     14  N   UNL     1       0.283  13.474  19.560  0.00  0.00    +0.000 NA
ATOM     15  C   UNL     1       1.018  14.541  19.598  0.00  0.00    +0.000 C 
ATOM     16  N   UNL     1       0.924  15.604  18.746  0.00  0.00    +0.000 N 
ATOM     17  H   UNL     1       0.013  15.625  18.292  0.00  0.00    +0.000 HD
ATOM     18  H   UNL     1       1.129  16.506  19.168  0.00  0.00    +0.000 HD
ENDROOT
BRANCH   6  19
ATOM     19  C   UNL     1      -2.048  14.552  23.601  0.00  0.00    +0.000 C 
ATOM     20  C   UNL     1      -2.043  14.745  25.120  0.00  0.00    +0.000 C 
ATOM     21  C   UNL     1      -1.129  15.864  25.573  0.00  0.00    +0.000 C 
ATOM     22  O   UNL     1      -1.433  17.080  24.903  0.00  0.00    +0.000 OA
ATOM     23  C   UNL     1      -1.303  17.045  23.478  0.00  0.00    +0.000 C 
ATOM     24  C   UNL     1      -1.922  18.366  22.986  0.00  0.00    +0.000 C 
ATOM     25  C   UNL     1       0.169  17.015  23.052  0.00  0.00    +0.000 C 
ATOM     26  C   UNL     1      -2.111  15.892  22.866  0.00  0.00    +0.000 C 
ENDBRANCH   6  19
BRANCH  11  27
ATOM     27  C   UNL     1       1.415   8.134  20.286  0.00  0.00    +0.000 A 
ATOM     28  C   UNL     1       1.941   8.339  18.993  0.00  0.00    +0.000 A 
ATOM     29  C   UNL     1       2.541   7.302  18.261  0.00  0.00    +0.000 A 
ATOM     30  C   UNL     1       2.644   6.027  18.816  0.00  0.00    +0.000 A 
ATOM     31  C   UNL     1       2.156   5.807  20.097  0.00  0.00    +0.000 A 
ATOM     32 CL   UNL     1       2.289   4.236  20.794  0.00  0.00    +0.000 Cl
ATOM     33  C   UNL     1       1.547   6.838  20.824  0.00  0.00    +0.000 A 
ENDBRANCH  11  27
TORSDOF 2
ENDMDL
MODEL 4
REMARK VINA RESULT:      -8.2      2.022      2.825
REMARK  Name = 
REMARK  5 active torsions:
REMARK  status: ('A' for Active; 'I' for Inactive)
REMARK    1  A    between atoms: C_1  and  C_2
REMARK    2  A    between atoms: C_6  and  C_7
REMARK    3  A    between atoms: C_11  and  C_12
REMARK    4  A    between atoms: C_11  and  C_13
REMARK    5  A    between atoms: C_19  and  C_20
REMARK                            x       y       z     vdW  Elec       q    Type
REMARK                         _______ _______ _______ _____ _____    ______ ____
ROOT
ATOM      1  C   UNL     1       3.718  14.496  20.730  0.00  0.00    +0.000 C 
ATOM      2  C   UNL     1       2.539  13.638  20.454  0.00  0.00    +0.000 C 
ATOM      3  N   UNL     1       1.991  12.820  21.289  0.00  0.00    +0.000 NA
ATOM      4  C   UNL     1       0.849  12.281  20.492  0.00  0.00    +0.000 C 
ATOM      5  C   UNL     1      -0.414  13.075  20.835  0.00  0.00    +0.000 C 
ATOM      6  C   UNL     1      -0.711  12.932  22.315  0.00  0.00    +0.000 C 
ATOM      7  O   UNL     1      -1.111  11.590  22.588  0.00  0.00    +0.000 OA
ATOM      8  C   UNL     1      -0.348  10.617  21.960  0.00  0.00    +0.000 A 
ATOM      9  C   UNL     1      -0.545   9.319  22.422  0.00  0.00    +0.000 A 
ATOM     10  C   UNL     1       0.140   8.249  21.839  0.00  0.00    +0.000 A 
ATOM     11  C   UNL     1       1.018   8.431  20.749  0.00  0.00    +0.000 A 
ATOM     12  C   UNL     1       1.196   9.757  20.289  0.00  0.00    +0.000 A 
ATOM     13  C   UNL     1       0.546  10.854  20.892  0.00  0.00    +0.000 A 
ATOM     14  N   UNL     1       1.047  12.621  19.048  0.00  0.00    +0.000 NA
ATOM     15  C   UNL     1       1.832  13.649  19.142  0.00  0.00    +0.000 C 
ATOM     16  N   UNL     1       1.919  14.669  18.239  0.00  0.00    +0.000 N 
ATOM     17  H   UNL     1       1.083  14.714  17.661  0.00  0.00    +0.000 HD
ATOM     18  H   UNL     1       2.117  15.580  18.645  0.00  0.00    +0.000 HD
ENDROOT
BRANCH   6  19
ATOM     19  C   UNL     1      -1.751  14.029  22.670  0.00  0.00    +0.000 C 
ATOM     20  C   UNL     1      -1.956  14.289  24.165  0.00  0.00    +0.000 C 
ATOM     21  C   UNL     1      -1.051  15.373  24.709  0.00  0.00    +0.000 C 
ATOM     22  O   UNL     1      -1.177  16.574  23.959  0.00  0.00    +0.000 OA
ATOM     23  C   UNL     1      -0.842  16.469  22.571  0.00  0.00    +0.000 C 
ATOM     24  C   UNL     1      -1.299  17.799  21.946  0.00  0.00    +0.000 C 
ATOM     25  C   UNL     1       0.672  16.337  22.370  0.00  0.00    +0.000 C 
ATOM     26  C   UNL     1      -1.622  15.337  21.886  0.00  0.00    +0.000 C 
ENDBRANCH   6  19
BRANCH  11  27
ATOM     27  C   UNL     1       1.751   7.275  20.163  0.00  0.00    +0.000 A 
ATOM     28  C   UNL     1       2.451   7.381  18.943  0.00  0.00    +0.000 A 
ATOM     29  C   UNL     1       3.083   6.277  18.350  0.00  0.00    +0.000 A 
ATOM     30  C   UNL     1       3.045   5.032  18.977  0.00  0.00    +0.000 A 
ATOM     31  C   UNL     1       2.382   4.908  20.192  0.00  0.00    +0.000 A 
ATOM     32 CL   UNL     1       2.338   3.375  20.978  0.00  0.00    +0.000 Cl
ATOM     33  C   UNL     1       1.742   6.007  20.778  0.00  0.00    +0.000 A 
ENDBRANCH  11  27
TORSDOF 2
ENDMDL
MODEL 5
REMARK VINA RESULT:      -8.1      2.080      2.948
REMARK  Name = 
REMARK  5 active torsions:
REMARK  status: ('A' for Active; 'I' for Inactive)
REMARK    1  A    between atoms: C_1  and  C_2
REMARK    2  A    between atoms: C_6  and  C_7
REMARK    3  A    between atoms: C_11  and  C_12
REMARK    4  A    between atoms: C_11  and  C_13
REMARK    5  A    between atoms: C_19  and  C_20
REMARK                            x       y       z     vdW  Elec       q    Type
REMARK                         _______ _______ _______ _____ _____    ______ ____
ROOT
ATOM      1  C   UNL     1       3.606  14.524  20.664  0.00  0.00    +0.000 C 
ATOM      2  C   UNL     1       2.425  13.652  20.445  0.00  0.00    +0.000 C 
ATOM      3  N   UNL     1       1.915  12.843  21.312  0.00  0.00    +0.000 NA
ATOM      4  C   UNL     1       0.750  12.282  20.565  0.00  0.00    +0.000 C 
ATOM      5  C   UNL     1      -0.507  13.071  20.941  0.00  0.00    +0.000 C 
ATOM      6  C   UNL     1      -0.749  12.950  22.433  0.00  0.00    +0.000 C 
ATOM      7  O   UNL     1      -1.127  11.608  22.741  0.00  0.00    +0.000 OA
ATOM      8  C   UNL     1      -0.379  10.632  22.101  0.00  0.00    +0.000 A 
ATOM      9  C   UNL     1      -0.547   9.340  22.591  0.00  0.00    +0.000 A 
ATOM     10  C   UNL     1       0.126   8.266  22.001  0.00  0.00    +0.000 A 
ATOM     11  C   UNL     1       0.962   8.438  20.878  0.00  0.00    +0.000 A 
ATOM     12  C   UNL     1       1.111   9.758  20.390  0.00  0.00    +0.000 A 
ATOM     13  C   UNL     1       0.474  10.859  20.999  0.00  0.00    +0.000 A 
ATOM     14  N   UNL     1       0.893  12.600  19.110  0.00  0.00    +0.000 NA
ATOM     15  C   UNL     1       1.671  13.635  19.159  0.00  0.00    +0.000 C 
ATOM     16  N   UNL     1       1.717  14.642  18.237  0.00  0.00    +0.000 N 
ATOM     17  H   UNL     1       0.860  14.670  17.689  0.00  0.00    +0.000 HD
ATOM     18  H   UNL     1       1.920  15.561  18.621  0.00  0.00    +0.000 HD
ENDROOT
BRANCH   6  19
ATOM     19  C   UNL     1      -1.785  14.043  22.807  0.00  0.00    +0.000 C 
ATOM     20  C   UNL     1      -1.928  14.337  24.303  0.00  0.00    +0.000 C 
ATOM     21  C   UNL     1      -1.012  15.444  24.781  0.00  0.00    +0.000 C 
ATOM     22  O   UNL     1      -1.186  16.625  24.009  0.00  0.00    +0.000 OA
ATOM     23  C   UNL     1      -0.912  16.490  22.610  0.00  0.00    +0.000 C 
ATOM     24  C   UNL     1      -1.411  17.799  21.975  0.00  0.00    +0.000 C 
ATOM     25  C   UNL     1       0.594  16.369  22.346  0.00  0.00    +0.000 C 
ATOM     26  C   UNL     1      -1.707  15.333  21.988  0.00  0.00    +0.000 C 
ENDBRANCH   6  19
BRANCH  11  27
ATOM     27  C   UNL     1       1.684   7.279  20.284  0.00  0.00    +0.000 A 
ATOM     28  C   UNL     1       1.639   5.996  20.871  0.00  0.00    +0.000 A 
ATOM     29  C   UNL     1       2.376   4.917  20.357  0.00  0.00    +0.000 A 
ATOM     30  C   UNL     1       3.169   5.092  19.224  0.00  0.00    +0.000 A 
ATOM     31  C   UNL     1       3.211   6.339  18.614  0.00  0.00    +0.000 A 
ATOM     32 CL   UNL     1       4.182   6.561  17.208  0.00  0.00    +0.000 Cl
ATOM     33  C   UNL     1       2.485   7.419  19.133  0.00  0.00    +0.000 A 
ENDBRANCH  11  27
TORSDOF 2
ENDMDL
MODEL 6
REMARK VINA RESULT:      -8.1      1.967      2.515
REMARK  Name = 
REMARK  5 active torsions:
REMARK  status: ('A' for Active; 'I' for Inactive)
REMARK    1  A    between atoms: C_1  and  C_2
REMARK    2  A    between atoms: C_6  and  C_7
REMARK    3  A    between atoms: C_11  and  C_12
REMARK    4  A    between atoms: C_11  and  C_13
REMARK    5  A    between atoms: C_19  and  C_20
REMARK                            x       y       z     vdW  Elec       q    Type
REMARK                         _______ _______ _______ _____ _____    ______ ____
ROOT
ATOM      1  C   UNL     1       1.997  14.496  18.574  0.00  0.00    +0.000 C 
ATOM      2  C   UNL     1       1.071  13.438  19.050  0.00  0.00    +0.000 C 
ATOM      3  N   UNL     1       1.173  12.792  20.163  0.00  0.00    +0.000 NA
ATOM      4  C   UNL     1      -0.031  11.910  20.122  0.00  0.00    +0.000 C 
ATOM      5  C   UNL     1      -1.162  12.577  20.907  0.00  0.00    +0.000 C 
ATOM      6  C   UNL     1      -0.725  12.779  22.345  0.00  0.00    +0.000 C 
ATOM      7  O   UNL     1      -0.616  11.508  22.987  0.00  0.00    +0.000 OA
ATOM      8  C   UNL     1       0.002  10.526  22.229  0.00  0.00    +0.000 A 
ATOM      9  C   UNL     1       0.360   9.376  22.927  0.00  0.00    +0.000 A 
ATOM     10  C   UNL     1       0.955   8.300  22.261  0.00  0.00    +0.000 A 
ATOM     11  C   UNL     1       1.181   8.319  20.869  0.00  0.00    +0.000 A 
ATOM     12  C   UNL     1       0.801   9.494  20.177  0.00  0.00    +0.000 A 
ATOM     13  C   UNL     1       0.239  10.605  20.839  0.00  0.00    +0.000 A 
ATOM     14  N   UNL     1      -0.587  11.892  18.733  0.00  0.00    +0.000 NA
ATOM     15  C   UNL     1      -0.124  13.010  18.267  0.00  0.00    +0.000 C 
ATOM     16  N   UNL     1      -0.702  13.765  17.288  0.00  0.00    +0.000 N 
ATOM     17  H   UNL     1      -1.691  13.541  17.193  0.00  0.00    +0.000 HD
ATOM     18  H   UNL     1      -0.577  14.769  17.396  0.00  0.00    +0.000 HD
ENDROOT
BRANCH   6  19
ATOM     19  C   UNL     1      -1.734  13.771  22.984  0.00  0.00    +0.000 C 
ATOM     20  C   UNL     1      -1.206  14.581  24.171  0.00  0.00    +0.000 C 
ATOM     21  C   UNL     1      -0.599  15.906  23.763  0.00  0.00    +0.000 C 
ATOM     22  O   UNL     1      -1.510  16.672  22.986  0.00  0.00    +0.000 OA
ATOM     23  C   UNL     1      -1.936  16.063  21.762  0.00  0.00    +0.000 C 
ATOM     24  C   UNL     1      -3.084  16.951  21.251  0.00  0.00    +0.000 C 
ATOM     25  C   UNL     1      -0.817  16.071  20.715  0.00  0.00    +0.000 C 
ATOM     26  C   UNL     1      -2.502  14.655  22.000  0.00  0.00    +0.000 C 
ENDBRANCH   6  19
BRANCH  11  27
ATOM     27  C   UNL     1       1.838   7.168  20.191  0.00  0.00    +0.000 A 
ATOM     28  C   UNL     1       2.538   7.323  18.975  0.00  0.00    +0.000 A 
ATOM     29  C   UNL     1       3.097   6.230  18.295  0.00  0.00    +0.000 A 
ATOM     30  C   UNL     1       2.984   4.946  18.826  0.00  0.00    +0.000 A 
ATOM     31  C   UNL     1       2.321   4.771  20.034  0.00  0.00    +0.000 A 
ATOM     32 CL   UNL     1       2.185   3.188  20.703  0.00  0.00    +0.000 Cl
ATOM     33  C   UNL     1       1.753   5.860  20.708  0.00  0.00    +0.000 A 
ENDBRANCH  11  27
TORSDOF 2
ENDMDL
MODEL 7
REMARK VINA RESULT:      -8.0      1.480      1.824
REMARK  Name = 
REMARK  5 active torsions:
REMARK  status: ('A' for Active; 'I' for Inactive)
REMARK    1  A    between atoms: C_1  and  C_2
REMARK    2  A    between atoms: C_6  and  C_7
REMARK    3  A    between atoms: C_11  and  C_12
REMARK    4  A    between atoms: C_11  and  C_13
REMARK    5  A    between atoms: C_19  and  C_20
REMARK                            x       y       z     vdW  Elec       q    Type
REMARK                         _______ _______ _______ _____ _____    ______ ____
ROOT
ATOM      1  C   UNL     1       3.822  14.766  20.713  0.00  0.00    +0.000 C 
ATOM      2  C   UNL     1       2.585  13.966  20.527  0.00  0.00    +0.000 C 
ATOM      3  N   UNL     1       2.051  13.189  21.409  0.00  0.00    +0.000 NA
ATOM      4  C   UNL     1       0.835  12.698  20.695  0.00  0.00    +0.000 C 
ATOM      5  C   UNL     1      -0.362  13.561  21.102  0.00  0.00    +0.000 C 
ATOM      6  C   UNL     1      -0.571  13.456  22.600  0.00  0.00    +0.000 C 
ATOM      7  O   UNL     1      -1.020  12.140  22.921  0.00  0.00    +0.000 OA
ATOM      8  C   UNL     1      -0.349  11.120  22.264  0.00  0.00    +0.000 A 
ATOM      9  C   UNL     1      -0.581   9.841  22.761  0.00  0.00    +0.000 A 
ATOM     10  C   UNL     1       0.011   8.728  22.156  0.00  0.00    +0.000 A 
ATOM     11  C   UNL     1       0.825   8.849  21.011  0.00  0.00    +0.000 A 
ATOM     12  C   UNL     1       1.040  10.157  20.516  0.00  0.00    +0.000 A 
ATOM     13  C   UNL     1       0.487  11.295  21.139  0.00  0.00    +0.000 A 
ATOM     14  N   UNL     1       0.958  13.006  19.236  0.00  0.00    +0.000 NA
ATOM     15  C   UNL     1       1.798  13.993  19.261  0.00  0.00    +0.000 C 
ATOM     16  N   UNL     1       1.879  14.994  18.336  0.00  0.00    +0.000 N 
ATOM     17  H   UNL     1       1.011  15.073  17.811  0.00  0.00    +0.000 HD
ATOM     18  H   UNL     1       2.148  15.900  18.713  0.00  0.00    +0.000 HD
ENDROOT
BRANCH   6  19
ATOM     19  C   UNL     1      -1.530  14.610  22.999  0.00  0.00    +0.000 C 
ATOM     20  C   UNL     1      -1.764  15.678  21.927  0.00  0.00    +0.000 C 
ATOM     21  C   UNL     1      -2.954  15.378  21.040  0.00  0.00    +0.000 C 
ATOM     22  O   UNL     1      -4.128  15.160  21.811  0.00  0.00    +0.000 OA
ATOM     23  C   UNL     1      -4.064  14.067  22.733  0.00  0.00    +0.000 C 
ATOM     24  C   UNL     1      -5.325  14.201  23.604  0.00  0.00    +0.000 C 
ATOM     25  C   UNL     1      -4.121  12.719  22.005  0.00  0.00    +0.000 C 
ATOM     26  C   UNL     1      -2.842  14.179  23.656  0.00  0.00    +0.000 C 
ENDBRANCH   6  19
BRANCH  11  27
ATOM     27  C   UNL     1       1.461   7.648  20.401  0.00  0.00    +0.000 A 
ATOM     28  C   UNL     1       1.312   6.363  20.964  0.00  0.00    +0.000 A 
ATOM     29  C   UNL     1       1.968   5.239  20.435  0.00  0.00    +0.000 A 
ATOM     30  C   UNL     1       2.782   5.372  19.311  0.00  0.00    +0.000 A 
ATOM     31  C   UNL     1       2.924   6.623  18.725  0.00  0.00    +0.000 A 
ATOM     32 CL   UNL     1       3.921   6.794  17.329  0.00  0.00    +0.000 Cl
ATOM     33  C   UNL     1       2.280   7.746  19.258  0.00  0.00    +0.000 A 
ENDBRANCH  11  27
TORSDOF 2
ENDMDL
MODEL 8
REMARK VINA RESULT:      -8.0      0.940      1.286
REMARK  Name = 
REMARK  5 active torsions:
REMARK  status: ('A' for Active; 'I' for Inactive)
REMARK    1  A    between atoms: C_1  and  C_2
REMARK    2  A    between atoms: C_6  and  C_7
REMARK    3  A    between atoms: C_11  and  C_12
REMARK    4  A    between atoms: C_11  and  C_13
REMARK    5  A    between atoms: C_19  and  C_20
REMARK                            x       y       z     vdW  Elec       q    Type
REMARK                         _______ _______ _______ _____ _____    ______ ____
ROOT
ATOM      1  C   UNL     1       2.164  15.439  20.422  0.00  0.00    +0.000 C 
ATOM      2  C   UNL     1       1.110  14.396  20.486  0.00  0.00    +0.000 C 
ATOM      3  N   UNL     1       0.953  13.542  21.441  0.00  0.00    +0.000 NA
ATOM      4  C   UNL     1      -0.260  12.795  20.993  0.00  0.00    +0.000 C 
ATOM      5  C   UNL     1      -1.492  13.397  21.673  0.00  0.00    +0.000 C 
ATOM      6  C   UNL     1      -1.345  13.279  23.177  0.00  0.00    +0.000 C 
ATOM      7  O   UNL     1      -1.431  11.904  23.552  0.00  0.00    +0.000 OA
ATOM      8  C   UNL     1      -0.722  11.034  22.738  0.00  0.00    +0.000 A 
ATOM      9  C   UNL     1      -0.570   9.744  23.239  0.00  0.00    +0.000 A 
ATOM     10  C   UNL     1       0.094   8.768  22.490  0.00  0.00    +0.000 A 
ATOM     11  C   UNL     1       0.598   9.034  21.199  0.00  0.00    +0.000 A 
ATOM     12  C   UNL     1       0.424  10.349  20.706  0.00  0.00    +0.000 A 
ATOM     13  C   UNL     1      -0.205  11.358  21.464  0.00  0.00    +0.000 A 
ATOM     14  N   UNL     1      -0.523  13.093  19.551  0.00  0.00    +0.000 NA
ATOM     15  C   UNL     1       0.078  14.234  19.421  0.00  0.00    +0.000 C 
ATOM     16  N   UNL     1      -0.252  15.213  18.528  0.00  0.00    +0.000 N 
ATOM     17  H   UNL     1      -1.211  15.099  18.205  0.00  0.00    +0.000 HD
ATOM     18  H   UNL     1      -0.102  16.161  18.862  0.00  0.00    +0.000 HD
ENDROOT
BRANCH   6  19
ATOM     19  C   UNL     1      -2.413  14.215  23.805  0.00  0.00    +0.000 C 
ATOM     20  C   UNL     1      -2.596  15.569  23.115  0.00  0.00    +0.000 C 
ATOM     21  C   UNL     1      -3.660  15.548  22.038  0.00  0.00    +0.000 C 
ATOM     22  O   UNL     1      -4.896  15.061  22.546  0.00  0.00    +0.000 OA
ATOM     23  C   UNL     1      -4.863  13.728  23.066  0.00  0.00    +0.000 C 
ATOM     24  C   UNL     1      -6.218  13.540  23.771  0.00  0.00    +0.000 C 
ATOM     25  C   UNL     1      -4.756  12.692  21.941  0.00  0.00    +0.000 C 
ATOM     26  C   UNL     1      -3.759  13.560  24.120  0.00  0.00    +0.000 C 
ENDBRANCH   6  19
BRANCH  11  27
ATOM     27  C   UNL     1       1.321   7.981  20.435  0.00  0.00    +0.000 A 
ATOM     28  C   UNL     1       1.406   6.651  20.900  0.00  0.00    +0.000 A 
ATOM     29  C   UNL     1       2.147   5.672  20.220  0.00  0.00    +0.000 A 
ATOM     30  C   UNL     1       2.813   5.997  19.039  0.00  0.00    +0.000 A 
ATOM     31  C   UNL     1       2.724   7.293  18.548  0.00  0.00    +0.000 A 
ATOM     32 CL   UNL     1       3.538   7.700  17.083  0.00  0.00    +0.000 Cl
ATOM     33  C   UNL     1       1.995   8.274  19.231  0.00  0.00    +0.000 A 
ENDBRANCH  11  27
TORSDOF 2
ENDMDL
MODEL 9
REMARK VINA RESULT:      -7.9      1.663      2.068
REMARK  Name = 
REMARK  5 active torsions:
REMARK  status: ('A' for Active; 'I' for Inactive)
REMARK    1  A    between atoms: C_1  and  C_2
REMARK    2  A    between atoms: C_6  and  C_7
REMARK    3  A    between atoms: C_11  and  C_12
REMARK    4  A    between atoms: C_11  and  C_13
REMARK    5  A    between atoms: C_19  and  C_20
REMARK                            x       y       z     vdW  Elec       q    Type
REMARK                         _______ _______ _______ _____ _____    ______ ____
ROOT
ATOM      1  C   UNL     1       4.263  14.529  20.411  0.00  0.00    +0.000 C 
ATOM      2  C   UNL     1       3.025  13.762  20.124  0.00  0.00    +0.000 C 
ATOM      3  N   UNL     1       2.366  13.050  20.975  0.00  0.00    +0.000 NA
ATOM      4  C   UNL     1       1.220  12.563  20.151  0.00  0.00    +0.000 C 
ATOM      5  C   UNL     1       0.019  13.484  20.378  0.00  0.00    +0.000 C 
ATOM      6  C   UNL     1      -0.361  13.463  21.846  0.00  0.00    +0.000 C 
ATOM      7  O   UNL     1      -0.894  12.180  22.177  0.00  0.00    +0.000 OA
ATOM      8  C   UNL     1      -0.193  11.107  21.649  0.00  0.00    +0.000 A 
ATOM      9  C   UNL     1      -0.528   9.863  22.176  0.00  0.00    +0.000 A 
ATOM     10  C   UNL     1       0.085   8.702  21.696  0.00  0.00    +0.000 A 
ATOM     11  C   UNL     1       1.026   8.737  20.646  0.00  0.00    +0.000 A 
ATOM     12  C   UNL     1       1.346  10.010  20.118  0.00  0.00    +0.000 A 
ATOM     13  C   UNL     1       0.770  11.196  20.619  0.00  0.00    +0.000 A 
ATOM     14  N   UNL     1       1.517  12.791  18.703  0.00  0.00    +0.000 NA
ATOM     15  C   UNL     1       2.386  13.750  18.777  0.00  0.00    +0.000 C 
ATOM     16  N   UNL     1       2.608  14.699  17.821  0.00  0.00    +0.000 N 
ATOM     17  H   UNL     1       1.808  14.779  17.197  0.00  0.00    +0.000 HD
ATOM     18  H   UNL     1       2.868  15.613  18.182  0.00  0.00    +0.000 HD
ENDROOT
BRANCH   6  19
ATOM     19  C   UNL     1      -1.313  14.667  22.079  0.00  0.00    +0.000 C 
ATOM     20  C   UNL     1      -2.330  14.933  20.965  0.00  0.00    +0.000 C 
ATOM     21  C   UNL     1      -3.646  14.216  21.178  0.00  0.00    +0.000 C 
ATOM     22  O   UNL     1      -4.195  14.518  22.455  0.00  0.00    +0.000 OA
ATOM     23  C   UNL     1      -3.382  14.150  23.575  0.00  0.00    +0.000 C 
ATOM     24  C   UNL     1      -4.061  14.800  24.794  0.00  0.00    +0.000 C 
ATOM     25  C   UNL     1      -3.372  12.631  23.782  0.00  0.00    +0.000 C 
ATOM     26  C   UNL     1      -1.966  14.733  23.460  0.00  0.00    +0.000 C 
ENDBRANCH   6  19
BRANCH  11  27
ATOM     27  C   UNL     1       1.680   7.486  20.170  0.00  0.00    +0.000 A 
ATOM     28  C   UNL     1       2.451   7.454  18.989  0.00  0.00    +0.000 A 
ATOM     29  C   UNL     1       3.009   6.263  18.497  0.00  0.00    +0.000 A 
ATOM     30  C   UNL     1       2.821   5.068  19.190  0.00  0.00    +0.000 A 
ATOM     31  C   UNL     1       2.086   5.078  20.368  0.00  0.00    +0.000 A 
ATOM     32 CL   UNL     1       1.858   3.606  21.236  0.00  0.00    +0.000 Cl
ATOM     33  C   UNL     1       1.520   6.264  20.854  0.00  0.00    +0.000 A 
ENDBRANCH  11  27
TORSDOF 2
ENDMDL
