MODEL 1
REMARK VINA RESULT:      -4.8      0.000      0.000
REMARK  Name = 
REMARK  2 active torsions:
REMARK  status: ('A' for Active; 'I' for Inactive)
REMARK    1  A    between atoms: C_1  and  N_2
REMARK    2  A    between atoms: N_14  and  C_15
REMARK                            x       y       z     vdW  Elec       q    Type
REMARK                         _______ _______ _______ _____ _____    ______ ____
ROOT
ATOM      1  C   UNL     1      11.990  11.688  19.161  0.00  0.00    +0.000 C 
ATOM      2  N   UNL     1      10.580  11.742  18.773  0.00  0.00    +0.000 N 
ATOM      3  C   UNL     1       9.719  10.789  19.519  0.00  0.00    +0.000 C 
ATOM      4  C   UNL     1       9.519  11.182  20.992  0.00  0.00    +0.000 C 
ATOM      5  O   UNL     1       8.508  12.178  21.134  0.00  0.00    +0.000 OA
ATOM      6  C   UNL     1       8.303  12.531  22.509  0.00  0.00    +0.000 C 
ATOM      7  C   UNL     1       7.558  13.860  22.594  0.00  0.00    +0.000 C 
ATOM      8  O   UNL     1       8.409  14.921  22.133  0.00  0.00    +0.000 OA
ATOM      9  C   UNL     1       7.851  15.588  20.992  0.00  0.00    +0.000 C 
ATOM     10  C   UNL     1       8.833  16.635  20.462  0.00  0.00    +0.000 C 
ATOM     11  O   UNL     1       9.174  16.371  19.095  0.00  0.00    +0.000 OA
ATOM     12  C   UNL     1      10.444  15.728  18.972  0.00  0.00    +0.000 C 
ATOM     13  C   UNL     1      10.627  15.178  17.547  0.00  0.00    +0.000 C 
ATOM     14  N   UNL     1      10.968  13.740  17.541  0.00  0.00    +0.000 N 
ATOM     15  C   UNL     1      12.112  13.364  16.723  0.00  0.00    +0.000 C 
ATOM     16  C   UNL     1      10.043  12.777  17.978  0.00  0.00    +0.000 C 
ATOM     17  S   UNL     1       8.407  12.901  17.567  0.00  0.00    +0.000 S 
ENDROOT
TORSDOF 0
ENDMDL
MODEL 2
REMARK VINA RESULT:      -4.6     13.876     15.736
REMARK  Name = 
REMARK  2 active torsions:
REMARK  status: ('A' for Active; 'I' for Inactive)
REMARK    1  A    between atoms: C_1  and  N_2
REMARK    2  A    between atoms: N_14  and  C_15
REMARK                            x       y       z     vdW  Elec       q    Type
REMARK                         _______ _______ _______ _____ _____    ______ ____
ROOT
ATOM      1  C   UNL     1      -4.311  12.517  23.763  0.00  0.00    +0.000 C 
ATOM      2  N   UNL     1      -4.480  13.504  22.696  0.00  0.00    +0.000 N 
ATOM      3  C   UNL     1      -3.199  13.984  22.117  0.00  0.00    +0.000 C 
ATOM      4  C   UNL     1      -2.485  12.918  21.270  0.00  0.00    +0.000 C 
ATOM      5  O   UNL     1      -3.031  12.845  19.954  0.00  0.00    +0.000 OA
ATOM      6  C   UNL     1      -2.352  11.868  19.153  0.00  0.00    +0.000 C 
ATOM      7  C   UNL     1      -3.205  11.514  17.939  0.00  0.00    +0.000 C 
ATOM      8  O   UNL     1      -4.375  10.797  18.364  0.00  0.00    +0.000 OA
ATOM      9  C   UNL     1      -5.578  11.494  18.015  0.00  0.00    +0.000 C 
ATOM     10  C   UNL     1      -6.796  10.760  18.579  0.00  0.00    +0.000 C 
ATOM     11  O   UNL     1      -7.547  11.610  19.454  0.00  0.00    +0.000 OA
ATOM     12  C   UNL     1      -7.273  11.345  20.831  0.00  0.00    +0.000 C 
ATOM     13  C   UNL     1      -7.839  12.470  21.714  0.00  0.00    +0.000 C 
ATOM     14  N   UNL     1      -6.814  13.048  22.608  0.00  0.00    +0.000 N 
ATOM     15  C   UNL     1      -7.189  13.166  24.009  0.00  0.00    +0.000 C 
ATOM     16  C   UNL     1      -5.726  13.770  22.088  0.00  0.00    +0.000 C 
ATOM     17  S   UNL     1      -5.941  14.857  20.811  0.00  0.00    +0.000 S 
ENDROOT
TORSDOF 0
ENDMDL
MODEL 3
REMARK VINA RESULT:      -4.6     10.934     12.232
REMARK  Name = 
REMARK  2 active torsions:
REMARK  status: ('A' for Active; 'I' for Inactive)
REMARK    1  A    between atoms: C_1  and  N_2
REMARK    2  A    between atoms: N_14  and  C_15
REMARK                            x       y       z     vdW  Elec       q    Type
REMARK                         _______ _______ _______ _____ _____    ______ ____
ROOT
ATOM      1  C   UNL     1      -2.353   9.557  17.783  0.00  0.00    +0.000 C 
ATOM      2  N   UNL     1      -2.132  10.999  17.899  0.00  0.00    +0.000 N 
ATOM      3  C   UNL     1      -3.331  11.814  17.574  0.00  0.00    +0.000 C 
ATOM      4  C   UNL     1      -4.436  11.711  18.638  0.00  0.00    +0.000 C 
ATOM      5  O   UNL     1      -4.176  12.570  19.747  0.00  0.00    +0.000 OA
ATOM      6  C   UNL     1      -5.217  12.493  20.730  0.00  0.00    +0.000 C 
ATOM      7  C   UNL     1      -4.718  13.067  22.054  0.00  0.00    +0.000 C 
ATOM      8  O   UNL     1      -3.714  12.201  22.607  0.00  0.00    +0.000 OA
ATOM      9  C   UNL     1      -2.456  12.874  22.751  0.00  0.00    +0.000 C 
ATOM     10  C   UNL     1      -1.386  11.894  23.237  0.00  0.00    +0.000 C 
ATOM     11  O   UNL     1      -0.296  11.826  22.310  0.00  0.00    +0.000 OA
ATOM     12  C   UNL     1      -0.374  10.673  21.469  0.00  0.00    +0.000 C 
ATOM     13  C   UNL     1       0.612  10.800  20.296  0.00  0.00    +0.000 C 
ATOM     14  N   UNL     1      -0.050  10.620  18.987  0.00  0.00    +0.000 N 
ATOM     15  C   UNL     1       0.591   9.683  18.076  0.00  0.00    +0.000 C 
ATOM     16  C   UNL     1      -0.992  11.553  18.520  0.00  0.00    +0.000 C 
ATOM     17  S   UNL     1      -0.741  13.213  18.726  0.00  0.00    +0.000 S 
ENDROOT
TORSDOF 0
ENDMDL
MODEL 4
REMARK VINA RESULT:      -4.5     11.502     12.962
REMARK  Name = 
REMARK  2 active torsions:
REMARK  status: ('A' for Active; 'I' for Inactive)
REMARK    1  A    between atoms: C_1  and  N_2
REMARK    2  A    between atoms: N_14  and  C_15
REMARK                            x       y       z     vdW  Elec       q    Type
REMARK                         _______ _______ _______ _____ _____    ______ ____
ROOT
ATOM      1  C   UNL     1      -1.130  10.080  19.134  0.00  0.00    +0.000 C 
ATOM      2  N   UNL     1      -1.417  11.514  19.084  0.00  0.00    +0.000 N 
ATOM      3  C   UNL     1      -2.376  11.894  18.015  0.00  0.00    +0.000 C 
ATOM      4  C   UNL     1      -3.813  11.428  18.301  0.00  0.00    +0.000 C 
ATOM      5  O   UNL     1      -4.483  12.318  19.192  0.00  0.00    +0.000 OA
ATOM      6  C   UNL     1      -5.831  11.899  19.442  0.00  0.00    +0.000 C 
ATOM      7  C   UNL     1      -6.363  12.597  20.691  0.00  0.00    +0.000 C 
ATOM      8  O   UNL     1      -5.672  12.104  21.850  0.00  0.00    +0.000 OA
ATOM      9  C   UNL     1      -4.967  13.152  22.530  0.00  0.00    +0.000 C 
ATOM     10  C   UNL     1      -4.156  12.573  23.691  0.00  0.00    +0.000 C 
ATOM     11  O   UNL     1      -2.762  12.871  23.540  0.00  0.00    +0.000 OA
ATOM     12  C   UNL     1      -2.026  11.761  23.022  0.00  0.00    +0.000 C 
ATOM     13  C   UNL     1      -0.625  12.211  22.577  0.00  0.00    +0.000 C 
ATOM     14  N   UNL     1      -0.334  11.832  21.179  0.00  0.00    +0.000 N 
ATOM     15  C   UNL     1       0.939  11.162  20.955  0.00  0.00    +0.000 C 
ATOM     16  C   UNL     1      -1.045  12.407  20.111  0.00  0.00    +0.000 C 
ATOM     17  S   UNL     1      -1.419  14.056  20.111  0.00  0.00    +0.000 S 
ENDROOT
TORSDOF 0
ENDMDL
MODEL 5
REMARK VINA RESULT:      -4.5      2.137      5.199
REMARK  Name = 
REMARK  2 active torsions:
REMARK  status: ('A' for Active; 'I' for Inactive)
REMARK    1  A    between atoms: C_1  and  N_2
REMARK    2  A    between atoms: N_14  and  C_15
REMARK                            x       y       z     vdW  Elec       q    Type
REMARK                         _______ _______ _______ _____ _____    ______ ____
ROOT
ATOM      1  C   UNL     1      10.360  17.380  19.476  0.00  0.00    +0.000 C 
ATOM      2  N   UNL     1       9.479  16.541  18.663  0.00  0.00    +0.000 N 
ATOM      3  C   UNL     1       9.997  16.282  17.295  0.00  0.00    +0.000 C 
ATOM      4  C   UNL     1      11.214  15.341  17.280  0.00  0.00    +0.000 C 
ATOM      5  O   UNL     1      10.817  13.974  17.368  0.00  0.00    +0.000 OA
ATOM      6  C   UNL     1      11.948  13.092  17.331  0.00  0.00    +0.000 C 
ATOM      7  C   UNL     1      11.543  11.715  17.849  0.00  0.00    +0.000 C 
ATOM      8  O   UNL     1      11.265  11.791  19.255  0.00  0.00    +0.000 OA
ATOM      9  C   UNL     1       9.910  11.423  19.546  0.00  0.00    +0.000 C 
ATOM     10  C   UNL     1       9.618  11.622  21.035  0.00  0.00    +0.000 C 
ATOM     11  O   UNL     1       8.531  12.536  21.226  0.00  0.00    +0.000 OA
ATOM     12  C   UNL     1       8.984  13.848  21.568  0.00  0.00    +0.000 C 
ATOM     13  C   UNL     1       7.831  14.858  21.449  0.00  0.00    +0.000 C 
ATOM     14  N   UNL     1       8.176  16.002  20.580  0.00  0.00    +0.000 N 
ATOM     15  C   UNL     1       7.904  17.321  21.130  0.00  0.00    +0.000 C 
ATOM     16  C   UNL     1       8.390  15.823  19.202  0.00  0.00    +0.000 C 
ATOM     17  S   UNL     1       7.395  14.796  18.299  0.00  0.00    +0.000 S 
ENDROOT
TORSDOF 0
ENDMDL
MODEL 6
REMARK VINA RESULT:      -4.5      2.202      3.950
REMARK  Name = 
REMARK  2 active torsions:
REMARK  status: ('A' for Active; 'I' for Inactive)
REMARK    1  A    between atoms: C_1  and  N_2
REMARK    2  A    between atoms: N_14  and  C_15
REMARK                            x       y       z     vdW  Elec       q    Type
REMARK                         _______ _______ _______ _____ _____    ______ ____
ROOT
ATOM      1  C   UNL     1       7.825  12.651  17.181  0.00  0.00    +0.000 C 
ATOM      2  N   UNL     1       8.352  13.790  17.933  0.00  0.00    +0.000 N 
ATOM      3  C   UNL     1       7.497  15.002  17.857  0.00  0.00    +0.000 C 
ATOM      4  C   UNL     1       6.179  14.860  18.637  0.00  0.00    +0.000 C 
ATOM      5  O   UNL     1       6.367  15.103  20.030  0.00  0.00    +0.000 OA
ATOM      6  C   UNL     1       5.136  14.994  20.757  0.00  0.00    +0.000 C 
ATOM      7  C   UNL     1       5.430  14.832  22.246  0.00  0.00    +0.000 C 
ATOM      8  O   UNL     1       6.035  13.551  22.481  0.00  0.00    +0.000 OA
ATOM      9  C   UNL     1       7.346  13.683  23.046  0.00  0.00    +0.000 C 
ATOM     10  C   UNL     1       8.003  12.307  23.180  0.00  0.00    +0.000 C 
ATOM     11  O   UNL     1       9.233  12.253  22.446  0.00  0.00    +0.000 OA
ATOM     12  C   UNL     1       9.082  11.594  21.187  0.00  0.00    +0.000 C 
ATOM     13  C   UNL     1      10.318  11.837  20.306  0.00  0.00    +0.000 C 
ATOM     14  N   UNL     1       9.963  12.388  18.982  0.00  0.00    +0.000 N 
ATOM     15  C   UNL     1      10.557  11.715  17.836  0.00  0.00    +0.000 C 
ATOM     16  C   UNL     1       9.410  13.674  18.859  0.00  0.00    +0.000 C 
ATOM     17  S   UNL     1       9.997  14.959  19.790  0.00  0.00    +0.000 S 
ENDROOT
TORSDOF 0
ENDMDL
MODEL 7
REMARK VINA RESULT:      -4.4      2.430      4.351
REMARK  Name = 
REMARK  2 active torsions:
REMARK  status: ('A' for Active; 'I' for Inactive)
REMARK    1  A    between atoms: C_1  and  N_2
REMARK    2  A    between atoms: N_14  and  C_15
REMARK                            x       y       z     vdW  Elec       q    Type
REMARK                         _______ _______ _______ _____ _____    ______ ____
ROOT
ATOM      1  C   UNL     1       8.223  16.835  18.786  0.00  0.00    +0.000 C 
ATOM      2  N   UNL     1       9.348  16.568  19.683  0.00  0.00    +0.000 N 
ATOM      3  C   UNL     1       8.938  16.225  21.069  0.00  0.00    +0.000 C 
ATOM      4  C   UNL     1       8.283  14.837  21.177  0.00  0.00    +0.000 C 
ATOM      5  O   UNL     1       9.263  13.801  21.229  0.00  0.00    +0.000 OA
ATOM      6  C   UNL     1       8.656  12.507  21.354  0.00  0.00    +0.000 C 
ATOM      7  C   UNL     1       9.667  11.427  20.980  0.00  0.00    +0.000 C 
ATOM      8  O   UNL     1       9.949  11.495  19.573  0.00  0.00    +0.000 OA
ATOM      9  C   UNL     1      11.336  11.764  19.325  0.00  0.00    +0.000 C 
ATOM     10  C   UNL     1      11.578  11.940  17.825  0.00  0.00    +0.000 C 
ATOM     11  O   UNL     1      12.138  13.229  17.544  0.00  0.00    +0.000 OA
ATOM     12  C   UNL     1      11.156  14.151  17.068  0.00  0.00    +0.000 C 
ATOM     13  C   UNL     1      11.715  15.583  17.087  0.00  0.00    +0.000 C 
ATOM     14  N   UNL     1      10.846  16.515  17.834  0.00  0.00    +0.000 N 
ATOM     15  C   UNL     1      10.514  17.758  17.153  0.00  0.00    +0.000 C 
ATOM     16  C   UNL     1      10.669  16.383  19.222  0.00  0.00    +0.000 C 
ATOM     17  S   UNL     1      11.977  16.010  20.228  0.00  0.00    +0.000 S 
ENDROOT
TORSDOF 0
ENDMDL
MODEL 8
REMARK VINA RESULT:      -4.4      2.662      4.596
REMARK  Name = 
REMARK  2 active torsions:
REMARK  status: ('A' for Active; 'I' for Inactive)
REMARK    1  A    between atoms: C_1  and  N_2
REMARK    2  A    between atoms: N_14  and  C_15
REMARK                            x       y       z     vdW  Elec       q    Type
REMARK                         _______ _______ _______ _____ _____    ______ ____
ROOT
ATOM      1  C   UNL     1       7.566  16.519  19.352  0.00  0.00    +0.000 C 
ATOM      2  N   UNL     1       8.770  16.244  20.137  0.00  0.00    +0.000 N 
ATOM      3  C   UNL     1       8.547  15.293  21.256  0.00  0.00    +0.000 C 
ATOM      4  C   UNL     1       8.303  13.850  20.782  0.00  0.00    +0.000 C 
ATOM      5  O   UNL     1       9.529  13.184  20.483  0.00  0.00    +0.000 OA
ATOM      6  C   UNL     1       9.307  11.831  20.062  0.00  0.00    +0.000 C 
ATOM      7  C   UNL     1      10.551  11.300  19.357  0.00  0.00    +0.000 C 
ATOM      8  O   UNL     1      10.724  11.982  18.105  0.00  0.00    +0.000 OA
ATOM      9  C   UNL     1      11.968  12.693  18.058  0.00  0.00    +0.000 C 
ATOM     10  C   UNL     1      12.068  13.496  16.759  0.00  0.00    +0.000 C 
ATOM     11  O   UNL     1      12.239  14.892  17.031  0.00  0.00    +0.000 OA
ATOM     12  C   UNL     1      11.017  15.621  16.896  0.00  0.00    +0.000 C 
ATOM     13  C   UNL     1      11.165  17.027  17.499  0.00  0.00    +0.000 C 
ATOM     14  N   UNL     1      10.118  17.321  18.499  0.00  0.00    +0.000 N 
ATOM     15  C   UNL     1       9.423  18.589  18.334  0.00  0.00    +0.000 C 
ATOM     16  C   UNL     1      10.063  16.619  19.715  0.00  0.00    +0.000 C 
ATOM     17  S   UNL     1      11.478  16.258  20.569  0.00  0.00    +0.000 S 
ENDROOT
TORSDOF 0
ENDMDL
MODEL 9
REMARK VINA RESULT:      -4.4      2.372      5.588
REMARK  Name = 
REMARK  2 active torsions:
REMARK  status: ('A' for Active; 'I' for Inactive)
REMARK    1  A    between atoms: C_1  and  N_2
REMARK    2  A    between atoms: N_14  and  C_15
REMARK                            x       y       z     vdW  Elec       q    Type
REMARK                         _______ _______ _______ _____ _____    ______ ____
ROOT
ATOM      1  C   UNL     1      10.908  16.259  21.950  0.00  0.00    +0.000 C 
ATOM      2  N   UNL     1       9.830  16.112  20.972  0.00  0.00    +0.000 N 
ATOM      3  C   UNL     1      10.017  16.933  19.748  0.00  0.00    +0.000 C 
ATOM      4  C   UNL     1      11.154  16.421  18.847  0.00  0.00    +0.000 C 
ATOM      5  O   UNL     1      10.723  15.334  18.030  0.00  0.00    +0.000 OA
ATOM      6  C   UNL     1      11.773  14.869  17.172  0.00  0.00    +0.000 C 
ATOM      7  C   UNL     1      11.431  13.478  16.645  0.00  0.00    +0.000 C 
ATOM      8  O   UNL     1      11.477  12.529  17.722  0.00  0.00    +0.000 OA
ATOM      9  C   UNL     1      10.205  11.899  17.927  0.00  0.00    +0.000 C 
ATOM     10  C   UNL     1      10.262  10.980  19.148  0.00  0.00    +0.000 C 
ATOM     11  O   UNL     1       9.290  11.369  20.127  0.00  0.00    +0.000 OA
ATOM     12  C   UNL     1       9.869  12.125  21.192  0.00  0.00    +0.000 C 
ATOM     13  C   UNL     1       8.768  12.787  22.036  0.00  0.00    +0.000 C 
ATOM     14  N   UNL     1       8.964  14.246  22.168  0.00  0.00    +0.000 N 
ATOM     15  C   UNL     1       8.884  14.776  23.521  0.00  0.00    +0.000 C 
ATOM     16  C   UNL     1       8.856  15.094  21.052  0.00  0.00    +0.000 C 
ATOM     17  S   UNL     1       7.637  14.859  19.903  0.00  0.00    +0.000 S 
ENDROOT
TORSDOF 0
ENDMDL
