MODEL 1
REMARK VINA RESULT:      -8.5      0.000      0.000
REMARK  Name = 
REMARK  4 active torsions:
REMARK  status: ('A' for Active; 'I' for Inactive)
REMARK    1  A    between atoms: C_2  and  C_24
REMARK    2  A    between atoms: N_3  and  C_4
REMARK    3  A    between atoms: N_7  and  C_8
REMARK    4  A    between atoms: C_13  and  C_14
REMARK                            x       y       z     vdW  Elec       q    Type
REMARK                         _______ _______ _______ _____ _____    ______ ____
ROOT
ATOM      1  C   UNL     1       2.021   8.738  18.869  0.00  0.00    +0.000 C 
ATOM      2  C   UNL     1       2.876   7.971  17.865  0.00  0.00    +0.000 C 
ATOM      3  C   UNL     1       2.510   6.497  17.792  0.00  0.00    +0.000 C 
ATOM      4  N   UNL     1       2.554   5.856  19.121  0.00  0.00    +0.000 N 
ATOM      5  C   UNL     1       1.674   6.481  20.117  0.00  0.00    +0.000 C 
ATOM      6  C   UNL     1       1.920   7.995  20.207  0.00  0.00    +0.000 C 
ENDROOT
BRANCH   4   7
ATOM      7  C   UNL     1       2.633   4.437  19.135  0.00  0.00    +0.000 A 
ATOM      8  C   UNL     1       1.427   3.684  19.175  0.00  0.00    +0.000 A 
ATOM      9  C   UNL     1       1.377   2.298  19.003  0.00  0.00    +0.000 A 
ATOM     10  C   UNL     1       2.539   1.600  18.749  0.00  0.00    +0.000 A 
ATOM     11  C   UNL     1       3.746   2.291  18.726  0.00  0.00    +0.000 A 
ATOM     12  C   UNL     1       3.835   3.677  19.007  0.00  0.00    +0.000 A 
BRANCH  12  13
ATOM     13  C   UNL     1       5.230   4.244  18.993  0.00  0.00    +0.000 C 
ATOM     14  O   UNL     1       5.796   4.463  20.062  0.00  0.00    +0.000 OA
ATOM     15  N   UNL     1       5.845   4.582  17.769  0.00  0.00    +0.000 N 
ATOM     16  C   UNL     1       7.138   5.279  17.787  0.00  0.00    +0.000 C 
ATOM     17  C   UNL     1       7.154   6.447  16.785  0.00  0.00    +0.000 C 
ATOM     18  O   UNL     1       6.747   6.038  15.468  0.00  0.00    +0.000 OA
ATOM     19  C   UNL     1       5.443   5.437  15.498  0.00  0.00    +0.000 C 
ATOM     20  C   UNL     1       5.448   4.196  16.403  0.00  0.00    +0.000 C 
ENDBRANCH  12  13
ENDBRANCH   4   7
BRANCH   1  23
ATOM     21  O   UNL     1       0.479  10.926  19.744  0.00  0.00    +0.000 OA
ATOM     22  C   UNL     1       0.027  10.236  18.831  0.00  0.00    +0.000 C 
ATOM     23  N   UNL     1       0.726   9.147  18.320  0.00  0.00    +0.000 N 
ATOM     24  H   UNL     1       0.328   8.685  17.510  0.00  0.00    +0.000 HD
BRANCH  22  25
ATOM     25  C   UNL     1      -1.258  10.498  18.222  0.00  0.00    +0.000 A 
ATOM     26  C   UNL     1      -1.878   9.906  17.129  0.00  0.00    +0.000 A 
ATOM     27  C   UNL     1      -3.114  10.567  16.945  0.00  0.00    +0.000 A 
ATOM     28  C   UNL     1      -3.182  11.525  17.929  0.00  0.00    +0.000 A 
ATOM     29  O   UNL     1      -2.071  11.491  18.714  0.00  0.00    +0.000 OA
ENDBRANCH  22  25
ENDBRANCH   1  23
TORSDOF 4
ENDMDL
MODEL 2
REMARK VINA RESULT:      -7.8      1.434      1.754
REMARK  Name = 
REMARK  4 active torsions:
REMARK  status: ('A' for Active; 'I' for Inactive)
REMARK    1  A    between atoms: C_2  and  C_24
REMARK    2  A    between atoms: N_3  and  C_4
REMARK    3  A    between atoms: N_7  and  C_8
REMARK    4  A    between atoms: C_13  and  C_14
REMARK                            x       y       z     vdW  Elec       q    Type
REMARK                         _______ _______ _______ _____ _____    ______ ____
ROOT
ATOM      1  C   UNL     1       1.702   9.188  18.680  0.00  0.00    +0.000 C 
ATOM      2  C   UNL     1       2.510   8.221  17.818  0.00  0.00    +0.000 C 
ATOM      3  C   UNL     1       2.227   6.765  18.151  0.00  0.00    +0.000 C 
ATOM      4  N   UNL     1       2.425   6.484  19.587  0.00  0.00    +0.000 N 
ATOM      5  C   UNL     1       1.600   7.310  20.479  0.00  0.00    +0.000 C 
ATOM      6  C   UNL     1       1.763   8.805  20.163  0.00  0.00    +0.000 C 
ENDROOT
BRANCH   4   7
ATOM      7  C   UNL     1       2.589   5.119  19.946  0.00  0.00    +0.000 A 
ATOM      8  C   UNL     1       2.144   4.690  21.227  0.00  0.00    +0.000 A 
ATOM      9  C   UNL     1       2.081   3.347  21.612  0.00  0.00    +0.000 A 
ATOM     10  C   UNL     1       2.434   2.363  20.713  0.00  0.00    +0.000 A 
ATOM     11  C   UNL     1       2.899   2.736  19.456  0.00  0.00    +0.000 A 
ATOM     12  C   UNL     1       3.076   4.092  19.082  0.00  0.00    +0.000 A 
BRANCH  12  13
ATOM     13  C   UNL     1       3.643   4.306  17.704  0.00  0.00    +0.000 C 
ATOM     14  O   UNL     1       2.998   3.928  16.728  0.00  0.00    +0.000 OA
ATOM     15  N   UNL     1       4.928   4.867  17.546  0.00  0.00    +0.000 N 
ATOM     16  C   UNL     1       5.525   4.920  16.204  0.00  0.00    +0.000 C 
ATOM     17  C   UNL     1       6.996   4.467  16.233  0.00  0.00    +0.000 C 
ATOM     18  O   UNL     1       7.762   5.174  17.224  0.00  0.00    +0.000 OA
ATOM     19  C   UNL     1       7.178   5.021  18.527  0.00  0.00    +0.000 C 
ATOM     20  C   UNL     1       5.748   5.583  18.540  0.00  0.00    +0.000 C 
ENDBRANCH  12  13
ENDBRANCH   4   7
BRANCH   1  23
ATOM     21  O   UNL     1       0.216  11.569  18.903  0.00  0.00    +0.000 OA
ATOM     22  C   UNL     1      -0.321  10.609  18.351  0.00  0.00    +0.000 C 
ATOM     23  N   UNL     1       0.342   9.398  18.178  0.00  0.00    +0.000 N 
ATOM     24  H   UNL     1      -0.135   8.687  17.634  0.00  0.00    +0.000 HD
BRANCH  22  25
ATOM     25  C   UNL     1      -1.674  10.660  17.845  0.00  0.00    +0.000 A 
ATOM     26  C   UNL     1      -2.289   9.934  16.832  0.00  0.00    +0.000 A 
ATOM     27  C   UNL     1      -3.616  10.409  16.730  0.00  0.00    +0.000 A 
ATOM     28  C   UNL     1      -3.741  11.397  17.677  0.00  0.00    +0.000 A 
ATOM     29  O   UNL     1      -2.577  11.556  18.365  0.00  0.00    +0.000 OA
ENDBRANCH  22  25
ENDBRANCH   1  23
TORSDOF 4
ENDMDL
MODEL 3
REMARK VINA RESULT:      -7.0      2.839      8.732
REMARK  Name = 
REMARK  4 active torsions:
REMARK  status: ('A' for Active; 'I' for Inactive)
REMARK    1  A    between atoms: C_2  and  C_24
REMARK    2  A    between atoms: N_3  and  C_4
REMARK    3  A    between atoms: N_7  and  C_8
REMARK    4  A    between atoms: C_13  and  C_14
REMARK                            x       y       z     vdW  Elec       q    Type
REMARK                         _______ _______ _______ _____ _____    ______ ____
ROOT
ATOM      1  C   UNL     1       2.422   7.833  19.288  0.00  0.00    +0.000 C 
ATOM      2  C   UNL     1       1.778   8.427  20.539  0.00  0.00    +0.000 C 
ATOM      3  C   UNL     1       0.375   8.954  20.280  0.00  0.00    +0.000 C 
ATOM      4  N   UNL     1       0.352   9.920  19.165  0.00  0.00    +0.000 N 
ATOM      5  C   UNL     1       0.864   9.385  17.896  0.00  0.00    +0.000 C 
ATOM      6  C   UNL     1       2.255   8.758  18.077  0.00  0.00    +0.000 C 
ENDROOT
BRANCH   4   7
ATOM      7  C   UNL     1      -0.785  10.770  19.091  0.00  0.00    +0.000 A 
ATOM      8  C   UNL     1      -1.865  10.396  18.245  0.00  0.00    +0.000 A 
ATOM      9  C   UNL     1      -3.101  11.049  18.236  0.00  0.00    +0.000 A 
ATOM     10  C   UNL     1      -3.324  12.097  19.105  0.00  0.00    +0.000 A 
ATOM     11  C   UNL     1      -2.288  12.515  19.934  0.00  0.00    +0.000 A 
ATOM     12  C   UNL     1      -0.993  11.940  19.881  0.00  0.00    +0.000 A 
BRANCH  12  13
ATOM     13  C   UNL     1       0.018  12.557  20.811  0.00  0.00    +0.000 C 
ATOM     14  O   UNL     1       0.093  12.148  21.968  0.00  0.00    +0.000 OA
ATOM     15  N   UNL     1       0.815  13.637  20.375  0.00  0.00    +0.000 N 
ATOM     16  C   UNL     1       1.679  14.325  21.344  0.00  0.00    +0.000 C 
ATOM     17  C   UNL     1       1.573  15.853  21.195  0.00  0.00    +0.000 C 
ATOM     18  O   UNL     1       1.786  16.282  19.839  0.00  0.00    +0.000 OA
ATOM     19  C   UNL     1       0.862  15.639  18.947  0.00  0.00    +0.000 C 
ATOM     20  C   UNL     1       1.044  14.114  19.000  0.00  0.00    +0.000 C 
ENDBRANCH  12  13
ENDBRANCH   4   7
BRANCH   1  23
ATOM     21  O   UNL     1       4.008   5.545  19.707  0.00  0.00    +0.000 OA
ATOM     22  C   UNL     1       2.873   5.381  19.259  0.00  0.00    +0.000 C 
ATOM     23  N   UNL     1       2.011   6.450  19.038  0.00  0.00    +0.000 N 
ATOM     24  H   UNL     1       1.064   6.224  18.754  0.00  0.00    +0.000 HD
BRANCH  22  25
ATOM     25  C   UNL     1       2.350   4.075  18.927  0.00  0.00    +0.000 A 
ATOM     26  C   UNL     1       1.181   3.440  19.326  0.00  0.00    +0.000 A 
ATOM     27  C   UNL     1       1.179   2.159  18.729  0.00  0.00    +0.000 A 
ATOM     28  C   UNL     1       2.343   2.078  18.002  0.00  0.00    +0.000 A 
ATOM     29  O   UNL     1       3.059   3.231  18.105  0.00  0.00    +0.000 OA
ENDBRANCH  22  25
ENDBRANCH   1  23
TORSDOF 4
ENDMDL
MODEL 4
REMARK VINA RESULT:      -6.8      2.758      4.912
REMARK  Name = 
REMARK  4 active torsions:
REMARK  status: ('A' for Active; 'I' for Inactive)
REMARK    1  A    between atoms: C_2  and  C_24
REMARK    2  A    between atoms: N_3  and  C_4
REMARK    3  A    between atoms: N_7  and  C_8
REMARK    4  A    between atoms: C_13  and  C_14
REMARK                            x       y       z     vdW  Elec       q    Type
REMARK                         _______ _______ _______ _____ _____    ______ ____
ROOT
ATOM      1  C   UNL     1       0.748   9.343  19.636  0.00  0.00    +0.000 C 
ATOM      2  C   UNL     1       1.307   8.114  20.347  0.00  0.00    +0.000 C 
ATOM      3  C   UNL     1       2.596   7.611  19.717  0.00  0.00    +0.000 C 
ATOM      4  N   UNL     1       2.435   7.356  18.272  0.00  0.00    +0.000 N 
ATOM      5  C   UNL     1       1.995   8.528  17.502  0.00  0.00    +0.000 C 
ATOM      6  C   UNL     1       0.732   9.155  18.115  0.00  0.00    +0.000 C 
ENDROOT
BRANCH   4   7
ATOM      7  C   UNL     1       3.411   6.521  17.665  0.00  0.00    +0.000 A 
ATOM      8  C   UNL     1       4.619   7.107  17.196  0.00  0.00    +0.000 A 
ATOM      9  C   UNL     1       5.719   6.364  16.759  0.00  0.00    +0.000 A 
ATOM     10  C   UNL     1       5.671   4.986  16.802  0.00  0.00    +0.000 A 
ATOM     11  C   UNL     1       4.501   4.367  17.230  0.00  0.00    +0.000 A 
ATOM     12  C   UNL     1       3.335   5.098  17.572  0.00  0.00    +0.000 A 
BRANCH  12  13
ATOM     13  C   UNL     1       2.146   4.260  17.957  0.00  0.00    +0.000 C 
ATOM     14  O   UNL     1       1.104   4.369  17.313  0.00  0.00    +0.000 OA
ATOM     15  N   UNL     1       2.210   3.415  19.085  0.00  0.00    +0.000 N 
ATOM     16  C   UNL     1       0.991   2.728  19.535  0.00  0.00    +0.000 C 
ATOM     17  C   UNL     1       0.830   2.825  21.062  0.00  0.00    +0.000 C 
ATOM     18  O   UNL     1       2.013   2.398  21.761  0.00  0.00    +0.000 OA
ATOM     19  C   UNL     1       3.157   3.158  21.340  0.00  0.00    +0.000 C 
ATOM     20  C   UNL     1       3.398   2.970  19.834  0.00  0.00    +0.000 C 
ENDBRANCH  12  13
ENDBRANCH   4   7
BRANCH   1  23
ATOM     21  O   UNL     1      -0.590  11.757  20.196  0.00  0.00    +0.000 OA
ATOM     22  C   UNL     1       0.636  11.742  20.308  0.00  0.00    +0.000 C 
ATOM     23  N   UNL     1       1.380  10.591  20.072  0.00  0.00    +0.000 N 
ATOM     24  H   UNL     1       2.372  10.636  20.274  0.00  0.00    +0.000 HD
BRANCH  22  25
ATOM     25  C   UNL     1       1.395  12.912  20.690  0.00  0.00    +0.000 A 
ATOM     26  C   UNL     1       2.586  13.421  20.187  0.00  0.00    +0.000 A 
ATOM     27  C   UNL     1       2.899  14.570  20.948  0.00  0.00    +0.000 A 
ATOM     28  C   UNL     1       1.891  14.700  21.873  0.00  0.00    +0.000 A 
ATOM     29  O   UNL     1       0.969  13.709  21.725  0.00  0.00    +0.000 OA
ENDBRANCH  22  25
ENDBRANCH   1  23
TORSDOF 4
ENDMDL
MODEL 5
REMARK VINA RESULT:      -6.7      2.895      9.039
REMARK  Name = 
REMARK  4 active torsions:
REMARK  status: ('A' for Active; 'I' for Inactive)
REMARK    1  A    between atoms: C_2  and  C_24
REMARK    2  A    between atoms: N_3  and  C_4
REMARK    3  A    between atoms: N_7  and  C_8
REMARK    4  A    between atoms: C_13  and  C_14
REMARK                            x       y       z     vdW  Elec       q    Type
REMARK                         _______ _______ _______ _____ _____    ______ ____
ROOT
ATOM      1  C   UNL     1       1.945   8.252  20.115  0.00  0.00    +0.000 C 
ATOM      2  C   UNL     1       1.130   9.038  21.138  0.00  0.00    +0.000 C 
ATOM      3  C   UNL     1      -0.277   9.348  20.651  0.00  0.00    +0.000 C 
ATOM      4  N   UNL     1      -0.264  10.037  19.345  0.00  0.00    +0.000 N 
ATOM      5  C   UNL     1       0.418   9.289  18.280  0.00  0.00    +0.000 C 
ATOM      6  C   UNL     1       1.830   8.864  18.713  0.00  0.00    +0.000 C 
ENDROOT
BRANCH   4   7
ATOM      7  C   UNL     1      -1.452  10.727  18.985  0.00  0.00    +0.000 A 
ATOM      8  C   UNL     1      -2.278  10.182  17.963  0.00  0.00    +0.000 A 
ATOM      9  C   UNL     1      -3.553  10.669  17.660  0.00  0.00    +0.000 A 
ATOM     10  C   UNL     1      -4.076  11.713  18.393  0.00  0.00    +0.000 A 
ATOM     11  C   UNL     1      -3.295  12.295  19.386  0.00  0.00    +0.000 A 
ATOM     12  C   UNL     1      -1.959  11.892  19.637  0.00  0.00    +0.000 A 
BRANCH  12  13
ATOM     13  C   UNL     1      -1.247  12.672  20.709  0.00  0.00    +0.000 C 
ATOM     14  O   UNL     1      -1.439  12.380  21.888  0.00  0.00    +0.000 OA
ATOM     15  N   UNL     1      -0.428  13.768  20.363  0.00  0.00    +0.000 N 
ATOM     16  C   UNL     1       0.129  14.610  21.430  0.00  0.00    +0.000 C 
ATOM     17  C   UNL     1      -0.021  16.104  21.093  0.00  0.00    +0.000 C 
ATOM     18  O   UNL     1       0.499  16.422  19.790  0.00  0.00    +0.000 OA
ATOM     19  C   UNL     1      -0.138  15.626  18.778  0.00  0.00    +0.000 C 
ATOM     20  C   UNL     1       0.109  14.132  19.040  0.00  0.00    +0.000 C 
ENDBRANCH  12  13
ENDBRANCH   4   7
BRANCH   1  23
ATOM     21  O   UNL     1       3.731   6.221  19.333  0.00  0.00    +0.000 OA
ATOM     22  C   UNL     1       2.618   5.882  19.731  0.00  0.00    +0.000 C 
ATOM     23  N   UNL     1       1.676   6.813  20.156  0.00  0.00    +0.000 N 
ATOM     24  H   UNL     1       0.817   6.448  20.554  0.00  0.00    +0.000 HD
BRANCH  22  25
ATOM     25  C   UNL     1       2.201   4.498  19.786  0.00  0.00    +0.000 A 
ATOM     26  C   UNL     1       1.160   3.894  20.480  0.00  0.00    +0.000 A 
ATOM     27  C   UNL     1       1.224   2.510  20.201  0.00  0.00    +0.000 A 
ATOM     28  C   UNL     1       2.297   2.342  19.359  0.00  0.00    +0.000 A 
ATOM     29  O   UNL     1       2.894   3.535  19.092  0.00  0.00    +0.000 OA
ENDBRANCH  22  25
ENDBRANCH   1  23
TORSDOF 4
ENDMDL
MODEL 6
REMARK VINA RESULT:      -6.7      1.954      3.899
REMARK  Name = 
REMARK  4 active torsions:
REMARK  status: ('A' for Active; 'I' for Inactive)
REMARK    1  A    between atoms: C_2  and  C_24
REMARK    2  A    between atoms: N_3  and  C_4
REMARK    3  A    between atoms: N_7  and  C_8
REMARK    4  A    between atoms: C_13  and  C_14
REMARK                            x       y       z     vdW  Elec       q    Type
REMARK                         _______ _______ _______ _____ _____    ______ ____
ROOT
ATOM      1  C   UNL     1       1.548   9.079  19.435  0.00  0.00    +0.000 C 
ATOM      2  C   UNL     1       2.591   9.410  18.371  0.00  0.00    +0.000 C 
ATOM      3  C   UNL     1       2.846   8.251  17.420  0.00  0.00    +0.000 C 
ATOM      4  N   UNL     1       3.207   7.018  18.147  0.00  0.00    +0.000 N 
ATOM      5  C   UNL     1       2.198   6.578  19.120  0.00  0.00    +0.000 C 
ATOM      6  C   UNL     1       1.818   7.715  20.082  0.00  0.00    +0.000 C 
ENDROOT
BRANCH   4   7
ATOM      7  C   UNL     1       3.850   6.004  17.387  0.00  0.00    +0.000 A 
ATOM      8  C   UNL     1       5.070   6.313  16.726  0.00  0.00    +0.000 A 
ATOM      9  C   UNL     1       5.881   5.353  16.113  0.00  0.00    +0.000 A 
ATOM     10  C   UNL     1       5.519   4.024  16.163  0.00  0.00    +0.000 A 
ATOM     11  C   UNL     1       4.321   3.675  16.777  0.00  0.00    +0.000 A 
ATOM     12  C   UNL     1       3.429   4.642  17.308  0.00  0.00    +0.000 A 
BRANCH  12  13
ATOM     13  C   UNL     1       2.154   4.086  17.883  0.00  0.00    +0.000 C 
ATOM     14  O   UNL     1       1.080   4.417  17.384  0.00  0.00    +0.000 OA
ATOM     15  N   UNL     1       2.194   3.256  19.023  0.00  0.00    +0.000 N 
ATOM     16  C   UNL     1       0.932   2.855  19.661  0.00  0.00    +0.000 C 
ATOM     17  C   UNL     1       1.014   2.997  21.191  0.00  0.00    +0.000 C 
ATOM     18  O   UNL     1       2.164   2.326  21.737  0.00  0.00    +0.000 OA
ATOM     19  C   UNL     1       3.374   2.815  21.135  0.00  0.00    +0.000 C 
ATOM     20  C   UNL     1       3.352   2.567  19.619  0.00  0.00    +0.000 C 
ENDBRANCH  12  13
ENDBRANCH   4   7
BRANCH   1  23
ATOM     21  O   UNL     1       0.255  11.535  18.965  0.00  0.00    +0.000 OA
ATOM     22  C   UNL     1      -0.387  10.504  18.770  0.00  0.00    +0.000 C 
ATOM     23  N   UNL     1       0.174   9.245  18.956  0.00  0.00    +0.000 N 
ATOM     24  H   UNL     1      -0.391   8.447  18.687  0.00  0.00    +0.000 HD
BRANCH  22  25
ATOM     25  C   UNL     1      -1.766  10.518  18.337  0.00  0.00    +0.000 A 
ATOM     26  C   UNL     1      -2.441   9.702  17.437  0.00  0.00    +0.000 A 
ATOM     27  C   UNL     1      -3.770  10.177  17.362  0.00  0.00    +0.000 A 
ATOM     28  C   UNL     1      -3.837  11.254  18.213  0.00  0.00    +0.000 A 
ATOM     29  O   UNL     1      -2.636  11.469  18.816  0.00  0.00    +0.000 OA
ENDBRANCH  22  25
ENDBRANCH   1  23
TORSDOF 4
ENDMDL
MODEL 7
REMARK VINA RESULT:      -6.6      2.936      9.277
REMARK  Name = 
REMARK  4 active torsions:
REMARK  status: ('A' for Active; 'I' for Inactive)
REMARK    1  A    between atoms: C_2  and  C_24
REMARK    2  A    between atoms: N_3  and  C_4
REMARK    3  A    between atoms: N_7  and  C_8
REMARK    4  A    between atoms: C_13  and  C_14
REMARK                            x       y       z     vdW  Elec       q    Type
REMARK                         _______ _______ _______ _____ _____    ______ ____
ROOT
ATOM      1  C   UNL     1       1.826   8.684  20.189  0.00  0.00    +0.000 C 
ATOM      2  C   UNL     1       0.877   9.542  21.023  0.00  0.00    +0.000 C 
ATOM      3  C   UNL     1      -0.512   9.639  20.412  0.00  0.00    +0.000 C 
ATOM      4  N   UNL     1      -0.463  10.113  19.015  0.00  0.00    +0.000 N 
ATOM      5  C   UNL     1       0.353   9.274  18.126  0.00  0.00    +0.000 C 
ATOM      6  C   UNL     1       1.761   9.056  18.703  0.00  0.00    +0.000 C 
ENDROOT
BRANCH   4   7
ATOM      7  C   UNL     1      -1.675  10.624  18.480  0.00  0.00    +0.000 A 
ATOM      8  C   UNL     1      -2.464   9.785  17.646  0.00  0.00    +0.000 A 
ATOM      9  C   UNL     1      -3.755  10.112  17.221  0.00  0.00    +0.000 A 
ATOM     10  C   UNL     1      -4.332  11.292  17.642  0.00  0.00    +0.000 A 
ATOM     11  C   UNL     1      -3.589  12.158  18.438  0.00  0.00    +0.000 A 
ATOM     12  C   UNL     1      -2.240  11.898  18.789  0.00  0.00    +0.000 A 
BRANCH  12  13
ATOM     13  C   UNL     1      -1.575  12.973  19.608  0.00  0.00    +0.000 C 
ATOM     14  O   UNL     1      -0.612  13.574  19.136  0.00  0.00    +0.000 OA
ATOM     15  N   UNL     1      -2.012  13.233  20.924  0.00  0.00    +0.000 N 
ATOM     16  C   UNL     1      -1.251  14.173  21.758  0.00  0.00    +0.000 C 
ATOM     17  C   UNL     1      -1.043  13.613  23.176  0.00  0.00    +0.000 C 
ATOM     18  O   UNL     1      -2.279  13.192  23.780  0.00  0.00    +0.000 OA
ATOM     19  C   UNL     1      -2.941  12.215  22.961  0.00  0.00    +0.000 C 
ATOM     20  C   UNL     1      -3.261  12.806  21.579  0.00  0.00    +0.000 C 
ENDBRANCH  12  13
ENDBRANCH   4   7
BRANCH   1  23
ATOM     21  O   UNL     1       3.407   6.636  19.079  0.00  0.00    +0.000 OA
ATOM     22  C   UNL     1       2.496   6.308  19.838  0.00  0.00    +0.000 C 
ATOM     23  N   UNL     1       1.675   7.251  20.448  0.00  0.00    +0.000 N 
ATOM     24  H   UNL     1       1.007   6.906  21.129  0.00  0.00    +0.000 HD
BRANCH  22  25
ATOM     25  C   UNL     1       2.205   4.927  20.151  0.00  0.00    +0.000 A 
ATOM     26  C   UNL     1       1.008   4.309  20.490  0.00  0.00    +0.000 A 
ATOM     27  C   UNL     1       1.297   2.946  20.726  0.00  0.00    +0.000 A 
ATOM     28  C   UNL     1       2.649   2.804  20.522  0.00  0.00    +0.000 A 
ATOM     29  O   UNL     1       3.212   3.991  20.166  0.00  0.00    +0.000 OA
ENDBRANCH  22  25
ENDBRANCH   1  23
TORSDOF 4
ENDMDL
MODEL 8
REMARK VINA RESULT:      -6.5      1.801      2.506
REMARK  Name = 
REMARK  4 active torsions:
REMARK  status: ('A' for Active; 'I' for Inactive)
REMARK    1  A    between atoms: C_2  and  C_24
REMARK    2  A    between atoms: N_3  and  C_4
REMARK    3  A    between atoms: N_7  and  C_8
REMARK    4  A    between atoms: C_13  and  C_14
REMARK                            x       y       z     vdW  Elec       q    Type
REMARK                         _______ _______ _______ _____ _____    ______ ____
ROOT
ATOM      1  C   UNL     1       0.744  10.706  19.133  0.00  0.00    +0.000 C 
ATOM      2  C   UNL     1       1.505   9.939  18.056  0.00  0.00    +0.000 C 
ATOM      3  C   UNL     1       1.428   8.432  18.246  0.00  0.00    +0.000 C 
ATOM      4  N   UNL     1       1.873   8.029  19.594  0.00  0.00    +0.000 N 
ATOM      5  C   UNL     1       1.114   8.652  20.687  0.00  0.00    +0.000 C 
ATOM      6  C   UNL     1       1.072  10.181  20.536  0.00  0.00    +0.000 C 
ENDROOT
BRANCH   4   7
ATOM      7  C   UNL     1       2.230   6.663  19.759  0.00  0.00    +0.000 A 
ATOM      8  C   UNL     1       1.547   5.890  20.737  0.00  0.00    +0.000 A 
ATOM      9  C   UNL     1       1.680   4.503  20.856  0.00  0.00    +0.000 A 
ATOM     10  C   UNL     1       2.487   3.818  19.972  0.00  0.00    +0.000 A 
ATOM     11  C   UNL     1       3.195   4.535  19.013  0.00  0.00    +0.000 A 
ATOM     12  C   UNL     1       3.161   5.951  18.945  0.00  0.00    +0.000 A 
BRANCH  12  13
ATOM     13  C   UNL     1       4.035   6.559  17.880  0.00  0.00    +0.000 C 
ATOM     14  O   UNL     1       3.527   7.309  17.048  0.00  0.00    +0.000 OA
ATOM     15  N   UNL     1       5.401   6.214  17.801  0.00  0.00    +0.000 N 
ATOM     16  C   UNL     1       6.195   6.695  16.663  0.00  0.00    +0.000 C 
ATOM     17  C   UNL     1       7.072   5.570  16.084  0.00  0.00    +0.000 C 
ATOM     18  O   UNL     1       7.863   4.923  17.096  0.00  0.00    +0.000 OA
ATOM     19  C   UNL     1       7.028   4.403  18.142  0.00  0.00    +0.000 C 
ATOM     20  C   UNL     1       6.238   5.539  18.809  0.00  0.00    +0.000 C 
ENDBRANCH  12  13
ENDBRANCH   4   7
BRANCH   1  23
ATOM     21  O   UNL     1      -0.917  12.878  19.803  0.00  0.00    +0.000 OA
ATOM     22  C   UNL     1      -1.436  11.913  19.244  0.00  0.00    +0.000 C 
ATOM     23  N   UNL     1      -0.691  10.803  18.858  0.00  0.00    +0.000 N 
ATOM     24  H   UNL     1      -1.174  10.090  18.322  0.00  0.00    +0.000 HD
BRANCH  22  25
ATOM     25  C   UNL     1      -2.849  11.854  18.947  0.00  0.00    +0.000 A 
ATOM     26  C   UNL     1      -3.531  11.229  17.910  0.00  0.00    +0.000 A 
ATOM     27  C   UNL     1      -4.903  11.518  18.082  0.00  0.00    +0.000 A 
ATOM     28  C   UNL     1      -4.988  12.302  19.208  0.00  0.00    +0.000 A 
ATOM     29  O   UNL     1      -3.755  12.508  19.747  0.00  0.00    +0.000 OA
ENDBRANCH  22  25
ENDBRANCH   1  23
TORSDOF 4
ENDMDL
MODEL 9
REMARK VINA RESULT:      -6.4      4.015     10.541
REMARK  Name = 
REMARK  4 active torsions:
REMARK  status: ('A' for Active; 'I' for Inactive)
REMARK    1  A    between atoms: C_2  and  C_24
REMARK    2  A    between atoms: N_3  and  C_4
REMARK    3  A    between atoms: N_7  and  C_8
REMARK    4  A    between atoms: C_13  and  C_14
REMARK                            x       y       z     vdW  Elec       q    Type
REMARK                         _______ _______ _______ _____ _____    ______ ____
ROOT
ATOM      1  C   UNL     1      -1.144  11.723  17.963  0.00  0.00    +0.000 C 
ATOM      2  C   UNL     1      -1.557  12.459  19.235  0.00  0.00    +0.000 C 
ATOM      3  C   UNL     1      -2.834  11.902  19.844  0.00  0.00    +0.000 C 
ATOM      4  N   UNL     1      -3.940  11.877  18.866  0.00  0.00    +0.000 N 
ATOM      5  C   UNL     1      -3.651  11.099  17.655  0.00  0.00    +0.000 C 
ATOM      6  C   UNL     1      -2.329  11.542  17.008  0.00  0.00    +0.000 C 
ENDROOT
BRANCH   4   7
ATOM      7  C   UNL     1      -5.252  11.770  19.401  0.00  0.00    +0.000 A 
ATOM      8  C   UNL     1      -6.043  10.641  19.053  0.00  0.00    +0.000 A 
ATOM      9  C   UNL     1      -7.265  10.336  19.661  0.00  0.00    +0.000 A 
ATOM     10  C   UNL     1      -7.738  11.140  20.677  0.00  0.00    +0.000 A 
ATOM     11  C   UNL     1      -7.011  12.271  21.035  0.00  0.00    +0.000 A 
ATOM     12  C   UNL     1      -5.828  12.660  20.357  0.00  0.00    +0.000 A 
BRANCH  12  13
ATOM     13  C   UNL     1      -5.206  13.942  20.843  0.00  0.00    +0.000 C 
ATOM     14  O   UNL     1      -5.320  14.957  20.159  0.00  0.00    +0.000 OA
ATOM     15  N   UNL     1      -4.445  13.955  22.031  0.00  0.00    +0.000 N 
ATOM     16  C   UNL     1      -3.718  15.176  22.402  0.00  0.00    +0.000 C 
ATOM     17  C   UNL     1      -2.286  14.852  22.860  0.00  0.00    +0.000 C 
ATOM     18  O   UNL     1      -2.259  13.843  23.885  0.00  0.00    +0.000 OA
ATOM     19  C   UNL     1      -2.912  12.644  23.439  0.00  0.00    +0.000 C 
ATOM     20  C   UNL     1      -4.381  12.935  23.093  0.00  0.00    +0.000 C 
ENDBRANCH  12  13
ENDBRANCH   4   7
BRANCH   1  23
ATOM     21  O   UNL     1       1.605  11.539  18.546  0.00  0.00    +0.000 OA
ATOM     22  C   UNL     1       0.959  10.493  18.496  0.00  0.00    +0.000 C 
ATOM     23  N   UNL     1      -0.407  10.486  18.233  0.00  0.00    +0.000 N 
ATOM     24  H   UNL     1      -0.883   9.593  18.299  0.00  0.00    +0.000 HD
BRANCH  22  25
ATOM     25  C   UNL     1       1.564   9.196  18.700  0.00  0.00    +0.000 A 
ATOM     26  C   UNL     1       2.245   8.366  17.818  0.00  0.00    +0.000 A 
ATOM     27  C   UNL     1       2.597   7.200  18.535  0.00  0.00    +0.000 A 
ATOM     28  C   UNL     1       2.112   7.376  19.809  0.00  0.00    +0.000 A 
ATOM     29  O   UNL     1       1.492   8.581  19.927  0.00  0.00    +0.000 OA
ENDBRANCH  22  25
ENDBRANCH   1  23
TORSDOF 4
ENDMDL
