MODEL 1
REMARK VINA RESULT:      -8.1      0.000      0.000
REMARK  Name = 
REMARK  4 active torsions:
REMARK  status: ('A' for Active; 'I' for Inactive)
REMARK    1  A    between atoms: C_4  and  N_5
REMARK    2  A    between atoms: C_14  and  O_15
REMARK    3  A    between atoms: O_15  and  C_16
REMARK    4  A    between atoms: C_16  and  C_17
REMARK                            x       y       z     vdW  Elec       q    Type
REMARK                         _______ _______ _______ _____ _____    ______ ____
ROOT
ATOM      1  O   UNL     1       2.483   1.335  18.423  0.00  0.00    +0.000 OA
ATOM      2  C   UNL     1       2.981   2.451  18.355  0.00  0.00    +0.000 A 
ATOM      3  C   UNL     1       4.149   2.716  17.499  0.00  0.00    +0.000 A 
ATOM      4  C   UNL     1       4.714   3.933  17.461  0.00  0.00    +0.000 A 
ATOM      5  O   UNL     1       4.227   4.991  18.220  0.00  0.00    +0.000 OA
ATOM      6  C   UNL     1       3.100   4.812  18.976  0.00  0.00    +0.000 A 
ATOM      7  C   UNL     1       2.626   5.931  19.654  0.00  0.00    +0.000 A 
ATOM      8  C   UNL     1       1.523   5.817  20.501  0.00  0.00    +0.000 A 
ATOM      9  C   UNL     1       0.856   4.596  20.611  0.00  0.00    +0.000 A 
ATOM     10  C   UNL     1       1.319   3.476  19.914  0.00  0.00    +0.000 A 
ATOM     11  C   UNL     1       2.449   3.594  19.102  0.00  0.00    +0.000 A 
ENDROOT
BRANCH   4  12
ATOM     12  N   UNL     1       5.806   4.262  16.662  0.00  0.00    +0.000 N 
ATOM     13  C   UNL     1       6.951   5.055  17.161  0.00  0.00    +0.000 C 
ATOM     14  C   UNL     1       7.363   6.115  16.130  0.00  0.00    +0.000 C 
ATOM     15  O   UNL     1       7.620   5.534  14.841  0.00  0.00    +0.000 OA
ATOM     16  C   UNL     1       6.451   4.847  14.367  0.00  0.00    +0.000 C 
ATOM     17  C   UNL     1       6.047   3.711  15.318  0.00  0.00    +0.000 C 
ENDBRANCH   4  12
BRANCH   8  18
ATOM     18  O   UNL     1       1.031   6.840  21.268  0.00  0.00    +0.000 OA
BRANCH  18  19
ATOM     19  C   UNL     1       1.431   8.148  20.838  0.00  0.00    +0.000 C 
BRANCH  19  20
ATOM     20  C   UNL     1       0.504   9.233  21.333  0.00  0.00    +0.000 A 
ATOM     21  C   UNL     1       0.173   9.353  22.692  0.00  0.00    +0.000 A 
ATOM     22  C   UNL     1      -0.657  10.382  23.134  0.00  0.00    +0.000 A 
ATOM     23  C   UNL     1      -1.172  11.306  22.228  0.00  0.00    +0.000 A 
ATOM     24  C   UNL     1      -0.862  11.196  20.875  0.00  0.00    +0.000 A 
ATOM     25  C   UNL     1      -0.033  10.166  20.429  0.00  0.00    +0.000 A 
ATOM     26 CL   UNL     1       0.312  10.092  18.734  0.00  0.00    +0.000 Cl
ENDBRANCH  19  20
ENDBRANCH  18  19
ENDBRANCH   8  18
TORSDOF 4
ENDMDL
MODEL 2
REMARK VINA RESULT:      -8.0      2.473      3.528
REMARK  Name = 
REMARK  4 active torsions:
REMARK  status: ('A' for Active; 'I' for Inactive)
REMARK    1  A    between atoms: C_4  and  N_5
REMARK    2  A    between atoms: C_14  and  O_15
REMARK    3  A    between atoms: O_15  and  C_16
REMARK    4  A    between atoms: C_16  and  C_17
REMARK                            x       y       z     vdW  Elec       q    Type
REMARK                         _______ _______ _______ _____ _____    ______ ____
ROOT
ATOM      1  O   UNL     1       2.293   4.597  21.451  0.00  0.00    +0.000 OA
ATOM      2  C   UNL     1       2.676   5.176  20.442  0.00  0.00    +0.000 A 
ATOM      3  C   UNL     1       3.651   4.557  19.529  0.00  0.00    +0.000 A 
ATOM      4  C   UNL     1       4.095   5.215  18.447  0.00  0.00    +0.000 A 
ATOM      5  O   UNL     1       3.660   6.499  18.139  0.00  0.00    +0.000 OA
ATOM      6  C   UNL     1       2.700   7.087  18.918  0.00  0.00    +0.000 A 
ATOM      7  C   UNL     1       2.257   8.341  18.512  0.00  0.00    +0.000 A 
ATOM      8  C   UNL     1       1.331   9.039  19.290  0.00  0.00    +0.000 A 
ATOM      9  C   UNL     1       0.799   8.444  20.435  0.00  0.00    +0.000 A 
ATOM     10  C   UNL     1       1.227   7.174  20.833  0.00  0.00    +0.000 A 
ATOM     11  C   UNL     1       2.186   6.505  20.068  0.00  0.00    +0.000 A 
ENDROOT
BRANCH   4  12
ATOM     12  N   UNL     1       5.002   4.688  17.530  0.00  0.00    +0.000 N 
ATOM     13  C   UNL     1       6.420   4.433  17.864  0.00  0.00    +0.000 C 
ATOM     14  C   UNL     1       7.335   4.907  16.726  0.00  0.00    +0.000 C 
ATOM     15  O   UNL     1       6.958   4.333  15.464  0.00  0.00    +0.000 OA
ATOM     16  C   UNL     1       5.600   4.680  15.149  0.00  0.00    +0.000 C 
ATOM     17  C   UNL     1       4.628   4.147  16.212  0.00  0.00    +0.000 C 
ENDBRANCH   4  12
BRANCH   8  18
ATOM     18  O   UNL     1       0.894  10.308  19.015  0.00  0.00    +0.000 OA
BRANCH  18  19
ATOM     19  C   UNL     1      -0.386  10.628  19.576  0.00  0.00    +0.000 C 
BRANCH  19  20
ATOM     20  C   UNL     1      -1.482  10.673  18.538  0.00  0.00    +0.000 A 
ATOM     21  C   UNL     1      -1.434   9.872  17.385  0.00  0.00    +0.000 A 
ATOM     22  C   UNL     1      -2.473   9.901  16.456  0.00  0.00    +0.000 A 
ATOM     23  C   UNL     1      -3.574  10.730  16.659  0.00  0.00    +0.000 A 
ATOM     24  C   UNL     1      -3.632  11.538  17.792  0.00  0.00    +0.000 A 
ATOM     25  C   UNL     1      -2.594  11.512  18.724  0.00  0.00    +0.000 A 
ATOM     26 CL   UNL     1      -2.734  12.540  20.110  0.00  0.00    +0.000 Cl
ENDBRANCH  19  20
ENDBRANCH  18  19
ENDBRANCH   8  18
TORSDOF 4
ENDMDL
MODEL 3
REMARK VINA RESULT:      -7.8      1.072      1.569
REMARK  Name = 
REMARK  4 active torsions:
REMARK  status: ('A' for Active; 'I' for Inactive)
REMARK    1  A    between atoms: C_4  and  N_5
REMARK    2  A    between atoms: C_14  and  O_15
REMARK    3  A    between atoms: O_15  and  C_16
REMARK    4  A    between atoms: C_16  and  C_17
REMARK                            x       y       z     vdW  Elec       q    Type
REMARK                         _______ _______ _______ _____ _____    ______ ____
ROOT
ATOM      1  O   UNL     1       2.259   1.575  18.261  0.00  0.00    +0.000 OA
ATOM      2  C   UNL     1       2.830   2.658  18.258  0.00  0.00    +0.000 A 
ATOM      3  C   UNL     1       4.042   2.881  17.454  0.00  0.00    +0.000 A 
ATOM      4  C   UNL     1       4.684   4.060  17.488  0.00  0.00    +0.000 A 
ATOM      5  O   UNL     1       4.239   5.115  18.276  0.00  0.00    +0.000 OA
ATOM      6  C   UNL     1       3.077   4.979  18.985  0.00  0.00    +0.000 A 
ATOM      7  C   UNL     1       2.650   6.097  19.695  0.00  0.00    +0.000 A 
ATOM      8  C   UNL     1       1.512   6.020  20.499  0.00  0.00    +0.000 A 
ATOM      9  C   UNL     1       0.765   4.841  20.533  0.00  0.00    +0.000 A 
ATOM     10  C   UNL     1       1.180   3.723  19.803  0.00  0.00    +0.000 A 
ATOM     11  C   UNL     1       2.345   3.801  19.036  0.00  0.00    +0.000 A 
ENDROOT
BRANCH   4  12
ATOM     12  N   UNL     1       5.824   4.350  16.742  0.00  0.00    +0.000 N 
ATOM     13  C   UNL     1       6.945   5.154  17.274  0.00  0.00    +0.000 C 
ATOM     14  C   UNL     1       7.425   6.170  16.228  0.00  0.00    +0.000 C 
ATOM     15  O   UNL     1       7.751   5.536  14.980  0.00  0.00    +0.000 OA
ATOM     16  C   UNL     1       6.605   4.840  14.466  0.00  0.00    +0.000 C 
ATOM     17  C   UNL     1       6.136   3.745  15.436  0.00  0.00    +0.000 C 
ENDBRANCH   4  12
BRANCH   8  18
ATOM     18  O   UNL     1       1.058   7.040  21.293  0.00  0.00    +0.000 OA
BRANCH  18  19
ATOM     19  C   UNL     1       1.713   8.297  21.073  0.00  0.00    +0.000 C 
BRANCH  19  20
ATOM     20  C   UNL     1       0.794   9.335  20.472  0.00  0.00    +0.000 A 
ATOM     21  C   UNL     1       0.764   9.576  19.089  0.00  0.00    +0.000 A 
ATOM     22  C   UNL     1      -0.117  10.513  18.550  0.00  0.00    +0.000 A 
ATOM     23  C   UNL     1      -0.979  11.225  19.381  0.00  0.00    +0.000 A 
ATOM     24  C   UNL     1      -0.955  11.005  20.755  0.00  0.00    +0.000 A 
ATOM     25  C   UNL     1      -0.074  10.069  21.299  0.00  0.00    +0.000 A 
ATOM     26 CL   UNL     1      -0.100   9.845  23.015  0.00  0.00    +0.000 Cl
ENDBRANCH  19  20
ENDBRANCH  18  19
ENDBRANCH   8  18
TORSDOF 4
ENDMDL
MODEL 4
REMARK VINA RESULT:      -7.8      3.575      8.066
REMARK  Name = 
REMARK  4 active torsions:
REMARK  status: ('A' for Active; 'I' for Inactive)
REMARK    1  A    between atoms: C_4  and  N_5
REMARK    2  A    between atoms: C_14  and  O_15
REMARK    3  A    between atoms: O_15  and  C_16
REMARK    4  A    between atoms: C_16  and  C_17
REMARK                            x       y       z     vdW  Elec       q    Type
REMARK                         _______ _______ _______ _____ _____    ______ ____
ROOT
ATOM      1  O   UNL     1       0.712   8.755  22.339  0.00  0.00    +0.000 OA
ATOM      2  C   UNL     1       0.994   9.081  21.193  0.00  0.00    +0.000 A 
ATOM      3  C   UNL     1       0.775  10.455  20.714  0.00  0.00    +0.000 A 
ATOM      4  C   UNL     1       1.049  10.794  19.444  0.00  0.00    +0.000 A 
ATOM      5  O   UNL     1       1.550   9.873  18.531  0.00  0.00    +0.000 OA
ATOM      6  C   UNL     1       1.837   8.602  18.949  0.00  0.00    +0.000 A 
ATOM      7  C   UNL     1       2.403   7.753  18.004  0.00  0.00    +0.000 A 
ATOM      8  C   UNL     1       2.662   6.420  18.330  0.00  0.00    +0.000 A 
ATOM      9  C   UNL     1       2.418   5.964  19.626  0.00  0.00    +0.000 A 
ATOM     10  C   UNL     1       1.870   6.822  20.584  0.00  0.00    +0.000 A 
ATOM     11  C   UNL     1       1.576   8.142  20.231  0.00  0.00    +0.000 A 
ENDROOT
BRANCH   4  12
ATOM     12  N   UNL     1       0.885  12.077  18.925  0.00  0.00    +0.000 N 
ATOM     13  C   UNL     1       2.016  12.883  18.416  0.00  0.00    +0.000 C 
ATOM     14  C   UNL     1       1.908  14.334  18.907  0.00  0.00    +0.000 C 
ATOM     15  O   UNL     1       0.633  14.913  18.584  0.00  0.00    +0.000 OA
ATOM     16  C   UNL     1      -0.424  14.138  19.172  0.00  0.00    +0.000 C 
ATOM     17  C   UNL     1      -0.421  12.697  18.643  0.00  0.00    +0.000 C 
ENDBRANCH   4  12
BRANCH   8  18
ATOM     18  O   UNL     1       3.144   5.490  17.447  0.00  0.00    +0.000 OA
BRANCH  18  19
ATOM     19  C   UNL     1       4.164   4.637  17.984  0.00  0.00    +0.000 C 
BRANCH  19  20
ATOM     20  C   UNL     1       5.484   5.348  18.161  0.00  0.00    +0.000 A 
ATOM     21  C   UNL     1       6.225   5.237  19.350  0.00  0.00    +0.000 A 
ATOM     22  C   UNL     1       7.459   5.872  19.481  0.00  0.00    +0.000 A 
ATOM     23  C   UNL     1       7.972   6.631  18.431  0.00  0.00    +0.000 A 
ATOM     24  C   UNL     1       7.246   6.760  17.250  0.00  0.00    +0.000 A 
ATOM     25  C   UNL     1       6.010   6.126  17.116  0.00  0.00    +0.000 A 
ATOM     26 CL   UNL     1       5.164   6.328  15.619  0.00  0.00    +0.000 Cl
ENDBRANCH  19  20
ENDBRANCH  18  19
ENDBRANCH   8  18
TORSDOF 4
ENDMDL
MODEL 5
REMARK VINA RESULT:      -7.8      3.105      5.801
REMARK  Name = 
REMARK  4 active torsions:
REMARK  status: ('A' for Active; 'I' for Inactive)
REMARK    1  A    between atoms: C_4  and  N_5
REMARK    2  A    between atoms: C_14  and  O_15
REMARK    3  A    between atoms: O_15  and  C_16
REMARK    4  A    between atoms: C_16  and  C_17
REMARK                            x       y       z     vdW  Elec       q    Type
REMARK                         _______ _______ _______ _____ _____    ______ ____
ROOT
ATOM      1  O   UNL     1       1.827   9.553  17.467  0.00  0.00    +0.000 OA
ATOM      2  C   UNL     1       1.778   8.937  18.524  0.00  0.00    +0.000 A 
ATOM      3  C   UNL     1       2.342   7.583  18.646  0.00  0.00    +0.000 A 
ATOM      4  C   UNL     1       2.249   6.898  19.797  0.00  0.00    +0.000 A 
ATOM      5  O   UNL     1       1.621   7.430  20.918  0.00  0.00    +0.000 OA
ATOM      6  C   UNL     1       1.145   8.713  20.874  0.00  0.00    +0.000 A 
ATOM      7  C   UNL     1       0.594   9.208  22.052  0.00  0.00    +0.000 A 
ATOM      8  C   UNL     1       0.023  10.482  22.073  0.00  0.00    +0.000 A 
ATOM      9  C   UNL     1       0.070  11.282  20.930  0.00  0.00    +0.000 A 
ATOM     10  C   UNL     1       0.643  10.794  19.752  0.00  0.00    +0.000 A 
ATOM     11  C   UNL     1       1.173   9.501  19.733  0.00  0.00    +0.000 A 
ENDROOT
BRANCH   4  12
ATOM     12  N   UNL     1       2.774   5.623  19.992  0.00  0.00    +0.000 N 
ATOM     13  C   UNL     1       4.075   5.200  19.430  0.00  0.00    +0.000 C 
ATOM     14  C   UNL     1       3.971   3.793  18.827  0.00  0.00    +0.000 C 
ATOM     15  O   UNL     1       3.449   2.845  19.774  0.00  0.00    +0.000 OA
ATOM     16  C   UNL     1       2.151   3.260  20.224  0.00  0.00    +0.000 C 
ATOM     17  C   UNL     1       2.212   4.628  20.921  0.00  0.00    +0.000 C 
ENDBRANCH   4  12
BRANCH   8  18
ATOM     18  O   UNL     1      -0.610  11.025  23.159  0.00  0.00    +0.000 OA
BRANCH  18  19
ATOM     19  C   UNL     1      -1.856  11.668  22.858  0.00  0.00    +0.000 C 
BRANCH  19  20
ATOM     20  C   UNL     1      -1.950  13.057  23.444  0.00  0.00    +0.000 A 
ATOM     21  C   UNL     1      -0.958  14.023  23.209  0.00  0.00    +0.000 A 
ATOM     22  C   UNL     1      -1.081  15.310  23.729  0.00  0.00    +0.000 A 
ATOM     23  C   UNL     1      -2.192  15.654  24.496  0.00  0.00    +0.000 A 
ATOM     24  C   UNL     1      -3.180  14.706  24.748  0.00  0.00    +0.000 A 
ATOM     25  C   UNL     1      -3.060  13.416  24.229  0.00  0.00    +0.000 A 
ATOM     26 CL   UNL     1      -4.327  12.289  24.580  0.00  0.00    +0.000 Cl
ENDBRANCH  19  20
ENDBRANCH  18  19
ENDBRANCH   8  18
TORSDOF 4
ENDMDL
MODEL 6
REMARK VINA RESULT:      -7.8      0.679      1.160
REMARK  Name = 
REMARK  4 active torsions:
REMARK  status: ('A' for Active; 'I' for Inactive)
REMARK    1  A    between atoms: C_4  and  N_5
REMARK    2  A    between atoms: C_14  and  O_15
REMARK    3  A    between atoms: O_15  and  C_16
REMARK    4  A    between atoms: C_16  and  C_17
REMARK                            x       y       z     vdW  Elec       q    Type
REMARK                         _______ _______ _______ _____ _____    ______ ____
ROOT
ATOM      1  O   UNL     1       3.209   1.379  18.609  0.00  0.00    +0.000 OA
ATOM      2  C   UNL     1       3.385   2.561  18.337  0.00  0.00    +0.000 A 
ATOM      3  C   UNL     1       4.271   2.966  17.234  0.00  0.00    +0.000 A 
ATOM      4  C   UNL     1       4.491   4.264  16.968  0.00  0.00    +0.000 A 
ATOM      5  O   UNL     1       3.897   5.276  17.713  0.00  0.00    +0.000 OA
ATOM      6  C   UNL     1       3.009   4.948  18.702  0.00  0.00    +0.000 A 
ATOM      7  C   UNL     1       2.397   6.009  19.360  0.00  0.00    +0.000 A 
ATOM      8  C   UNL     1       1.531   5.763  20.427  0.00  0.00    +0.000 A 
ATOM      9  C   UNL     1       1.230   4.447  20.785  0.00  0.00    +0.000 A 
ATOM     10  C   UNL     1       1.828   3.379  20.111  0.00  0.00    +0.000 A 
ATOM     11  C   UNL     1       2.725   3.642  19.072  0.00  0.00    +0.000 A 
ENDROOT
BRANCH   4  12
ATOM     12  N   UNL     1       5.300   4.722  15.930  0.00  0.00    +0.000 N 
ATOM     13  C   UNL     1       5.036   4.404  14.510  0.00  0.00    +0.000 C 
ATOM     14  C   UNL     1       6.338   4.021  13.792  0.00  0.00    +0.000 C 
ATOM     15  O   UNL     1       7.349   5.030  13.948  0.00  0.00    +0.000 OA
ATOM     16  C   UNL     1       7.626   5.240  15.342  0.00  0.00    +0.000 C 
ATOM     17  C   UNL     1       6.374   5.716  16.094  0.00  0.00    +0.000 C 
ENDBRANCH   4  12
BRANCH   8  18
ATOM     18  O   UNL     1       0.943   6.740  21.184  0.00  0.00    +0.000 OA
BRANCH  18  19
ATOM     19  C   UNL     1       1.598   8.015  21.120  0.00  0.00    +0.000 C 
BRANCH  19  20
ATOM     20  C   UNL     1       0.657   9.167  21.382  0.00  0.00    +0.000 A 
ATOM     21  C   UNL     1       0.210   9.470  22.679  0.00  0.00    +0.000 A 
ATOM     22  C   UNL     1      -0.630  10.559  22.905  0.00  0.00    +0.000 A 
ATOM     23  C   UNL     1      -1.041  11.361  21.843  0.00  0.00    +0.000 A 
ATOM     24  C   UNL     1      -0.616  11.069  20.549  0.00  0.00    +0.000 A 
ATOM     25  C   UNL     1       0.225   9.978  20.319  0.00  0.00    +0.000 A 
ATOM     26 CL   UNL     1       0.716   9.675  18.687  0.00  0.00    +0.000 Cl
ENDBRANCH  19  20
ENDBRANCH  18  19
ENDBRANCH   8  18
TORSDOF 4
ENDMDL
MODEL 7
REMARK VINA RESULT:      -7.8      3.249      8.806
REMARK  Name = 
REMARK  4 active torsions:
REMARK  status: ('A' for Active; 'I' for Inactive)
REMARK    1  A    between atoms: C_4  and  N_5
REMARK    2  A    between atoms: C_14  and  O_15
REMARK    3  A    between atoms: O_15  and  C_16
REMARK    4  A    between atoms: C_16  and  C_17
REMARK                            x       y       z     vdW  Elec       q    Type
REMARK                         _______ _______ _______ _____ _____    ______ ____
ROOT
ATOM      1  O   UNL     1       2.029   3.952  20.193  0.00  0.00    +0.000 OA
ATOM      2  C   UNL     1       2.254   5.094  19.813  0.00  0.00    +0.000 A 
ATOM      3  C   UNL     1       1.623   6.254  20.462  0.00  0.00    +0.000 A 
ATOM      4  C   UNL     1       1.844   7.500  20.013  0.00  0.00    +0.000 A 
ATOM      5  O   UNL     1       2.672   7.751  18.925  0.00  0.00    +0.000 OA
ATOM      6  C   UNL     1       3.337   6.711  18.334  0.00  0.00    +0.000 A 
ATOM      7  C   UNL     1       4.204   7.041  17.298  0.00  0.00    +0.000 A 
ATOM      8  C   UNL     1       4.869   6.033  16.597  0.00  0.00    +0.000 A 
ATOM      9  C   UNL     1       4.713   4.701  16.984  0.00  0.00    +0.000 A 
ATOM     10  C   UNL     1       3.858   4.370  18.040  0.00  0.00    +0.000 A 
ATOM     11  C   UNL     1       3.168   5.386  18.705  0.00  0.00    +0.000 A 
ENDROOT
BRANCH   4  12
ATOM     12  N   UNL     1       1.298   8.645  20.588  0.00  0.00    +0.000 N 
ATOM     13  C   UNL     1       1.296   8.885  22.047  0.00  0.00    +0.000 C 
ATOM     14  C   UNL     1      -0.068   9.422  22.504  0.00  0.00    +0.000 C 
ATOM     15  O   UNL     1      -0.459  10.586  21.758  0.00  0.00    +0.000 OA
ATOM     16  C   UNL     1      -0.522  10.277  20.358  0.00  0.00    +0.000 C 
ATOM     17  C   UNL     1       0.844   9.820  19.825  0.00  0.00    +0.000 C 
ENDBRANCH   4  12
BRANCH   8  18
ATOM     18  O   UNL     1       5.680   6.252  15.515  0.00  0.00    +0.000 OA
BRANCH  18  19
ATOM     19  C   UNL     1       6.681   5.246  15.312  0.00  0.00    +0.000 C 
BRANCH  19  20
ATOM     20  C   UNL     1       6.563   4.570  13.966  0.00  0.00    +0.000 A 
ATOM     21  C   UNL     1       5.514   3.681  13.680  0.00  0.00    +0.000 A 
ATOM     22  C   UNL     1       5.402   3.095  12.420  0.00  0.00    +0.000 A 
ATOM     23  C   UNL     1       6.335   3.384  11.427  0.00  0.00    +0.000 A 
ATOM     24  C   UNL     1       7.387   4.255  11.697  0.00  0.00    +0.000 A 
ATOM     25  C   UNL     1       7.503   4.843  12.957  0.00  0.00    +0.000 A 
ATOM     26 CL   UNL     1       8.833   5.918  13.222  0.00  0.00    +0.000 Cl
ENDBRANCH  19  20
ENDBRANCH  18  19
ENDBRANCH   8  18
TORSDOF 4
ENDMDL
MODEL 8
REMARK VINA RESULT:      -7.6      1.216      1.886
REMARK  Name = 
REMARK  4 active torsions:
REMARK  status: ('A' for Active; 'I' for Inactive)
REMARK    1  A    between atoms: C_4  and  N_5
REMARK    2  A    between atoms: C_14  and  O_15
REMARK    3  A    between atoms: O_15  and  C_16
REMARK    4  A    between atoms: C_16  and  C_17
REMARK                            x       y       z     vdW  Elec       q    Type
REMARK                         _______ _______ _______ _____ _____    ______ ____
ROOT
ATOM      1  O   UNL     1       2.506   1.695  18.228  0.00  0.00    +0.000 OA
ATOM      2  C   UNL     1       2.890   2.851  18.104  0.00  0.00    +0.000 A 
ATOM      3  C   UNL     1       3.901   3.217  17.098  0.00  0.00    +0.000 A 
ATOM      4  C   UNL     1       4.346   4.480  16.997  0.00  0.00    +0.000 A 
ATOM      5  O   UNL     1       3.878   5.492  17.827  0.00  0.00    +0.000 OA
ATOM      6  C   UNL     1       2.886   5.214  18.729  0.00  0.00    +0.000 A 
ATOM      7  C   UNL     1       2.414   6.287  19.478  0.00  0.00    +0.000 A 
ATOM      8  C   UNL     1       1.452   6.077  20.468  0.00  0.00    +0.000 A 
ATOM      9  C   UNL     1       0.917   4.801  20.655  0.00  0.00    +0.000 A 
ATOM     10  C   UNL     1       1.375   3.726  19.888  0.00  0.00    +0.000 A 
ATOM     11  C   UNL     1       2.369   3.943  18.930  0.00  0.00    +0.000 A 
ENDROOT
BRANCH   4  12
ATOM     12  N   UNL     1       5.285   4.904  16.059  0.00  0.00    +0.000 N 
ATOM     13  C   UNL     1       5.175   4.587  14.618  0.00  0.00    +0.000 C 
ATOM     14  C   UNL     1       6.536   4.155  14.055  0.00  0.00    +0.000 C 
ATOM     15  O   UNL     1       7.558   5.128  14.325  0.00  0.00    +0.000 OA
ATOM     16  C   UNL     1       7.680   5.336  15.741  0.00  0.00    +0.000 C 
ATOM     17  C   UNL     1       6.369   5.860  16.344  0.00  0.00    +0.000 C 
ENDBRANCH   4  12
BRANCH   8  18
ATOM     18  O   UNL     1       0.983   7.053  21.306  0.00  0.00    +0.000 OA
BRANCH  18  19
ATOM     19  C   UNL     1       1.652   8.315  21.179  0.00  0.00    +0.000 C 
BRANCH  19  20
ATOM     20  C   UNL     1       0.746   9.403  20.652  0.00  0.00    +0.000 A 
ATOM     21  C   UNL     1       0.715   9.736  19.288  0.00  0.00    +0.000 A 
ATOM     22  C   UNL     1      -0.154  10.719  18.816  0.00  0.00    +0.000 A 
ATOM     23  C   UNL     1      -1.002  11.388  19.696  0.00  0.00    +0.000 A 
ATOM     24  C   UNL     1      -0.976  11.077  21.053  0.00  0.00    +0.000 A 
ATOM     25  C   UNL     1      -0.107  10.094  21.530  0.00  0.00    +0.000 A 
ATOM     26 CL   UNL     1      -0.131   9.758  23.227  0.00  0.00    +0.000 Cl
ENDBRANCH  19  20
ENDBRANCH  18  19
ENDBRANCH   8  18
TORSDOF 4
ENDMDL
MODEL 9
REMARK VINA RESULT:      -7.6      2.834      5.343
REMARK  Name = 
REMARK  4 active torsions:
REMARK  status: ('A' for Active; 'I' for Inactive)
REMARK    1  A    between atoms: C_4  and  N_5
REMARK    2  A    between atoms: C_14  and  O_15
REMARK    3  A    between atoms: O_15  and  C_16
REMARK    4  A    between atoms: C_16  and  C_17
REMARK                            x       y       z     vdW  Elec       q    Type
REMARK                         _______ _______ _______ _____ _____    ______ ____
ROOT
ATOM      1  O   UNL     1       2.170   9.215  17.302  0.00  0.00    +0.000 OA
ATOM      2  C   UNL     1       2.023   8.604  18.352  0.00  0.00    +0.000 A 
ATOM      3  C   UNL     1       2.612   7.269  18.548  0.00  0.00    +0.000 A 
ATOM      4  C   UNL     1       2.412   6.588  19.687  0.00  0.00    +0.000 A 
ATOM      5  O   UNL     1       1.649   7.106  20.727  0.00  0.00    +0.000 OA
ATOM      6  C   UNL     1       1.142   8.373  20.621  0.00  0.00    +0.000 A 
ATOM      7  C   UNL     1       0.450   8.857  21.726  0.00  0.00    +0.000 A 
ATOM      8  C   UNL     1      -0.158  10.113  21.673  0.00  0.00    +0.000 A 
ATOM      9  C   UNL     1      -0.009  10.908  20.534  0.00  0.00    +0.000 A 
ATOM     10  C   UNL     1       0.705  10.431  19.431  0.00  0.00    +0.000 A 
ATOM     11  C   UNL     1       1.272   9.155  19.482  0.00  0.00    +0.000 A 
ENDROOT
BRANCH   4  12
ATOM     12  N   UNL     1       2.952   5.331  19.951  0.00  0.00    +0.000 N 
ATOM     13  C   UNL     1       4.268   4.901  19.431  0.00  0.00    +0.000 C 
ATOM     14  C   UNL     1       4.192   3.465  18.893  0.00  0.00    +0.000 C 
ATOM     15  O   UNL     1       3.667   2.555  19.873  0.00  0.00    +0.000 OA
ATOM     16  C   UNL     1       2.356   2.973  20.282  0.00  0.00    +0.000 C 
ATOM     17  C   UNL     1       2.387   4.371  20.915  0.00  0.00    +0.000 C 
ENDBRANCH   4  12
BRANCH   8  18
ATOM     18  O   UNL     1      -0.923  10.642  22.678  0.00  0.00    +0.000 OA
BRANCH  18  19
ATOM     19  C   UNL     1      -0.955  12.075  22.706  0.00  0.00    +0.000 C 
BRANCH  19  20
ATOM     20  C   UNL     1      -2.361  12.626  22.719  0.00  0.00    +0.000 A 
ATOM     21  C   UNL     1      -3.279  12.275  23.723  0.00  0.00    +0.000 A 
ATOM     22  C   UNL     1      -4.561  12.822  23.737  0.00  0.00    +0.000 A 
ATOM     23  C   UNL     1      -4.950  13.725  22.750  0.00  0.00    +0.000 A 
ATOM     24  C   UNL     1      -4.056  14.076  21.742  0.00  0.00    +0.000 A 
ATOM     25  C   UNL     1      -2.772  13.530  21.724  0.00  0.00    +0.000 A 
ATOM     26 CL   UNL     1      -1.713  14.013  20.443  0.00  0.00    +0.000 Cl
ENDBRANCH  19  20
ENDBRANCH  18  19
ENDBRANCH   8  18
TORSDOF 4
ENDMDL
