MODEL 1
REMARK VINA RESULT:      -8.7      0.000      0.000
REMARK  Name = 
REMARK  5 active torsions:
REMARK  status: ('A' for Active; 'I' for Inactive)
REMARK    1  A    between atoms: C_1  and  C_2
REMARK    2  A    between atoms: C_6  and  C_7
REMARK    3  A    between atoms: C_7  and  N_8
REMARK    4  A    between atoms: C_14  and  C_15
REMARK    5  A    between atoms: N_23  and  C_24
REMARK                            x       y       z     vdW  Elec       q    Type
REMARK                         _______ _______ _______ _____ _____    ______ ____
ROOT
ATOM      1  N   UNL     1       5.595   3.816  16.567  0.00  0.00    +0.000 N 
ATOM      2  C   UNL     1       4.799   4.469  17.448  0.00  0.00    +0.000 A 
ATOM      3  N   UNL     1       4.120   3.872  18.404  0.00  0.00    +0.000 NA
ATOM      4  C   UNL     1       3.376   4.852  19.023  0.00  0.00    +0.000 A 
ATOM      5  C   UNL     1       2.455   4.794  20.072  0.00  0.00    +0.000 A 
ATOM      6  N   UNL     1       1.812   5.925  20.492  0.00  0.00    +0.000 NA
ATOM      7  C   UNL     1       2.080   7.120  19.900  0.00  0.00    +0.000 A 
ATOM      8  C   UNL     1       2.994   7.249  18.856  0.00  0.00    +0.000 A 
ATOM      9  C   UNL     1       3.625   6.083  18.435  0.00  0.00    +0.000 A 
ATOM     10  N   UNL     1       4.524   5.821  17.430  0.00  0.00    +0.000 N 
ATOM     11  C   UNL     1       5.004   6.815  16.506  0.00  0.00    +0.000 C 
ATOM     12  H   UNL     1       5.709   2.832  16.813  0.00  0.00    +0.000 HD
ENDROOT
BRANCH   7  13
ATOM     13  C   UNL     1       1.308   8.293  20.366  0.00  0.00    +0.000 A 
ATOM     14  C   UNL     1       1.046   9.387  19.517  0.00  0.00    +0.000 A 
ATOM     15  C   UNL     1       0.231  10.449  19.920  0.00  0.00    +0.000 A 
ATOM     16  C   UNL     1      -0.327  10.446  21.193  0.00  0.00    +0.000 A 
ATOM     17  C   UNL     1      -0.058   9.394  22.064  0.00  0.00    +0.000 A 
ATOM     18  C   UNL     1       0.753   8.330  21.656  0.00  0.00    +0.000 A 
ENDBRANCH   7  13
BRANCH   1  19
ATOM     19  C   UNL     1       6.830   4.382  16.061  0.00  0.00    +0.000 C 
BRANCH  19  25
ATOM     20  C   UNL     1       5.291   2.486  11.679  0.00  0.00    +0.000 C 
ATOM     21  C   UNL     1       6.128   3.479  12.426  0.00  0.00    +0.000 A 
ATOM     22  C   UNL     1       7.003   4.344  11.759  0.00  0.00    +0.000 A 
ATOM     23  C   UNL     1       7.788   5.245  12.479  0.00  0.00    +0.000 A 
ATOM     24  C   UNL     1       7.709   5.284  13.870  0.00  0.00    +0.000 A 
ATOM     25  C   UNL     1       6.839   4.423  14.555  0.00  0.00    +0.000 A 
ATOM     26  C   UNL     1       6.052   3.525  13.823  0.00  0.00    +0.000 A 
ENDBRANCH  19  25
ENDBRANCH   1  19
TORSDOF 3
ENDMDL
MODEL 2
REMARK VINA RESULT:      -8.0      2.766      5.522
REMARK  Name = 
REMARK  5 active torsions:
REMARK  status: ('A' for Active; 'I' for Inactive)
REMARK    1  A    between atoms: C_1  and  C_2
REMARK    2  A    between atoms: C_6  and  C_7
REMARK    3  A    between atoms: C_7  and  N_8
REMARK    4  A    between atoms: C_14  and  C_15
REMARK    5  A    between atoms: N_23  and  C_24
REMARK                            x       y       z     vdW  Elec       q    Type
REMARK                         _______ _______ _______ _____ _____    ______ ____
ROOT
ATOM      1  N   UNL     1       2.291   7.341  19.274  0.00  0.00    +0.000 N 
ATOM      2  C   UNL     1       1.654   8.212  20.093  0.00  0.00    +0.000 A 
ATOM      3  N   UNL     1       1.553   8.054  21.395  0.00  0.00    +0.000 NA
ATOM      4  C   UNL     1       0.772   9.092  21.852  0.00  0.00    +0.000 A 
ATOM      5  C   UNL     1       0.311   9.410  23.133  0.00  0.00    +0.000 A 
ATOM      6  N   UNL     1      -0.494  10.498  23.328  0.00  0.00    +0.000 NA
ATOM      7  C   UNL     1      -0.836  11.289  22.275  0.00  0.00    +0.000 A 
ATOM      8  C   UNL     1      -0.402  11.034  20.976  0.00  0.00    +0.000 A 
ATOM      9  C   UNL     1       0.403   9.913  20.799  0.00  0.00    +0.000 A 
ATOM     10  N   UNL     1       0.964   9.335  19.686  0.00  0.00    +0.000 N 
ATOM     11  C   UNL     1       0.769   9.824  18.345  0.00  0.00    +0.000 C 
ATOM     12  H   UNL     1       2.792   6.621  19.798  0.00  0.00    +0.000 HD
ENDROOT
BRANCH   7  13
ATOM     13  C   UNL     1      -1.754  12.417  22.547  0.00  0.00    +0.000 A 
ATOM     14  C   UNL     1      -2.876  12.268  23.388  0.00  0.00    +0.000 A 
ATOM     15  C   UNL     1      -3.685  13.355  23.729  0.00  0.00    +0.000 A 
ATOM     16  C   UNL     1      -3.399  14.616  23.221  0.00  0.00    +0.000 A 
ATOM     17  C   UNL     1      -2.316  14.786  22.362  0.00  0.00    +0.000 A 
ATOM     18  C   UNL     1      -1.505  13.697  22.026  0.00  0.00    +0.000 A 
ENDBRANCH   7  13
BRANCH   1  19
ATOM     19  C   UNL     1       3.041   7.767  18.109  0.00  0.00    +0.000 C 
BRANCH  19  25
ATOM     20  C   UNL     1       3.597   2.807  17.595  0.00  0.00    +0.000 C 
ATOM     21  C   UNL     1       4.008   4.194  17.202  0.00  0.00    +0.000 A 
ATOM     22  C   UNL     1       5.069   4.418  16.318  0.00  0.00    +0.000 A 
ATOM     23  C   UNL     1       5.446   5.719  15.984  0.00  0.00    +0.000 A 
ATOM     24  C   UNL     1       4.769   6.805  16.535  0.00  0.00    +0.000 A 
ATOM     25  C   UNL     1       3.704   6.600  17.425  0.00  0.00    +0.000 A 
ATOM     26  C   UNL     1       3.331   5.290  17.750  0.00  0.00    +0.000 A 
ENDBRANCH  19  25
ENDBRANCH   1  19
TORSDOF 3
ENDMDL
MODEL 3
REMARK VINA RESULT:      -7.8      4.164     10.380
REMARK  Name = 
REMARK  5 active torsions:
REMARK  status: ('A' for Active; 'I' for Inactive)
REMARK    1  A    between atoms: C_1  and  C_2
REMARK    2  A    between atoms: C_6  and  C_7
REMARK    3  A    between atoms: C_7  and  N_8
REMARK    4  A    between atoms: C_14  and  C_15
REMARK    5  A    between atoms: N_23  and  C_24
REMARK                            x       y       z     vdW  Elec       q    Type
REMARK                         _______ _______ _______ _____ _____    ______ ____
ROOT
ATOM      1  N   UNL     1      -0.396  11.663  19.912  0.00  0.00    +0.000 N 
ATOM      2  C   UNL     1       0.368  10.560  19.725  0.00  0.00    +0.000 A 
ATOM      3  N   UNL     1       1.058  10.322  18.631  0.00  0.00    +0.000 NA
ATOM      4  C   UNL     1       1.627   9.079  18.792  0.00  0.00    +0.000 A 
ATOM      5  C   UNL     1       2.428   8.309  17.944  0.00  0.00    +0.000 A 
ATOM      6  N   UNL     1       2.848   7.065  18.330  0.00  0.00    +0.000 NA
ATOM      7  C   UNL     1       2.501   6.579  19.552  0.00  0.00    +0.000 A 
ATOM      8  C   UNL     1       1.714   7.298  20.448  0.00  0.00    +0.000 A 
ATOM      9  C   UNL     1       1.285   8.554  20.028  0.00  0.00    +0.000 A 
ATOM     10  N   UNL     1       0.477   9.503  20.606  0.00  0.00    +0.000 N 
ATOM     11  C   UNL     1      -0.171   9.335  21.881  0.00  0.00    +0.000 C 
ATOM     12  H   UNL     1      -0.271  12.345  19.162  0.00  0.00    +0.000 HD
ENDROOT
BRANCH   7  13
ATOM     13  C   UNL     1       2.943   5.206  19.882  0.00  0.00    +0.000 A 
ATOM     14  C   UNL     1       2.249   4.413  20.818  0.00  0.00    +0.000 A 
ATOM     15  C   UNL     1       2.600   3.081  21.055  0.00  0.00    +0.000 A 
ATOM     16  C   UNL     1       3.671   2.518  20.371  0.00  0.00    +0.000 A 
ATOM     17  C   UNL     1       4.396   3.287  19.464  0.00  0.00    +0.000 A 
ATOM     18  C   UNL     1       4.037   4.618  19.225  0.00  0.00    +0.000 A 
ENDBRANCH   7  13
BRANCH   1  19
ATOM     19  C   UNL     1      -0.533  12.311  21.201  0.00  0.00    +0.000 C 
BRANCH  19  25
ATOM     20  C   UNL     1      -4.204  12.539  24.614  0.00  0.00    +0.000 C 
ATOM     21  C   UNL     1      -3.773  12.638  23.182  0.00  0.00    +0.000 A 
ATOM     22  C   UNL     1      -4.700  12.836  22.152  0.00  0.00    +0.000 A 
ATOM     23  C   UNL     1      -4.276  12.904  20.825  0.00  0.00    +0.000 A 
ATOM     24  C   UNL     1      -2.923  12.769  20.517  0.00  0.00    +0.000 A 
ATOM     25  C   UNL     1      -1.980  12.569  21.535  0.00  0.00    +0.000 A 
ATOM     26  C   UNL     1      -2.416  12.506  22.864  0.00  0.00    +0.000 A 
ENDBRANCH  19  25
ENDBRANCH   1  19
TORSDOF 3
ENDMDL
MODEL 4
REMARK VINA RESULT:      -7.8      0.588      1.454
REMARK  Name = 
REMARK  5 active torsions:
REMARK  status: ('A' for Active; 'I' for Inactive)
REMARK    1  A    between atoms: C_1  and  C_2
REMARK    2  A    between atoms: C_6  and  C_7
REMARK    3  A    between atoms: C_7  and  N_8
REMARK    4  A    between atoms: C_14  and  C_15
REMARK    5  A    between atoms: N_23  and  C_24
REMARK                            x       y       z     vdW  Elec       q    Type
REMARK                         _______ _______ _______ _____ _____    ______ ____
ROOT
ATOM      1  N   UNL     1       5.382   3.836  17.043  0.00  0.00    +0.000 N 
ATOM      2  C   UNL     1       4.584   4.525  17.895  0.00  0.00    +0.000 A 
ATOM      3  N   UNL     1       3.875   3.964  18.851  0.00  0.00    +0.000 NA
ATOM      4  C   UNL     1       3.142   4.973  19.434  0.00  0.00    +0.000 A 
ATOM      5  C   UNL     1       2.200   4.958  20.467  0.00  0.00    +0.000 A 
ATOM      6  N   UNL     1       1.575   6.112  20.850  0.00  0.00    +0.000 NA
ATOM      7  C   UNL     1       1.880   7.287  20.238  0.00  0.00    +0.000 A 
ATOM      8  C   UNL     1       2.816   7.373  19.209  0.00  0.00    +0.000 A 
ATOM      9  C   UNL     1       3.428   6.185  18.825  0.00  0.00    +0.000 A 
ATOM     10  N   UNL     1       4.339   5.881  17.843  0.00  0.00    +0.000 N 
ATOM     11  C   UNL     1       4.858   6.845  16.906  0.00  0.00    +0.000 C 
ATOM     12  H   UNL     1       5.469   2.854  17.312  0.00  0.00    +0.000 HD
ENDROOT
BRANCH   7  13
ATOM     13  C   UNL     1       1.126   8.486  20.664  0.00  0.00    +0.000 A 
ATOM     14  C   UNL     1       0.623   9.413  19.727  0.00  0.00    +0.000 A 
ATOM     15  C   UNL     1      -0.177  10.490  20.118  0.00  0.00    +0.000 A 
ATOM     16  C   UNL     1      -0.478  10.674  21.462  0.00  0.00    +0.000 A 
ATOM     17  C   UNL     1       0.032   9.793  22.413  0.00  0.00    +0.000 A 
ATOM     18  C   UNL     1       0.828   8.713  22.018  0.00  0.00    +0.000 A 
ENDBRANCH   7  13
BRANCH   1  19
ATOM     19  C   UNL     1       6.638   4.364  16.549  0.00  0.00    +0.000 C 
BRANCH  19  25
ATOM     20  C   UNL     1       8.513   6.086  12.225  0.00  0.00    +0.000 C 
ATOM     21  C   UNL     1       7.585   5.153  12.943  0.00  0.00    +0.000 A 
ATOM     22  C   UNL     1       6.705   4.319  12.244  0.00  0.00    +0.000 A 
ATOM     23  C   UNL     1       5.836   3.474  12.934  0.00  0.00    +0.000 A 
ATOM     24  C   UNL     1       5.836   3.461  14.328  0.00  0.00    +0.000 A 
ATOM     25  C   UNL     1       6.710   4.291  15.046  0.00  0.00    +0.000 A 
ATOM     26  C   UNL     1       7.581   5.132  14.342  0.00  0.00    +0.000 A 
ENDBRANCH  19  25
ENDBRANCH   1  19
TORSDOF 3
ENDMDL
MODEL 5
REMARK VINA RESULT:      -7.8      2.992      9.120
REMARK  Name = 
REMARK  5 active torsions:
REMARK  status: ('A' for Active; 'I' for Inactive)
REMARK    1  A    between atoms: C_1  and  C_2
REMARK    2  A    between atoms: C_6  and  C_7
REMARK    3  A    between atoms: C_7  and  N_8
REMARK    4  A    between atoms: C_14  and  C_15
REMARK    5  A    between atoms: N_23  and  C_24
REMARK                            x       y       z     vdW  Elec       q    Type
REMARK                         _______ _______ _______ _____ _____    ______ ____
ROOT
ATOM      1  N   UNL     1       0.179  11.802  20.490  0.00  0.00    +0.000 N 
ATOM      2  C   UNL     1       0.689  10.607  20.107  0.00  0.00    +0.000 A 
ATOM      3  N   UNL     1       0.606   9.509  20.828  0.00  0.00    +0.000 NA
ATOM      4  C   UNL     1       1.309   8.542  20.146  0.00  0.00    +0.000 A 
ATOM      5  C   UNL     1       1.583   7.206  20.452  0.00  0.00    +0.000 A 
ATOM      6  N   UNL     1       2.347   6.446  19.610  0.00  0.00    +0.000 NA
ATOM      7  C   UNL     1       2.830   6.984  18.458  0.00  0.00    +0.000 A 
ATOM      8  C   UNL     1       2.586   8.305  18.089  0.00  0.00    +0.000 A 
ATOM      9  C   UNL     1       1.820   9.064  18.968  0.00  0.00    +0.000 A 
ATOM     10  N   UNL     1       1.425  10.380  18.963  0.00  0.00    +0.000 N 
ATOM     11  C   UNL     1       1.805  11.326  17.945  0.00  0.00    +0.000 C 
ATOM     12  H   UNL     1      -0.387  11.722  21.336  0.00  0.00    +0.000 HD
ENDROOT
BRANCH   7  13
ATOM     13  C   UNL     1       3.695   6.123  17.622  0.00  0.00    +0.000 A 
ATOM     14  C   UNL     1       3.551   4.720  17.612  0.00  0.00    +0.000 A 
ATOM     15  C   UNL     1       4.295   3.913  16.747  0.00  0.00    +0.000 A 
ATOM     16  C   UNL     1       5.216   4.493  15.882  0.00  0.00    +0.000 A 
ATOM     17  C   UNL     1       5.403   5.873  15.894  0.00  0.00    +0.000 A 
ATOM     18  C   UNL     1       4.652   6.678  16.757  0.00  0.00    +0.000 A 
ENDBRANCH   7  13
BRANCH   1  19
ATOM     19  C   UNL     1      -0.400  12.742  19.551  0.00  0.00    +0.000 C 
BRANCH  19  25
ATOM     20  C   UNL     1      -3.165  10.853  15.814  0.00  0.00    +0.000 C 
ATOM     21  C   UNL     1      -3.086  11.381  17.215  0.00  0.00    +0.000 A 
ATOM     22  C   UNL     1      -4.234  11.547  17.998  0.00  0.00    +0.000 A 
ATOM     23  C   UNL     1      -4.137  12.060  19.291  0.00  0.00    +0.000 A 
ATOM     24  C   UNL     1      -2.893  12.415  19.810  0.00  0.00    +0.000 A 
ATOM     25  C   UNL     1      -1.732  12.257  19.039  0.00  0.00    +0.000 A 
ATOM     26  C   UNL     1      -1.840  11.738  17.744  0.00  0.00    +0.000 A 
ENDBRANCH  19  25
ENDBRANCH   1  19
TORSDOF 3
ENDMDL
MODEL 6
REMARK VINA RESULT:      -7.7      2.718      5.495
REMARK  Name = 
REMARK  5 active torsions:
REMARK  status: ('A' for Active; 'I' for Inactive)
REMARK    1  A    between atoms: C_1  and  C_2
REMARK    2  A    between atoms: C_6  and  C_7
REMARK    3  A    between atoms: C_7  and  N_8
REMARK    4  A    between atoms: C_14  and  C_15
REMARK    5  A    between atoms: N_23  and  C_24
REMARK                            x       y       z     vdW  Elec       q    Type
REMARK                         _______ _______ _______ _____ _____    ______ ____
ROOT
ATOM      1  N   UNL     1       2.216   7.120  19.360  0.00  0.00    +0.000 N 
ATOM      2  C   UNL     1       1.625   8.075  20.119  0.00  0.00    +0.000 A 
ATOM      3  N   UNL     1       1.449   7.972  21.419  0.00  0.00    +0.000 NA
ATOM      4  C   UNL     1       0.748   9.093  21.805  0.00  0.00    +0.000 A 
ATOM      5  C   UNL     1       0.258   9.496  23.051  0.00  0.00    +0.000 A 
ATOM      6  N   UNL     1      -0.450  10.660  23.172  0.00  0.00    +0.000 NA
ATOM      7  C   UNL     1      -0.665  11.442  22.080  0.00  0.00    +0.000 A 
ATOM      8  C   UNL     1      -0.196  11.103  20.812  0.00  0.00    +0.000 A 
ATOM      9  C   UNL     1       0.507   9.907  20.710  0.00  0.00    +0.000 A 
ATOM     10  N   UNL     1       1.063   9.242  19.645  0.00  0.00    +0.000 N 
ATOM     11  C   UNL     1       0.979   9.700  18.281  0.00  0.00    +0.000 C 
ATOM     12  H   UNL     1       2.621   6.377  19.930  0.00  0.00    +0.000 HD
ENDROOT
BRANCH   7  13
ATOM     13  C   UNL     1      -1.485  12.658  22.272  0.00  0.00    +0.000 A 
ATOM     14  C   UNL     1      -1.230  13.562  23.323  0.00  0.00    +0.000 A 
ATOM     15  C   UNL     1      -1.935  14.762  23.446  0.00  0.00    +0.000 A 
ATOM     16  C   UNL     1      -2.927  15.078  22.525  0.00  0.00    +0.000 A 
ATOM     17  C   UNL     1      -3.224  14.188  21.495  0.00  0.00    +0.000 A 
ATOM     18  C   UNL     1      -2.512  12.990  21.372  0.00  0.00    +0.000 A 
ENDBRANCH   7  13
BRANCH   1  19
ATOM     19  C   UNL     1       3.056   7.435  18.222  0.00  0.00    +0.000 C 
BRANCH  19  25
ATOM     20  C   UNL     1       6.422   5.311  15.167  0.00  0.00    +0.000 C 
ATOM     21  C   UNL     1       5.273   5.159  16.118  0.00  0.00    +0.000 A 
ATOM     22  C   UNL     1       4.689   3.912  16.363  0.00  0.00    +0.000 A 
ATOM     23  C   UNL     1       3.607   3.799  17.237  0.00  0.00    +0.000 A 
ATOM     24  C   UNL     1       3.099   4.933  17.867  0.00  0.00    +0.000 A 
ATOM     25  C   UNL     1       3.670   6.192  17.632  0.00  0.00    +0.000 A 
ATOM     26  C   UNL     1       4.758   6.293  16.757  0.00  0.00    +0.000 A 
ENDBRANCH  19  25
ENDBRANCH   1  19
TORSDOF 3
ENDMDL
MODEL 7
REMARK VINA RESULT:      -7.7      4.286     10.478
REMARK  Name = 
REMARK  5 active torsions:
REMARK  status: ('A' for Active; 'I' for Inactive)
REMARK    1  A    between atoms: C_1  and  C_2
REMARK    2  A    between atoms: C_6  and  C_7
REMARK    3  A    between atoms: C_7  and  N_8
REMARK    4  A    between atoms: C_14  and  C_15
REMARK    5  A    between atoms: N_23  and  C_24
REMARK                            x       y       z     vdW  Elec       q    Type
REMARK                         _______ _______ _______ _____ _____    ______ ____
ROOT
ATOM      1  N   UNL     1      -0.398  11.675  20.319  0.00  0.00    +0.000 N 
ATOM      2  C   UNL     1       0.325  10.552  20.087  0.00  0.00    +0.000 A 
ATOM      3  N   UNL     1       1.018  10.340  18.988  0.00  0.00    +0.000 NA
ATOM      4  C   UNL     1       1.535   9.068  19.095  0.00  0.00    +0.000 A 
ATOM      5  C   UNL     1       2.315   8.308  18.219  0.00  0.00    +0.000 A 
ATOM      6  N   UNL     1       2.682   7.033  18.548  0.00  0.00    +0.000 NA
ATOM      7  C   UNL     1       2.302   6.502  19.742  0.00  0.00    +0.000 A 
ATOM      8  C   UNL     1       1.533   7.209  20.664  0.00  0.00    +0.000 A 
ATOM      9  C   UNL     1       1.159   8.499  20.301  0.00  0.00    +0.000 A 
ATOM     10  N   UNL     1       0.382   9.451  20.916  0.00  0.00    +0.000 N 
ATOM     11  C   UNL     1      -0.287   9.248  22.175  0.00  0.00    +0.000 C 
ATOM     12  H   UNL     1      -0.237  12.386  19.604  0.00  0.00    +0.000 HD
ENDROOT
BRANCH   7  13
ATOM     13  C   UNL     1       2.686   5.099  20.010  0.00  0.00    +0.000 A 
ATOM     14  C   UNL     1       3.744   4.478  19.315  0.00  0.00    +0.000 A 
ATOM     15  C   UNL     1       4.176   3.189  19.637  0.00  0.00    +0.000 A 
ATOM     16  C   UNL     1       3.544   2.482  20.654  0.00  0.00    +0.000 A 
ATOM     17  C   UNL     1       2.474   3.058  21.335  0.00  0.00    +0.000 A 
ATOM     18  C   UNL     1       2.048   4.351  21.014  0.00  0.00    +0.000 A 
ENDBRANCH   7  13
BRANCH   1  19
ATOM     19  C   UNL     1      -0.524  12.266  21.636  0.00  0.00    +0.000 C 
BRANCH  19  25
ATOM     20  C   UNL     1      -4.425  12.337  24.791  0.00  0.00    +0.000 C 
ATOM     21  C   UNL     1      -3.858  12.656  23.440  0.00  0.00    +0.000 A 
ATOM     22  C   UNL     1      -4.656  13.186  22.421  0.00  0.00    +0.000 A 
ATOM     23  C   UNL     1      -4.110  13.455  21.165  0.00  0.00    +0.000 A 
ATOM     24  C   UNL     1      -2.764  13.190  20.919  0.00  0.00    +0.000 A 
ATOM     25  C   UNL     1      -1.949  12.657  21.928  0.00  0.00    +0.000 A 
ATOM     26  C   UNL     1      -2.507  12.395  23.186  0.00  0.00    +0.000 A 
ENDBRANCH  19  25
ENDBRANCH   1  19
TORSDOF 3
ENDMDL
MODEL 8
REMARK VINA RESULT:      -7.6      3.533     11.126
REMARK  Name = 
REMARK  5 active torsions:
REMARK  status: ('A' for Active; 'I' for Inactive)
REMARK    1  A    between atoms: C_1  and  C_2
REMARK    2  A    between atoms: C_6  and  C_7
REMARK    3  A    between atoms: C_7  and  N_8
REMARK    4  A    between atoms: C_14  and  C_15
REMARK    5  A    between atoms: N_23  and  C_24
REMARK                            x       y       z     vdW  Elec       q    Type
REMARK                         _______ _______ _______ _____ _____    ______ ____
ROOT
ATOM      1  N   UNL     1      -0.930  11.565  21.276  0.00  0.00    +0.000 N 
ATOM      2  C   UNL     1      -0.089  10.801  20.538  0.00  0.00    +0.000 A 
ATOM      3  N   UNL     1       0.402  11.166  19.374  0.00  0.00    +0.000 NA
ATOM      4  C   UNL     1       1.136  10.097  18.909  0.00  0.00    +0.000 A 
ATOM      5  C   UNL     1       1.846   9.907  17.720  0.00  0.00    +0.000 A 
ATOM      6  N   UNL     1       2.478   8.720  17.474  0.00  0.00    +0.000 NA
ATOM      7  C   UNL     1       2.432   7.721  18.396  0.00  0.00    +0.000 A 
ATOM      8  C   UNL     1       1.749   7.848  19.604  0.00  0.00    +0.000 A 
ATOM      9  C   UNL     1       1.102   9.059  19.827  0.00  0.00    +0.000 A 
ATOM     10  N   UNL     1       0.312   9.519  20.852  0.00  0.00    +0.000 N 
ATOM     11  C   UNL     1      -0.056   8.725  21.997  0.00  0.00    +0.000 C 
ATOM     12  H   UNL     1      -1.033  12.504  20.888  0.00  0.00    +0.000 HD
ENDROOT
BRANCH   7  13
ATOM     13  C   UNL     1       3.089   6.444  18.041  0.00  0.00    +0.000 A 
ATOM     14  C   UNL     1       2.375   5.228  18.020  0.00  0.00    +0.000 A 
ATOM     15  C   UNL     1       2.966   4.038  17.586  0.00  0.00    +0.000 A 
ATOM     16  C   UNL     1       4.295   4.036  17.179  0.00  0.00    +0.000 A 
ATOM     17  C   UNL     1       5.034   5.216  17.221  0.00  0.00    +0.000 A 
ATOM     18  C   UNL     1       4.438   6.406  17.650  0.00  0.00    +0.000 A 
ENDBRANCH   7  13
BRANCH   1  19
ATOM     19  C   UNL     1      -0.895  11.592  22.725  0.00  0.00    +0.000 C 
BRANCH  19  25
ATOM     20  C   UNL     1      -1.753  16.111  24.729  0.00  0.00    +0.000 C 
ATOM     21  C   UNL     1      -2.280  14.777  24.292  0.00  0.00    +0.000 A 
ATOM     22  C   UNL     1      -3.614  14.415  24.506  0.00  0.00    +0.000 A 
ATOM     23  C   UNL     1      -4.076  13.160  24.110  0.00  0.00    +0.000 A 
ATOM     24  C   UNL     1      -3.207  12.256  23.501  0.00  0.00    +0.000 A 
ATOM     25  C   UNL     1      -1.865  12.602  23.280  0.00  0.00    +0.000 A 
ATOM     26  C   UNL     1      -1.413  13.866  23.678  0.00  0.00    +0.000 A 
ENDBRANCH  19  25
ENDBRANCH   1  19
TORSDOF 3
ENDMDL
MODEL 9
REMARK VINA RESULT:      -7.6      2.704      5.454
REMARK  Name = 
REMARK  5 active torsions:
REMARK  status: ('A' for Active; 'I' for Inactive)
REMARK    1  A    between atoms: C_1  and  C_2
REMARK    2  A    between atoms: C_6  and  C_7
REMARK    3  A    between atoms: C_7  and  N_8
REMARK    4  A    between atoms: C_14  and  C_15
REMARK    5  A    between atoms: N_23  and  C_24
REMARK                            x       y       z     vdW  Elec       q    Type
REMARK                         _______ _______ _______ _____ _____    ______ ____
ROOT
ATOM      1  N   UNL     1       2.222   7.182  19.185  0.00  0.00    +0.000 N 
ATOM      2  C   UNL     1       1.661   8.084  20.027  0.00  0.00    +0.000 A 
ATOM      3  N   UNL     1       1.479   7.872  21.313  0.00  0.00    +0.000 NA
ATOM      4  C   UNL     1       0.814   8.975  21.798  0.00  0.00    +0.000 A 
ATOM      5  C   UNL     1       0.335   9.282  23.075  0.00  0.00    +0.000 A 
ATOM      6  N   UNL     1      -0.336  10.452  23.300  0.00  0.00    +0.000 NA
ATOM      7  C   UNL     1      -0.525  11.334  22.282  0.00  0.00    +0.000 A 
ATOM      8  C   UNL     1      -0.066  11.094  20.988  0.00  0.00    +0.000 A 
ATOM      9  C   UNL     1       0.600   9.891  20.779  0.00  0.00    +0.000 A 
ATOM     10  N   UNL     1       1.136   9.305  19.658  0.00  0.00    +0.000 N 
ATOM     11  C   UNL     1       1.068   9.885  18.341  0.00  0.00    +0.000 C 
ATOM     12  H   UNL     1       2.603   6.378  19.686  0.00  0.00    +0.000 HD
ENDROOT
BRANCH   7  13
ATOM     13  C   UNL     1      -1.307  12.554  22.581  0.00  0.00    +0.000 A 
ATOM     14  C   UNL     1      -2.599  12.483  23.142  0.00  0.00    +0.000 A 
ATOM     15  C   UNL     1      -3.297  13.632  23.522  0.00  0.00    +0.000 A 
ATOM     16  C   UNL     1      -2.723  14.884  23.332  0.00  0.00    +0.000 A 
ATOM     17  C   UNL     1      -1.462  14.986  22.750  0.00  0.00    +0.000 A 
ATOM     18  C   UNL     1      -0.763  13.833  22.376  0.00  0.00    +0.000 A 
ENDBRANCH   7  13
BRANCH   1  19
ATOM     19  C   UNL     1       3.073   7.570  18.078  0.00  0.00    +0.000 C 
BRANCH  19  25
ATOM     20  C   UNL     1       6.049   5.199  14.807  0.00  0.00    +0.000 C 
ATOM     21  C   UNL     1       5.537   5.343  16.208  0.00  0.00    +0.000 A 
ATOM     22  C   UNL     1       5.916   4.452  17.218  0.00  0.00    +0.000 A 
ATOM     23  C   UNL     1       5.409   4.594  18.510  0.00  0.00    +0.000 A 
ATOM     24  C   UNL     1       4.515   5.623  18.800  0.00  0.00    +0.000 A 
ATOM     25  C   UNL     1       4.122   6.525  17.800  0.00  0.00    +0.000 A 
ATOM     26  C   UNL     1       4.641   6.376  16.507  0.00  0.00    +0.000 A 
ENDBRANCH  19  25
ENDBRANCH   1  19
TORSDOF 3
ENDMDL
