MODEL 1
REMARK VINA RESULT:      -8.0      0.000      0.000
REMARK  Name = 
REMARK  8 active torsions:
REMARK  status: ('A' for Active; 'I' for Inactive)
REMARK    1  A    between atoms: C_2  and  C_4
REMARK    2  A    between atoms: C_7  and  C_8
REMARK    3  A    between atoms: N_10  and  C_11
REMARK    4  A    between atoms: C_15  and  C_16
REMARK    5  A    between atoms: N_18  and  C_19
REMARK    6  A    between atoms: C_19  and  C_20
REMARK    7  A    between atoms: C_20  and  C_21
REMARK    8  A    between atoms: C_21  and  O_23
REMARK                            x       y       z     vdW  Elec       q    Type
REMARK                         _______ _______ _______ _____ _____    ______ ____
ROOT
ATOM      1  C   UNL     1       1.496   7.728  20.489  0.00  0.00    +0.000 C 
ATOM      2  O   UNL     1       2.028   7.997  19.417  0.00  0.00    +0.000 OA
ATOM      3  N   UNL     1       1.479   6.478  21.099  0.00  0.00    +0.000 N 
ATOM      4  H   UNL     1       0.829   6.333  21.861  0.00  0.00    +0.000 HD
ENDROOT
BRANCH   1   8
ATOM      5  C   UNL     1      -0.503  11.054  22.319  0.00  0.00    +0.000 A 
ATOM      6  C   UNL     1       0.088  11.171  21.058  0.00  0.00    +0.000 A 
ATOM      7  C   UNL     1       0.717  10.068  20.483  0.00  0.00    +0.000 A 
ATOM      8  C   UNL     1       0.745   8.831  21.147  0.00  0.00    +0.000 A 
ATOM      9  C   UNL     1       0.154   8.711  22.409  0.00  0.00    +0.000 A 
ATOM     10  C   UNL     1      -0.466   9.827  22.996  0.00  0.00    +0.000 A 
BRANCH   5  12
ATOM     11  N   UNL     1      -0.476  13.309  23.145  0.00  0.00    +0.000 NA
ATOM     12  C   UNL     1      -1.174  12.247  22.910  0.00  0.00    +0.000 C 
ATOM     13  N   UNL     1      -2.504  12.214  23.216  0.00  0.00    +0.000 N 
ATOM     14  H   UNL     1      -1.075  14.050  23.512  0.00  0.00    +0.000 HD
ATOM     15  H   UNL     1      -2.810  12.913  23.883  0.00  0.00    +0.000 HD
ATOM     16  H   UNL     1      -2.875  11.299  23.447  0.00  0.00    +0.000 HD
ENDBRANCH   5  12
ENDBRANCH   1   8
BRANCH   3  17
ATOM     17  C   UNL     1       2.119   5.325  20.566  0.00  0.00    +0.000 A 
ATOM     18  C   UNL     1       1.646   4.030  20.813  0.00  0.00    +0.000 A 
ATOM     19  C   UNL     1       2.316   2.906  20.332  0.00  0.00    +0.000 A 
ATOM     20  C   UNL     1       3.482   3.059  19.594  0.00  0.00    +0.000 A 
ATOM     21  C   UNL     1       3.978   4.343  19.330  0.00  0.00    +0.000 A 
ATOM     22  C   UNL     1       3.272   5.477  19.783  0.00  0.00    +0.000 A 
BRANCH  21  23
ATOM     23  C   UNL     1       5.255   4.516  18.574  0.00  0.00    +0.000 C 
ATOM     24  O   UNL     1       5.330   4.231  17.385  0.00  0.00    +0.000 OA
ATOM     25  N   UNL     1       6.314   5.043  19.291  0.00  0.00    +0.000 N 
ATOM     26  H   UNL     1       6.146   5.444  20.205  0.00  0.00    +0.000 HD
BRANCH  25  27
ATOM     27  C   UNL     1       7.633   5.230  18.718  0.00  0.00    +0.000 C 
BRANCH  27  28
ATOM     28  C   UNL     1       8.054   6.689  18.721  0.00  0.00    +0.000 C 
BRANCH  28  29
ATOM     29  C   UNL     1       7.558   7.346  17.466  0.00  0.00    +0.000 C 
ATOM     30  O   UNL     1       7.546   8.554  17.294  0.00  0.00    +0.000 OA
BRANCH  29  31
ATOM     31  O   UNL     1       7.167   6.468  16.517  0.00  0.00    +0.000 OA
ATOM     32  H   UNL     1       7.849   6.270  15.845  0.00  0.00    +0.000 HD
ENDBRANCH  29  31
ENDBRANCH  28  29
ENDBRANCH  27  28
ENDBRANCH  25  27
ENDBRANCH  21  23
ENDBRANCH   3  17
TORSDOF 8
ENDMDL
MODEL 2
REMARK VINA RESULT:      -8.0      5.451      7.994
REMARK  Name = 
REMARK  8 active torsions:
REMARK  status: ('A' for Active; 'I' for Inactive)
REMARK    1  A    between atoms: C_2  and  C_4
REMARK    2  A    between atoms: C_7  and  C_8
REMARK    3  A    between atoms: N_10  and  C_11
REMARK    4  A    between atoms: C_15  and  C_16
REMARK    5  A    between atoms: N_18  and  C_19
REMARK    6  A    between atoms: C_19  and  C_20
REMARK    7  A    between atoms: C_20  and  C_21
REMARK    8  A    between atoms: C_21  and  O_23
REMARK                            x       y       z     vdW  Elec       q    Type
REMARK                         _______ _______ _______ _____ _____    ______ ____
ROOT
ATOM      1  C   UNL     1       7.840   7.998  18.122  0.00  0.00    +0.000 C 
ATOM      2  O   UNL     1       8.390   7.112  18.769  0.00  0.00    +0.000 OA
ATOM      3  N   UNL     1       6.814   7.815  17.200  0.00  0.00    +0.000 N 
ATOM      4  H   UNL     1       6.596   8.582  16.577  0.00  0.00    +0.000 HD
ENDROOT
BRANCH   1   8
ATOM      5  C   UNL     1       9.394  11.988  18.391  0.00  0.00    +0.000 A 
ATOM      6  C   UNL     1       8.378  11.667  17.488  0.00  0.00    +0.000 A 
ATOM      7  C   UNL     1       7.882  10.366  17.434  0.00  0.00    +0.000 A 
ATOM      8  C   UNL     1       8.379   9.373  18.296  0.00  0.00    +0.000 A 
ATOM      9  C   UNL     1       9.396   9.691  19.202  0.00  0.00    +0.000 A 
ATOM     10  C   UNL     1       9.907  11.000  19.244  0.00  0.00    +0.000 A 
BRANCH   5  12
ATOM     11  N   UNL     1       9.401  14.264  17.625  0.00  0.00    +0.000 NA
ATOM     12  C   UNL     1       9.903  13.388  18.432  0.00  0.00    +0.000 C 
ATOM     13  N   UNL     1      10.898  13.739  19.298  0.00  0.00    +0.000 N 
ATOM     14  H   UNL     1       9.820  15.180  17.794  0.00  0.00    +0.000 HD
ATOM     15  H   UNL     1      11.397  14.588  19.060  0.00  0.00    +0.000 HD
ATOM     16  H   UNL     1      11.539  12.994  19.550  0.00  0.00    +0.000 HD
ENDBRANCH   5  12
ENDBRANCH   1   8
BRANCH   3  17
ATOM     17  C   UNL     1       6.229   6.553  16.903  0.00  0.00    +0.000 A 
ATOM     18  C   UNL     1       6.758   5.699  15.927  0.00  0.00    +0.000 A 
ATOM     19  C   UNL     1       6.141   4.491  15.605  0.00  0.00    +0.000 A 
ATOM     20  C   UNL     1       4.973   4.116  16.256  0.00  0.00    +0.000 A 
ATOM     21  C   UNL     1       4.422   4.950  17.238  0.00  0.00    +0.000 A 
ATOM     22  C   UNL     1       5.073   6.150  17.589  0.00  0.00    +0.000 A 
BRANCH  21  23
ATOM     23  C   UNL     1       3.141   4.576  17.912  0.00  0.00    +0.000 C 
ATOM     24  O   UNL     1       2.503   5.398  18.557  0.00  0.00    +0.000 OA
ATOM     25  N   UNL     1       2.721   3.271  17.729  0.00  0.00    +0.000 N 
ATOM     26  H   UNL     1       3.175   2.696  17.031  0.00  0.00    +0.000 HD
BRANCH  25  27
ATOM     27  C   UNL     1       1.526   2.738  18.352  0.00  0.00    +0.000 C 
BRANCH  27  28
ATOM     28  C   UNL     1       1.823   2.084  19.690  0.00  0.00    +0.000 C 
BRANCH  28  29
ATOM     29  C   UNL     1       1.308   2.966  20.791  0.00  0.00    +0.000 C 
ATOM     30  O   UNL     1       1.559   2.789  21.972  0.00  0.00    +0.000 OA
BRANCH  29  31
ATOM     31  O   UNL     1       0.577   4.011  20.348  0.00  0.00    +0.000 OA
ATOM     32  H   UNL     1       0.658   4.820  20.891  0.00  0.00    +0.000 HD
ENDBRANCH  29  31
ENDBRANCH  28  29
ENDBRANCH  27  28
ENDBRANCH  25  27
ENDBRANCH  21  23
ENDBRANCH   3  17
TORSDOF 8
ENDMDL
MODEL 3
REMARK VINA RESULT:      -8.0      1.416      1.862
REMARK  Name = 
REMARK  8 active torsions:
REMARK  status: ('A' for Active; 'I' for Inactive)
REMARK    1  A    between atoms: C_2  and  C_4
REMARK    2  A    between atoms: C_7  and  C_8
REMARK    3  A    between atoms: N_10  and  C_11
REMARK    4  A    between atoms: C_15  and  C_16
REMARK    5  A    between atoms: N_18  and  C_19
REMARK    6  A    between atoms: C_19  and  C_20
REMARK    7  A    between atoms: C_20  and  C_21
REMARK    8  A    between atoms: C_21  and  O_23
REMARK                            x       y       z     vdW  Elec       q    Type
REMARK                         _______ _______ _______ _____ _____    ______ ____
ROOT
ATOM      1  C   UNL     1       1.467   7.808  20.366  0.00  0.00    +0.000 C 
ATOM      2  O   UNL     1       1.947   8.147  19.289  0.00  0.00    +0.000 OA
ATOM      3  N   UNL     1       1.543   6.537  20.927  0.00  0.00    +0.000 N 
ATOM      4  H   UNL     1       0.929   6.325  21.703  0.00  0.00    +0.000 HD
ENDROOT
BRANCH   1   8
ATOM      5  C   UNL     1      -0.725  10.941  22.310  0.00  0.00    +0.000 A 
ATOM      6  C   UNL     1      -0.579  10.916  20.922  0.00  0.00    +0.000 A 
ATOM      7  C   UNL     1       0.127   9.877  20.317  0.00  0.00    +0.000 A 
ATOM      8  C   UNL     1       0.674   8.838  21.088  0.00  0.00    +0.000 A 
ATOM      9  C   UNL     1       0.528   8.860  22.479  0.00  0.00    +0.000 A 
ATOM     10  C   UNL     1      -0.169   9.916  23.090  0.00  0.00    +0.000 A 
BRANCH   5  12
ATOM     11  N   UNL     1      -2.679  11.838  23.381  0.00  0.00    +0.000 NA
ATOM     12  C   UNL     1      -1.488  12.061  22.933  0.00  0.00    +0.000 C 
ATOM     13  N   UNL     1      -0.943  13.310  23.015  0.00  0.00    +0.000 N 
ATOM     14  H   UNL     1      -3.059  12.684  23.809  0.00  0.00    +0.000 HD
ATOM     15  H   UNL     1      -1.608  14.062  23.149  0.00  0.00    +0.000 HD
ATOM     16  H   UNL     1      -0.269  13.539  22.291  0.00  0.00    +0.000 HD
ENDBRANCH   5  12
ENDBRANCH   1   8
BRANCH   3  17
ATOM     17  C   UNL     1       2.233   5.445  20.331  0.00  0.00    +0.000 A 
ATOM     18  C   UNL     1       1.657   4.173  20.220  0.00  0.00    +0.000 A 
ATOM     19  C   UNL     1       2.365   3.098  19.686  0.00  0.00    +0.000 A 
ATOM     20  C   UNL     1       3.673   3.277  19.254  0.00  0.00    +0.000 A 
ATOM     21  C   UNL     1       4.274   4.538  19.353  0.00  0.00    +0.000 A 
ATOM     22  C   UNL     1       3.538   5.632  19.854  0.00  0.00    +0.000 A 
BRANCH  21  23
ATOM     23  C   UNL     1       5.696   4.730  18.933  0.00  0.00    +0.000 C 
ATOM     24  O   UNL     1       6.533   5.159  19.717  0.00  0.00    +0.000 OA
ATOM     25  N   UNL     1       5.996   4.363  17.634  0.00  0.00    +0.000 N 
ATOM     26  H   UNL     1       5.322   3.834  17.098  0.00  0.00    +0.000 HD
BRANCH  25  27
ATOM     27  C   UNL     1       7.317   4.529  17.059  0.00  0.00    +0.000 C 
BRANCH  27  28
ATOM     28  C   UNL     1       7.264   4.721  15.553  0.00  0.00    +0.000 C 
BRANCH  28  29
ATOM     29  C   UNL     1       5.874   5.132  15.161  0.00  0.00    +0.000 C 
ATOM     30  O   UNL     1       5.072   4.382  14.629  0.00  0.00    +0.000 OA
BRANCH  29  31
ATOM     31  O   UNL     1       5.573   6.405  15.497  0.00  0.00    +0.000 OA
ATOM     32  H   UNL     1       4.620   6.616  15.463  0.00  0.00    +0.000 HD
ENDBRANCH  29  31
ENDBRANCH  28  29
ENDBRANCH  27  28
ENDBRANCH  25  27
ENDBRANCH  21  23
ENDBRANCH   3  17
TORSDOF 8
ENDMDL
MODEL 4
REMARK VINA RESULT:      -8.0      4.072      5.256
REMARK  Name = 
REMARK  8 active torsions:
REMARK  status: ('A' for Active; 'I' for Inactive)
REMARK    1  A    between atoms: C_2  and  C_4
REMARK    2  A    between atoms: C_7  and  C_8
REMARK    3  A    between atoms: N_10  and  C_11
REMARK    4  A    between atoms: C_15  and  C_16
REMARK    5  A    between atoms: N_18  and  C_19
REMARK    6  A    between atoms: C_19  and  C_20
REMARK    7  A    between atoms: C_20  and  C_21
REMARK    8  A    between atoms: C_21  and  O_23
REMARK                            x       y       z     vdW  Elec       q    Type
REMARK                         _______ _______ _______ _____ _____    ______ ____
ROOT
ATOM      1  C   UNL     1       3.179   6.646  18.517  0.00  0.00    +0.000 C 
ATOM      2  O   UNL     1       2.945   5.519  18.941  0.00  0.00    +0.000 OA
ATOM      3  N   UNL     1       4.299   7.024  17.782  0.00  0.00    +0.000 N 
ATOM      4  H   UNL     1       4.486   8.013  17.681  0.00  0.00    +0.000 HD
ENDROOT
BRANCH   1   8
ATOM      5  C   UNL     1       0.498   9.857  19.472  0.00  0.00    +0.000 A 
ATOM      6  C   UNL     1       0.979   9.680  18.173  0.00  0.00    +0.000 A 
ATOM      7  C   UNL     1       1.837   8.618  17.889  0.00  0.00    +0.000 A 
ATOM      8  C   UNL     1       2.207   7.708  18.893  0.00  0.00    +0.000 A 
ATOM      9  C   UNL     1       1.727   7.882  20.196  0.00  0.00    +0.000 A 
ATOM     10  C   UNL     1       0.875   8.962  20.484  0.00  0.00    +0.000 A 
BRANCH   5  12
ATOM     11  N   UNL     1      -0.075  11.888  20.617  0.00  0.00    +0.000 NA
ATOM     12  C   UNL     1      -0.422  10.997  19.748  0.00  0.00    +0.000 C 
ATOM     13  N   UNL     1      -1.622  11.092  19.104  0.00  0.00    +0.000 N 
ATOM     14  H   UNL     1      -0.784  12.622  20.671  0.00  0.00    +0.000 HD
ATOM     15  H   UNL     1      -2.307  11.687  19.555  0.00  0.00    +0.000 HD
ATOM     16  H   UNL     1      -2.033  10.210  18.818  0.00  0.00    +0.000 HD
ENDBRANCH   5  12
ENDBRANCH   1   8
BRANCH   3  17
ATOM     17  C   UNL     1       5.329   6.127  17.385  0.00  0.00    +0.000 A 
ATOM     18  C   UNL     1       6.187   5.522  18.312  0.00  0.00    +0.000 A 
ATOM     19  C   UNL     1       7.228   4.690  17.904  0.00  0.00    +0.000 A 
ATOM     20  C   UNL     1       7.432   4.449  16.552  0.00  0.00    +0.000 A 
ATOM     21  C   UNL     1       6.588   5.039  15.603  0.00  0.00    +0.000 A 
ATOM     22  C   UNL     1       5.511   5.846  16.023  0.00  0.00    +0.000 A 
BRANCH  21  23
ATOM     23  C   UNL     1       6.827   4.822  14.143  0.00  0.00    +0.000 C 
ATOM     24  O   UNL     1       7.710   5.430  13.550  0.00  0.00    +0.000 OA
ATOM     25  N   UNL     1       6.020   3.879  13.533  0.00  0.00    +0.000 N 
ATOM     26  H   UNL     1       5.450   3.268  14.103  0.00  0.00    +0.000 HD
BRANCH  25  27
ATOM     27  C   UNL     1       6.094   3.584  12.115  0.00  0.00    +0.000 C 
BRANCH  27  28
ATOM     28  C   UNL     1       5.460   2.247  11.776  0.00  0.00    +0.000 C 
BRANCH  28  29
ATOM     29  C   UNL     1       6.520   1.321  11.252  0.00  0.00    +0.000 C 
ATOM     30  O   UNL     1       7.636   1.689  10.923  0.00  0.00    +0.000 OA
BRANCH  29  31
ATOM     31  O   UNL     1       6.138   0.026  11.224  0.00  0.00    +0.000 OA
ATOM     32  H   UNL     1       5.400  -0.164  10.613  0.00  0.00    +0.000 HD
ENDBRANCH  29  31
ENDBRANCH  28  29
ENDBRANCH  27  28
ENDBRANCH  25  27
ENDBRANCH  21  23
ENDBRANCH   3  17
TORSDOF 8
ENDMDL
MODEL 5
REMARK VINA RESULT:      -7.8      1.196      1.635
REMARK  Name = 
REMARK  8 active torsions:
REMARK  status: ('A' for Active; 'I' for Inactive)
REMARK    1  A    between atoms: C_2  and  C_4
REMARK    2  A    between atoms: C_7  and  C_8
REMARK    3  A    between atoms: N_10  and  C_11
REMARK    4  A    between atoms: C_15  and  C_16
REMARK    5  A    between atoms: N_18  and  C_19
REMARK    6  A    between atoms: C_19  and  C_20
REMARK    7  A    between atoms: C_20  and  C_21
REMARK    8  A    between atoms: C_21  and  O_23
REMARK                            x       y       z     vdW  Elec       q    Type
REMARK                         _______ _______ _______ _____ _____    ______ ____
ROOT
ATOM      1  C   UNL     1       1.342   8.074  20.485  0.00  0.00    +0.000 C 
ATOM      2  O   UNL     1       1.971   8.359  19.471  0.00  0.00    +0.000 OA
ATOM      3  N   UNL     1       1.226   6.804  21.042  0.00  0.00    +0.000 N 
ATOM      4  H   UNL     1       0.511   6.658  21.742  0.00  0.00    +0.000 HD
ENDROOT
BRANCH   1   8
ATOM      5  C   UNL     1      -0.965  11.110  22.452  0.00  0.00    +0.000 A 
ATOM      6  C   UNL     1      -0.412  10.046  23.167  0.00  0.00    +0.000 A 
ATOM      7  C   UNL     1       0.346   9.082  22.503  0.00  0.00    +0.000 A 
ATOM      8  C   UNL     1       0.580   9.182  21.122  0.00  0.00    +0.000 A 
ATOM      9  C   UNL     1       0.027  10.246  20.402  0.00  0.00    +0.000 A 
ATOM     10  C   UNL     1      -0.750  11.208  21.069  0.00  0.00    +0.000 A 
BRANCH   5  12
ATOM     11  N   UNL     1      -1.204  13.237  23.541  0.00  0.00    +0.000 NA
ATOM     12  C   UNL     1      -1.768  12.129  23.185  0.00  0.00    +0.000 C 
ATOM     13  N   UNL     1      -3.077  11.892  23.493  0.00  0.00    +0.000 N 
ATOM     14  H   UNL     1      -1.884  13.847  23.998  0.00  0.00    +0.000 HD
ATOM     15  H   UNL     1      -3.454  12.462  24.240  0.00  0.00    +0.000 HD
ATOM     16  H   UNL     1      -3.325  10.916  23.614  0.00  0.00    +0.000 HD
ENDBRANCH   5  12
ENDBRANCH   1   8
BRANCH   3  17
ATOM     17  C   UNL     1       1.865   5.646  20.519  0.00  0.00    +0.000 A 
ATOM     18  C   UNL     1       1.573   4.358  20.988  0.00  0.00    +0.000 A 
ATOM     19  C   UNL     1       2.248   3.238  20.507  0.00  0.00    +0.000 A 
ATOM     20  C   UNL     1       3.237   3.387  19.544  0.00  0.00    +0.000 A 
ATOM     21  C   UNL     1       3.550   4.662  19.055  0.00  0.00    +0.000 A 
ATOM     22  C   UNL     1       2.834   5.787  19.515  0.00  0.00    +0.000 A 
BRANCH  21  23
ATOM     23  C   UNL     1       4.643   4.837  18.052  0.00  0.00    +0.000 C 
ATOM     24  O   UNL     1       4.987   3.913  17.325  0.00  0.00    +0.000 OA
ATOM     25  N   UNL     1       5.203   6.099  17.983  0.00  0.00    +0.000 N 
ATOM     26  H   UNL     1       4.753   6.870  18.459  0.00  0.00    +0.000 HD
BRANCH  25  27
ATOM     27  C   UNL     1       6.304   6.421  17.096  0.00  0.00    +0.000 C 
BRANCH  27  28
ATOM     28  C   UNL     1       7.617   6.563  17.844  0.00  0.00    +0.000 C 
BRANCH  28  29
ATOM     29  C   UNL     1       7.780   5.396  18.775  0.00  0.00    +0.000 C 
ATOM     30  O   UNL     1       7.711   5.486  19.990  0.00  0.00    +0.000 OA
BRANCH  29  31
ATOM     31  O   UNL     1       7.961   4.220  18.138  0.00  0.00    +0.000 OA
ATOM     32  H   UNL     1       7.174   3.894  17.659  0.00  0.00    +0.000 HD
ENDBRANCH  29  31
ENDBRANCH  28  29
ENDBRANCH  27  28
ENDBRANCH  25  27
ENDBRANCH  21  23
ENDBRANCH   3  17
TORSDOF 8
ENDMDL
MODEL 6
REMARK VINA RESULT:      -7.8      4.318     10.061
REMARK  Name = 
REMARK  8 active torsions:
REMARK  status: ('A' for Active; 'I' for Inactive)
REMARK    1  A    between atoms: C_2  and  C_4
REMARK    2  A    between atoms: C_7  and  C_8
REMARK    3  A    between atoms: N_10  and  C_11
REMARK    4  A    between atoms: C_15  and  C_16
REMARK    5  A    between atoms: N_18  and  C_19
REMARK    6  A    between atoms: C_19  and  C_20
REMARK    7  A    between atoms: C_20  and  C_21
REMARK    8  A    between atoms: C_21  and  O_23
REMARK                            x       y       z     vdW  Elec       q    Type
REMARK                         _______ _______ _______ _____ _____    ______ ____
ROOT
ATOM      1  C   UNL     1       1.889   8.805  18.287  0.00  0.00    +0.000 C 
ATOM      2  O   UNL     1       2.093   9.611  17.384  0.00  0.00    +0.000 OA
ATOM      3  N   UNL     1       0.957   8.948  19.310  0.00  0.00    +0.000 N 
ATOM      4  H   UNL     1       1.034   8.331  20.109  0.00  0.00    +0.000 HD
ENDROOT
BRANCH   1   8
ATOM      5  C   UNL     1       4.469   5.393  18.608  0.00  0.00    +0.000 A 
ATOM      6  C   UNL     1       3.471   5.635  19.554  0.00  0.00    +0.000 A 
ATOM      7  C   UNL     1       2.638   6.744  19.415  0.00  0.00    +0.000 A 
ATOM      8  C   UNL     1       2.776   7.611  18.318  0.00  0.00    +0.000 A 
ATOM      9  C   UNL     1       3.775   7.372  17.369  0.00  0.00    +0.000 A 
ATOM     10  C   UNL     1       4.625   6.263  17.518  0.00  0.00    +0.000 A 
BRANCH   5  12
ATOM     11  N   UNL     1       4.869   3.148  19.360  0.00  0.00    +0.000 NA
ATOM     12  C   UNL     1       5.345   4.198  18.776  0.00  0.00    +0.000 C 
ATOM     13  N   UNL     1       6.636   4.216  18.335  0.00  0.00    +0.000 N 
ATOM     14  H   UNL     1       5.568   2.403  19.369  0.00  0.00    +0.000 HD
ATOM     15  H   UNL     1       7.244   3.521  18.751  0.00  0.00    +0.000 HD
ATOM     16  H   UNL     1       7.078   5.129  18.320  0.00  0.00    +0.000 HD
ENDBRANCH   5  12
ENDBRANCH   1   8
BRANCH   3  17
ATOM     17  C   UNL     1       0.071  10.054  19.431  0.00  0.00    +0.000 A 
ATOM     18  C   UNL     1       0.165  10.972  20.485  0.00  0.00    +0.000 A 
ATOM     19  C   UNL     1      -0.745  12.018  20.622  0.00  0.00    +0.000 A 
ATOM     20  C   UNL     1      -1.775  12.164  19.702  0.00  0.00    +0.000 A 
ATOM     21  C   UNL     1      -1.893  11.262  18.637  0.00  0.00    +0.000 A 
ATOM     22  C   UNL     1      -0.944  10.231  18.479  0.00  0.00    +0.000 A 
BRANCH  21  23
ATOM     23  C   UNL     1      -3.024  11.384  17.668  0.00  0.00    +0.000 C 
ATOM     24  O   UNL     1      -2.881  11.085  16.489  0.00  0.00    +0.000 OA
ATOM     25  N   UNL     1      -4.227  11.817  18.195  0.00  0.00    +0.000 N 
ATOM     26  H   UNL     1      -4.344  11.858  19.200  0.00  0.00    +0.000 HD
BRANCH  25  27
ATOM     27  C   UNL     1      -5.407  12.032  17.381  0.00  0.00    +0.000 C 
BRANCH  27  28
ATOM     28  C   UNL     1      -6.664  12.169  18.223  0.00  0.00    +0.000 C 
BRANCH  28  29
ATOM     29  C   UNL     1      -6.688  11.074  19.249  0.00  0.00    +0.000 C 
ATOM     30  O   UNL     1      -6.267  11.204  20.388  0.00  0.00    +0.000 OA
BRANCH  29  31
ATOM     31  O   UNL     1      -7.268   9.936  18.810  0.00  0.00    +0.000 OA
ATOM     32  H   UNL     1      -8.237   9.994  18.696  0.00  0.00    +0.000 HD
ENDBRANCH  29  31
ENDBRANCH  28  29
ENDBRANCH  27  28
ENDBRANCH  25  27
ENDBRANCH  21  23
ENDBRANCH   3  17
TORSDOF 8
ENDMDL
MODEL 7
REMARK VINA RESULT:      -7.8      4.322     10.037
REMARK  Name = 
REMARK  8 active torsions:
REMARK  status: ('A' for Active; 'I' for Inactive)
REMARK    1  A    between atoms: C_2  and  C_4
REMARK    2  A    between atoms: C_7  and  C_8
REMARK    3  A    between atoms: N_10  and  C_11
REMARK    4  A    between atoms: C_15  and  C_16
REMARK    5  A    between atoms: N_18  and  C_19
REMARK    6  A    between atoms: C_19  and  C_20
REMARK    7  A    between atoms: C_20  and  C_21
REMARK    8  A    between atoms: C_21  and  O_23
REMARK                            x       y       z     vdW  Elec       q    Type
REMARK                         _______ _______ _______ _____ _____    ______ ____
ROOT
ATOM      1  C   UNL     1       1.828   8.793  18.333  0.00  0.00    +0.000 C 
ATOM      2  O   UNL     1       2.042   9.458  17.324  0.00  0.00    +0.000 OA
ATOM      3  N   UNL     1       0.896   9.091  19.323  0.00  0.00    +0.000 N 
ATOM      4  H   UNL     1       0.966   8.596  20.202  0.00  0.00    +0.000 HD
ENDROOT
BRANCH   1   8
ATOM      5  C   UNL     1       4.341   5.335  18.698  0.00  0.00    +0.000 A 
ATOM      6  C   UNL     1       4.515   6.248  17.656  0.00  0.00    +0.000 A 
ATOM      7  C   UNL     1       3.693   7.370  17.572  0.00  0.00    +0.000 A 
ATOM      8  C   UNL     1       2.703   7.608  18.540  0.00  0.00    +0.000 A 
ATOM      9  C   UNL     1       2.525   6.695  19.585  0.00  0.00    +0.000 A 
ATOM     10  C   UNL     1       3.344   5.555  19.660  0.00  0.00    +0.000 A 
BRANCH   5  12
ATOM     11  N   UNL     1       6.422   4.219  18.259  0.00  0.00    +0.000 NA
ATOM     12  C   UNL     1       5.236   4.145  18.768  0.00  0.00    +0.000 C 
ATOM     13  N   UNL     1       4.805   2.986  19.348  0.00  0.00    +0.000 N 
ATOM     14  H   UNL     1       6.927   3.345  18.415  0.00  0.00    +0.000 HD
ATOM     15  H   UNL     1       5.322   2.155  19.086  0.00  0.00    +0.000 HD
ATOM     16  H   UNL     1       3.804   2.825  19.307  0.00  0.00    +0.000 HD
ENDBRANCH   5  12
ENDBRANCH   1   8
BRANCH   3  17
ATOM     17  C   UNL     1       0.022  10.212  19.279  0.00  0.00    +0.000 A 
ATOM     18  C   UNL     1       0.253  11.367  20.038  0.00  0.00    +0.000 A 
ATOM     19  C   UNL     1      -0.642  12.435  20.029  0.00  0.00    +0.000 A 
ATOM     20  C   UNL     1      -1.795  12.365  19.258  0.00  0.00    +0.000 A 
ATOM     21  C   UNL     1      -2.052  11.223  18.488  0.00  0.00    +0.000 A 
ATOM     22  C   UNL     1      -1.122  10.163  18.468  0.00  0.00    +0.000 A 
BRANCH  21  23
ATOM     23  C   UNL     1      -3.312  11.119  17.691  0.00  0.00    +0.000 C 
ATOM     24  O   UNL     1      -3.408  10.330  16.760  0.00  0.00    +0.000 OA
ATOM     25  N   UNL     1      -4.351  11.938  18.095  0.00  0.00    +0.000 N 
ATOM     26  H   UNL     1      -4.288  12.420  18.982  0.00  0.00    +0.000 HD
BRANCH  25  27
ATOM     27  C   UNL     1      -5.622  11.991  17.400  0.00  0.00    +0.000 C 
BRANCH  27  28
ATOM     28  C   UNL     1      -6.798  12.007  18.361  0.00  0.00    +0.000 C 
BRANCH  28  29
ATOM     29  C   UNL     1      -6.621  10.909  19.369  0.00  0.00    +0.000 C 
ATOM     30  O   UNL     1      -6.660   9.721  19.089  0.00  0.00    +0.000 OA
BRANCH  29  31
ATOM     31  O   UNL     1      -6.363  11.358  20.616  0.00  0.00    +0.000 OA
ATOM     32  H   UNL     1      -5.891  10.720  21.186  0.00  0.00    +0.000 HD
ENDBRANCH  29  31
ENDBRANCH  28  29
ENDBRANCH  27  28
ENDBRANCH  25  27
ENDBRANCH  21  23
ENDBRANCH   3  17
TORSDOF 8
ENDMDL
MODEL 8
REMARK VINA RESULT:      -7.7      3.879      9.271
REMARK  Name = 
REMARK  8 active torsions:
REMARK  status: ('A' for Active; 'I' for Inactive)
REMARK    1  A    between atoms: C_2  and  C_4
REMARK    2  A    between atoms: C_7  and  C_8
REMARK    3  A    between atoms: N_10  and  C_11
REMARK    4  A    between atoms: C_15  and  C_16
REMARK    5  A    between atoms: N_18  and  C_19
REMARK    6  A    between atoms: C_19  and  C_20
REMARK    7  A    between atoms: C_20  and  C_21
REMARK    8  A    between atoms: C_21  and  O_23
REMARK                            x       y       z     vdW  Elec       q    Type
REMARK                         _______ _______ _______ _____ _____    ______ ____
ROOT
ATOM      1  C   UNL     1       2.708   6.437  18.709  0.00  0.00    +0.000 C 
ATOM      2  O   UNL     1       2.067   5.617  19.358  0.00  0.00    +0.000 OA
ATOM      3  N   UNL     1       2.544   7.818  18.751  0.00  0.00    +0.000 N 
ATOM      4  H   UNL     1       2.972   8.368  18.018  0.00  0.00    +0.000 HD
ENDROOT
BRANCH   1   8
ATOM      5  C   UNL     1       5.505   5.030  15.776  0.00  0.00    +0.000 A 
ATOM      6  C   UNL     1       5.433   6.383  16.114  0.00  0.00    +0.000 A 
ATOM      7  C   UNL     1       4.524   6.809  17.082  0.00  0.00    +0.000 A 
ATOM      8  C   UNL     1       3.694   5.886  17.740  0.00  0.00    +0.000 A 
ATOM      9  C   UNL     1       3.763   4.530  17.403  0.00  0.00    +0.000 A 
ATOM     10  C   UNL     1       4.668   4.104  16.416  0.00  0.00    +0.000 A 
BRANCH   5  12
ATOM     11  N   UNL     1       6.299   3.483  14.120  0.00  0.00    +0.000 NA
ATOM     12  C   UNL     1       6.488   4.600  14.741  0.00  0.00    +0.000 C 
ATOM     13  N   UNL     1       7.582   5.367  14.462  0.00  0.00    +0.000 N 
ATOM     14  H   UNL     1       7.029   3.341  13.419  0.00  0.00    +0.000 HD
ATOM     15  H   UNL     1       8.343   4.882  14.002  0.00  0.00    +0.000 HD
ATOM     16  H   UNL     1       7.922   5.937  15.230  0.00  0.00    +0.000 HD
ENDBRANCH   5  12
ENDBRANCH   1   8
BRANCH   3  17
ATOM     17  C   UNL     1       1.614   8.482  19.598  0.00  0.00    +0.000 A 
ATOM     18  C   UNL     1       1.534   8.214  20.971  0.00  0.00    +0.000 A 
ATOM     19  C   UNL     1       0.579   8.829  21.778  0.00  0.00    +0.000 A 
ATOM     20  C   UNL     1      -0.322   9.729  21.222  0.00  0.00    +0.000 A 
ATOM     21  C   UNL     1      -0.264  10.018  19.852  0.00  0.00    +0.000 A 
ATOM     22  C   UNL     1       0.731   9.424  19.049  0.00  0.00    +0.000 A 
BRANCH  21  23
ATOM     23  C   UNL     1      -1.257  10.950  19.237  0.00  0.00    +0.000 C 
ATOM     24  O   UNL     1      -1.315  12.125  19.576  0.00  0.00    +0.000 OA
ATOM     25  N   UNL     1      -2.063  10.409  18.253  0.00  0.00    +0.000 N 
ATOM     26  H   UNL     1      -1.842   9.497  17.873  0.00  0.00    +0.000 HD
BRANCH  25  27
ATOM     27  C   UNL     1      -3.107  11.167  17.590  0.00  0.00    +0.000 C 
BRANCH  27  28
ATOM     28  C   UNL     1      -2.727  11.537  16.167  0.00  0.00    +0.000 C 
BRANCH  28  29
ATOM     29  C   UNL     1      -3.052  10.386  15.259  0.00  0.00    +0.000 C 
ATOM     30  O   UNL     1      -3.338  10.516  14.079  0.00  0.00    +0.000 OA
BRANCH  29  31
ATOM     31  O   UNL     1      -2.951   9.181  15.858  0.00  0.00    +0.000 OA
ATOM     32  H   UNL     1      -3.025   8.420  15.250  0.00  0.00    +0.000 HD
ENDBRANCH  29  31
ENDBRANCH  28  29
ENDBRANCH  27  28
ENDBRANCH  25  27
ENDBRANCH  21  23
ENDBRANCH   3  17
TORSDOF 8
ENDMDL
MODEL 9
REMARK VINA RESULT:      -7.7      1.606      2.081
REMARK  Name = 
REMARK  8 active torsions:
REMARK  status: ('A' for Active; 'I' for Inactive)
REMARK    1  A    between atoms: C_2  and  C_4
REMARK    2  A    between atoms: C_7  and  C_8
REMARK    3  A    between atoms: N_10  and  C_11
REMARK    4  A    between atoms: C_15  and  C_16
REMARK    5  A    between atoms: N_18  and  C_19
REMARK    6  A    between atoms: C_19  and  C_20
REMARK    7  A    between atoms: C_20  and  C_21
REMARK    8  A    between atoms: C_21  and  O_23
REMARK                            x       y       z     vdW  Elec       q    Type
REMARK                         _______ _______ _______ _____ _____    ______ ____
ROOT
ATOM      1  C   UNL     1       1.433   7.852  20.494  0.00  0.00    +0.000 C 
ATOM      2  O   UNL     1       1.941   8.110  19.407  0.00  0.00    +0.000 OA
ATOM      3  N   UNL     1       1.437   6.610  21.121  0.00  0.00    +0.000 N 
ATOM      4  H   UNL     1       0.805   6.471  21.898  0.00  0.00    +0.000 HD
ENDROOT
BRANCH   1   8
ATOM      5  C   UNL     1      -0.543  11.186  22.335  0.00  0.00    +0.000 A 
ATOM      6  C   UNL     1       0.099  11.318  21.102  0.00  0.00    +0.000 A 
ATOM      7  C   UNL     1       0.720  10.213  20.521  0.00  0.00    +0.000 A 
ATOM      8  C   UNL     1       0.688   8.958  21.152  0.00  0.00    +0.000 A 
ATOM      9  C   UNL     1       0.045   8.823  22.388  0.00  0.00    +0.000 A 
ATOM     10  C   UNL     1      -0.566   9.941  22.980  0.00  0.00    +0.000 A 
BRANCH   5  12
ATOM     11  N   UNL     1      -0.486  13.417  23.222  0.00  0.00    +0.000 NA
ATOM     12  C   UNL     1      -1.203  12.381  22.933  0.00  0.00    +0.000 C 
ATOM     13  N   UNL     1      -2.544  12.379  23.186  0.00  0.00    +0.000 N 
ATOM     14  H   UNL     1      -1.078  14.165  23.586  0.00  0.00    +0.000 HD
ATOM     15  H   UNL     1      -2.857  13.069  23.859  0.00  0.00    +0.000 HD
ATOM     16  H   UNL     1      -2.949  11.469  23.378  0.00  0.00    +0.000 HD
ENDBRANCH   5  12
ENDBRANCH   1   8
BRANCH   3  17
ATOM     17  C   UNL     1       2.075   5.454  20.591  0.00  0.00    +0.000 A 
ATOM     18  C   UNL     1       1.633   4.159  20.887  0.00  0.00    +0.000 A 
ATOM     19  C   UNL     1       2.302   3.034  20.407  0.00  0.00    +0.000 A 
ATOM     20  C   UNL     1       3.435   3.187  19.619  0.00  0.00    +0.000 A 
ATOM     21  C   UNL     1       3.899   4.471  19.305  0.00  0.00    +0.000 A 
ATOM     22  C   UNL     1       3.194   5.605  19.759  0.00  0.00    +0.000 A 
BRANCH  21  23
ATOM     23  C   UNL     1       5.143   4.646  18.496  0.00  0.00    +0.000 C 
ATOM     24  O   UNL     1       6.208   4.162  18.861  0.00  0.00    +0.000 OA
ATOM     25  N   UNL     1       5.001   5.348  17.313  0.00  0.00    +0.000 N 
ATOM     26  H   UNL     1       4.074   5.552  16.964  0.00  0.00    +0.000 HD
BRANCH  25  27
ATOM     27  C   UNL     1       6.119   5.644  16.438  0.00  0.00    +0.000 C 
BRANCH  27  28
ATOM     28  C   UNL     1       5.772   5.425  14.976  0.00  0.00    +0.000 C 
BRANCH  28  29
ATOM     29  C   UNL     1       6.061   3.997  14.612  0.00  0.00    +0.000 C 
ATOM     30  O   UNL     1       6.178   3.603  13.463  0.00  0.00    +0.000 OA
BRANCH  29  31
ATOM     31  O   UNL     1       6.231   3.192  15.683  0.00  0.00    +0.000 OA
ATOM     32  H   UNL     1       6.859   3.533  16.349  0.00  0.00    +0.000 HD
ENDBRANCH  29  31
ENDBRANCH  28  29
ENDBRANCH  27  28
ENDBRANCH  25  27
ENDBRANCH  21  23
ENDBRANCH   3  17
TORSDOF 8
ENDMDL
