MODEL 1
REMARK VINA RESULT:      -7.2      0.000      0.000
REMARK  Name = 
REMARK  11 active torsions:
REMARK  status: ('A' for Active; 'I' for Inactive)
REMARK    1  A    between atoms: C_1  and  C_2
REMARK    2  A    between atoms: C_5  and  N_6
REMARK    3  A    between atoms: C_7  and  C_8
REMARK    4  A    between atoms: C_10  and  C_11
REMARK    5  A    between atoms: N_12  and  N_13
REMARK    6  A    between atoms: C_14  and  C_16
REMARK    7  A    between atoms: C_16  and  C_17
REMARK    8  A    between atoms: N_19  and  C_20
REMARK    9  A    between atoms: C_20  and  C_21
REMARK   10  A    between atoms: C_20  and  C_22
REMARK   11  A    between atoms: C_23  and  C_24
REMARK                            x       y       z     vdW  Elec       q    Type
REMARK                         _______ _______ _______ _____ _____    ______ ____
ROOT
ATOM      1  N   UNL     1       1.989   8.219  19.304  0.00  0.00    +0.000 N 
ATOM      2  C   UNL     1       2.491   8.834  18.155  0.00  0.00    +0.000 A 
ATOM      3  C   UNL     1       2.393  10.278  17.789  0.00  0.00    +0.000 C 
ATOM      4  C   UNL     1       3.169   7.884  17.419  0.00  0.00    +0.000 A 
ATOM      5  C   UNL     1       3.173   6.661  18.125  0.00  0.00    +0.000 A 
ATOM      6  C   UNL     1       2.421   6.878  19.281  0.00  0.00    +0.000 A 
ATOM      7  C   UNL     1       2.023   5.852  20.300  0.00  0.00    +0.000 C 
ENDROOT
BRANCH   1  12
ATOM      8  C   UNL     1      -1.309  10.796  23.270  0.00  0.00    +0.000 C 
ATOM      9  C   UNL     1      -0.462  10.088  22.250  0.00  0.00    +0.000 A 
ATOM     10  C   UNL     1       0.608   9.274  22.630  0.00  0.00    +0.000 A 
ATOM     11  C   UNL     1       1.418   8.665  21.663  0.00  0.00    +0.000 A 
ATOM     12  C   UNL     1       1.146   8.823  20.298  0.00  0.00    +0.000 A 
ATOM     13  C   UNL     1       0.046   9.607  19.928  0.00  0.00    +0.000 A 
ATOM     14  C   UNL     1      -0.732  10.255  20.892  0.00  0.00    +0.000 A 
ENDBRANCH   1  12
BRANCH   5  15
ATOM     15  C   UNL     1       3.732   5.373  17.725  0.00  0.00    +0.000 C 
ATOM     16  N   UNL     1       4.972   4.988  17.764  0.00  0.00    +0.000 NA
BRANCH  16  17
ATOM     17  N   UNL     1       5.900   5.762  18.384  0.00  0.00    +0.000 N 
ATOM     18  C   UNL     1       7.201   5.811  17.908  0.00  0.00    +0.000 C 
ATOM     19  O   UNL     1       7.594   5.257  16.878  0.00  0.00    +0.000 OA
ATOM     20  H   UNL     1       5.666   6.186  19.284  0.00  0.00    +0.000 HD
BRANCH  18  21
ATOM     21  C   UNL     1       8.125   6.712  18.688  0.00  0.00    +0.000 C 
BRANCH  21  22
ATOM     22  C   UNL     1       8.094   8.155  18.249  0.00  0.00    +0.000 C 
ATOM     23  O   UNL     1       7.356   8.521  17.338  0.00  0.00    +0.000 OA
ATOM     24  N   UNL     1       8.905   9.007  18.959  0.00  0.00    +0.000 N 
ATOM     25  H   UNL     1       9.602   8.627  19.587  0.00  0.00    +0.000 HD
BRANCH  24  26
ATOM     26  C   UNL     1       8.950  10.427  18.647  0.00  0.00    +0.000 C 
ATOM     27  C   UNL     1       8.911  11.255  19.926  0.00  0.00    +0.000 C 
ATOM     28  C   UNL     1      10.181  10.760  17.810  0.00  0.00    +0.000 C 
ENDBRANCH  24  26
ENDBRANCH  21  22
ENDBRANCH  18  21
ENDBRANCH  16  17
ENDBRANCH   5  15
TORSDOF 6
ENDMDL
MODEL 2
REMARK VINA RESULT:      -7.2      2.689      3.676
REMARK  Name = 
REMARK  11 active torsions:
REMARK  status: ('A' for Active; 'I' for Inactive)
REMARK    1  A    between atoms: C_1  and  C_2
REMARK    2  A    between atoms: C_5  and  N_6
REMARK    3  A    between atoms: C_7  and  C_8
REMARK    4  A    between atoms: C_10  and  C_11
REMARK    5  A    between atoms: N_12  and  N_13
REMARK    6  A    between atoms: C_14  and  C_16
REMARK    7  A    between atoms: C_16  and  C_17
REMARK    8  A    between atoms: N_19  and  C_20
REMARK    9  A    between atoms: C_20  and  C_21
REMARK   10  A    between atoms: C_20  and  C_22
REMARK   11  A    between atoms: C_23  and  C_24
REMARK                            x       y       z     vdW  Elec       q    Type
REMARK                         _______ _______ _______ _____ _____    ______ ____
ROOT
ATOM      1  N   UNL     1       2.100   7.320  19.524  0.00  0.00    +0.000 N 
ATOM      2  C   UNL     1       2.677   7.517  18.268  0.00  0.00    +0.000 A 
ATOM      3  C   UNL     1       2.815   8.808  17.531  0.00  0.00    +0.000 C 
ATOM      4  C   UNL     1       3.177   6.308  17.829  0.00  0.00    +0.000 A 
ATOM      5  C   UNL     1       2.989   5.333  18.833  0.00  0.00    +0.000 A 
ATOM      6  C   UNL     1       2.303   5.969  19.868  0.00  0.00    +0.000 A 
ATOM      7  C   UNL     1       1.756   5.330  21.110  0.00  0.00    +0.000 C 
ENDROOT
BRANCH   1  12
ATOM      8  C   UNL     1      -0.880  11.104  22.694  0.00  0.00    +0.000 C 
ATOM      9  C   UNL     1      -0.088  10.150  21.847  0.00  0.00    +0.000 A 
ATOM     10  C   UNL     1      -0.316  10.031  20.474  0.00  0.00    +0.000 A 
ATOM     11  C   UNL     1       0.397   9.098  19.711  0.00  0.00    +0.000 A 
ATOM     12  C   UNL     1       1.384   8.296  20.299  0.00  0.00    +0.000 A 
ATOM     13  C   UNL     1       1.634   8.451  21.668  0.00  0.00    +0.000 A 
ATOM     14  C   UNL     1       0.888   9.347  22.438  0.00  0.00    +0.000 A 
ENDBRANCH   1  12
BRANCH   5  15
ATOM     15  C   UNL     1       3.320   3.911  18.804  0.00  0.00    +0.000 C 
ATOM     16  N   UNL     1       4.269   3.320  18.141  0.00  0.00    +0.000 NA
BRANCH  16  17
ATOM     17  N   UNL     1       5.207   4.063  17.498  0.00  0.00    +0.000 N 
ATOM     18  C   UNL     1       6.237   4.657  18.211  0.00  0.00    +0.000 C 
ATOM     19  O   UNL     1       6.439   4.500  19.418  0.00  0.00    +0.000 OA
ATOM     20  H   UNL     1       5.060   4.299  16.515  0.00  0.00    +0.000 HD
BRANCH  18  21
ATOM     21  C   UNL     1       7.208   5.449  17.373  0.00  0.00    +0.000 C 
BRANCH  21  22
ATOM     22  C   UNL     1       6.748   5.687  15.956  0.00  0.00    +0.000 C 
ATOM     23  O   UNL     1       5.969   6.598  15.690  0.00  0.00    +0.000 OA
ATOM     24  N   UNL     1       7.289   4.850  15.010  0.00  0.00    +0.000 N 
ATOM     25  H   UNL     1       7.797   4.025  15.304  0.00  0.00    +0.000 HD
BRANCH  24  26
ATOM     26  C   UNL     1       6.942   4.990  13.604  0.00  0.00    +0.000 C 
ATOM     27  C   UNL     1       8.152   5.451  12.800  0.00  0.00    +0.000 C 
ATOM     28  C   UNL     1       6.376   3.686  13.053  0.00  0.00    +0.000 C 
ENDBRANCH  24  26
ENDBRANCH  21  22
ENDBRANCH  18  21
ENDBRANCH  16  17
ENDBRANCH   5  15
TORSDOF 6
ENDMDL
MODEL 3
REMARK VINA RESULT:      -7.1      2.575      4.279
REMARK  Name = 
REMARK  11 active torsions:
REMARK  status: ('A' for Active; 'I' for Inactive)
REMARK    1  A    between atoms: C_1  and  C_2
REMARK    2  A    between atoms: C_5  and  N_6
REMARK    3  A    between atoms: C_7  and  C_8
REMARK    4  A    between atoms: C_10  and  C_11
REMARK    5  A    between atoms: N_12  and  N_13
REMARK    6  A    between atoms: C_14  and  C_16
REMARK    7  A    between atoms: C_16  and  C_17
REMARK    8  A    between atoms: N_19  and  C_20
REMARK    9  A    between atoms: C_20  and  C_21
REMARK   10  A    between atoms: C_20  and  C_22
REMARK   11  A    between atoms: C_23  and  C_24
REMARK                            x       y       z     vdW  Elec       q    Type
REMARK                         _______ _______ _______ _____ _____    ______ ____
ROOT
ATOM      1  N   UNL     1       1.803   8.075  19.499  0.00  0.00    +0.000 N 
ATOM      2  C   UNL     1       2.213   6.749  19.645  0.00  0.00    +0.000 A 
ATOM      3  C   UNL     1       1.792   5.786  20.705  0.00  0.00    +0.000 C 
ATOM      4  C   UNL     1       3.040   6.434  18.586  0.00  0.00    +0.000 A 
ATOM      5  C   UNL     1       3.114   7.537  17.708  0.00  0.00    +0.000 A 
ATOM      6  C   UNL     1       2.359   8.553  18.295  0.00  0.00    +0.000 A 
ATOM      7  C   UNL     1       2.226   9.968  17.815  0.00  0.00    +0.000 C 
ENDROOT
BRANCH   1  12
ATOM      8  C   UNL     1      -1.284  11.257  23.185  0.00  0.00    +0.000 C 
ATOM      9  C   UNL     1      -0.496  10.394  22.242  0.00  0.00    +0.000 A 
ATOM     10  C   UNL     1       0.494   9.524  22.704  0.00  0.00    +0.000 A 
ATOM     11  C   UNL     1       1.254   8.766  21.804  0.00  0.00    +0.000 A 
ATOM     12  C   UNL     1       1.008   8.832  20.427  0.00  0.00    +0.000 A 
ATOM     13  C   UNL     1      -0.014   9.677  19.976  0.00  0.00    +0.000 A 
ATOM     14  C   UNL     1      -0.739  10.469  20.870  0.00  0.00    +0.000 A 
ENDBRANCH   1  12
BRANCH   5  15
ATOM     15  C   UNL     1       3.894   7.683  16.481  0.00  0.00    +0.000 C 
ATOM     16  N   UNL     1       5.024   7.119  16.176  0.00  0.00    +0.000 NA
BRANCH  16  17
ATOM     17  N   UNL     1       5.528   6.142  16.974  0.00  0.00    +0.000 N 
ATOM     18  C   UNL     1       6.824   5.687  16.787  0.00  0.00    +0.000 C 
ATOM     19  O   UNL     1       7.628   6.165  15.981  0.00  0.00    +0.000 OA
ATOM     20  H   UNL     1       4.898   5.649  17.608  0.00  0.00    +0.000 HD
BRANCH  18  21
ATOM     21  C   UNL     1       7.257   4.605  17.742  0.00  0.00    +0.000 C 
BRANCH  21  22
ATOM     22  C   UNL     1       6.285   4.353  18.868  0.00  0.00    +0.000 C 
ATOM     23  O   UNL     1       6.295   5.051  19.878  0.00  0.00    +0.000 OA
ATOM     24  N   UNL     1       5.386   3.334  18.659  0.00  0.00    +0.000 N 
ATOM     25  H   UNL     1       5.526   2.697  17.885  0.00  0.00    +0.000 HD
BRANCH  24  26
ATOM     26  C   UNL     1       4.384   3.006  19.660  0.00  0.00    +0.000 C 
ATOM     27  C   UNL     1       3.041   2.724  18.997  0.00  0.00    +0.000 C 
ATOM     28  C   UNL     1       4.837   1.826  20.515  0.00  0.00    +0.000 C 
ENDBRANCH  24  26
ENDBRANCH  21  22
ENDBRANCH  18  21
ENDBRANCH  16  17
ENDBRANCH   5  15
TORSDOF 6
ENDMDL
MODEL 4
REMARK VINA RESULT:      -7.0      5.428      9.189
REMARK  Name = 
REMARK  11 active torsions:
REMARK  status: ('A' for Active; 'I' for Inactive)
REMARK    1  A    between atoms: C_1  and  C_2
REMARK    2  A    between atoms: C_5  and  N_6
REMARK    3  A    between atoms: C_7  and  C_8
REMARK    4  A    between atoms: C_10  and  C_11
REMARK    5  A    between atoms: N_12  and  N_13
REMARK    6  A    between atoms: C_14  and  C_16
REMARK    7  A    between atoms: C_16  and  C_17
REMARK    8  A    between atoms: N_19  and  C_20
REMARK    9  A    between atoms: C_20  and  C_21
REMARK   10  A    between atoms: C_20  and  C_22
REMARK   11  A    between atoms: C_23  and  C_24
REMARK                            x       y       z     vdW  Elec       q    Type
REMARK                         _______ _______ _______ _____ _____    ______ ____
ROOT
ATOM      1  N   UNL     1      -4.172  11.840  19.154  0.00  0.00    +0.000 N 
ATOM      2  C   UNL     1      -5.409  11.823  19.799  0.00  0.00    +0.000 A 
ATOM      3  C   UNL     1      -6.641  11.096  19.370  0.00  0.00    +0.000 C 
ATOM      4  C   UNL     1      -5.297  12.549  20.967  0.00  0.00    +0.000 A 
ATOM      5  C   UNL     1      -3.962  12.982  21.121  0.00  0.00    +0.000 A 
ATOM      6  C   UNL     1      -3.281  12.552  19.981  0.00  0.00    +0.000 A 
ATOM      7  C   UNL     1      -1.863  12.871  19.606  0.00  0.00    +0.000 C 
ENDROOT
BRANCH   1  12
ATOM      8  C   UNL     1      -2.826   9.714  13.966  0.00  0.00    +0.000 C 
ATOM      9  C   UNL     1      -3.214  10.251  15.314  0.00  0.00    +0.000 A 
ATOM     10  C   UNL     1      -4.226  11.204  15.456  0.00  0.00    +0.000 A 
ATOM     11  C   UNL     1      -4.537  11.731  16.715  0.00  0.00    +0.000 A 
ATOM     12  C   UNL     1      -3.872  11.283  17.864  0.00  0.00    +0.000 A 
ATOM     13  C   UNL     1      -2.887  10.298  17.717  0.00  0.00    +0.000 A 
ATOM     14  C   UNL     1      -2.542   9.808  16.454  0.00  0.00    +0.000 A 
ENDBRANCH   1  12
BRANCH   5  15
ATOM     15  C   UNL     1      -3.380  13.808  22.175  0.00  0.00    +0.000 C 
ATOM     16  N   UNL     1      -2.754  13.421  23.246  0.00  0.00    +0.000 NA
BRANCH  16  17
ATOM     17  N   UNL     1      -2.422  12.113  23.398  0.00  0.00    +0.000 N 
ATOM     18  C   UNL     1      -1.183  11.654  22.977  0.00  0.00    +0.000 C 
ATOM     19  O   UNL     1      -0.282  12.370  22.532  0.00  0.00    +0.000 OA
ATOM     20  H   UNL     1      -3.144  11.450  23.686  0.00  0.00    +0.000 HD
BRANCH  18  21
ATOM     21  C   UNL     1      -0.944  10.183  23.207  0.00  0.00    +0.000 C 
BRANCH  21  22
ATOM     22  C   UNL     1       0.327   9.661  22.585  0.00  0.00    +0.000 C 
ATOM     23  O   UNL     1       1.374   9.622  23.226  0.00  0.00    +0.000 OA
ATOM     24  N   UNL     1       0.211   9.208  21.293  0.00  0.00    +0.000 N 
ATOM     25  H   UNL     1      -0.629   9.410  20.766  0.00  0.00    +0.000 HD
BRANCH  24  26
ATOM     26  C   UNL     1       1.360   8.661  20.588  0.00  0.00    +0.000 C 
ATOM     27  C   UNL     1       1.385   7.142  20.709  0.00  0.00    +0.000 C 
ATOM     28  C   UNL     1       1.359   9.099  19.127  0.00  0.00    +0.000 C 
ENDBRANCH  24  26
ENDBRANCH  21  22
ENDBRANCH  18  21
ENDBRANCH  16  17
ENDBRANCH   5  15
TORSDOF 6
ENDMDL
MODEL 5
REMARK VINA RESULT:      -6.9      1.639      2.781
REMARK  Name = 
REMARK  11 active torsions:
REMARK  status: ('A' for Active; 'I' for Inactive)
REMARK    1  A    between atoms: C_1  and  C_2
REMARK    2  A    between atoms: C_5  and  N_6
REMARK    3  A    between atoms: C_7  and  C_8
REMARK    4  A    between atoms: C_10  and  C_11
REMARK    5  A    between atoms: N_12  and  N_13
REMARK    6  A    between atoms: C_14  and  C_16
REMARK    7  A    between atoms: C_16  and  C_17
REMARK    8  A    between atoms: N_19  and  C_20
REMARK    9  A    between atoms: C_20  and  C_21
REMARK   10  A    between atoms: C_20  and  C_22
REMARK   11  A    between atoms: C_23  and  C_24
REMARK                            x       y       z     vdW  Elec       q    Type
REMARK                         _______ _______ _______ _____ _____    ______ ____
ROOT
ATOM      1  N   UNL     1       3.149   6.216  18.803  0.00  0.00    +0.000 N 
ATOM      2  C   UNL     1       3.179   5.101  19.642  0.00  0.00    +0.000 A 
ATOM      3  C   UNL     1       2.276   4.815  20.796  0.00  0.00    +0.000 C 
ATOM      4  C   UNL     1       4.159   4.243  19.184  0.00  0.00    +0.000 A 
ATOM      5  C   UNL     1       4.722   4.768  18.000  0.00  0.00    +0.000 A 
ATOM      6  C   UNL     1       4.101   5.999  17.787  0.00  0.00    +0.000 A 
ATOM      7  C   UNL     1       4.439   7.005  16.727  0.00  0.00    +0.000 C 
ENDROOT
BRANCH   1  12
ATOM      8  C   UNL     1       0.049  11.032  19.471  0.00  0.00    +0.000 C 
ATOM      9  C   UNL     1       0.824   9.755  19.309  0.00  0.00    +0.000 A 
ATOM     10  C   UNL     1       1.125   8.941  20.404  0.00  0.00    +0.000 A 
ATOM     11  C   UNL     1       1.894   7.782  20.240  0.00  0.00    +0.000 A 
ATOM     12  C   UNL     1       2.339   7.391  18.971  0.00  0.00    +0.000 A 
ATOM     13  C   UNL     1       1.998   8.192  17.873  0.00  0.00    +0.000 A 
ATOM     14  C   UNL     1       1.273   9.375  18.044  0.00  0.00    +0.000 A 
ENDBRANCH   1  12
BRANCH   5  15
ATOM     15  C   UNL     1       5.811   4.233  17.187  0.00  0.00    +0.000 C 
ATOM     16  N   UNL     1       7.059   4.594  17.178  0.00  0.00    +0.000 NA
BRANCH  16  17
ATOM     17  N   UNL     1       7.519   5.457  18.120  0.00  0.00    +0.000 N 
ATOM     18  C   UNL     1       7.897   6.743  17.765  0.00  0.00    +0.000 C 
ATOM     19  O   UNL     1       7.773   7.226  16.636  0.00  0.00    +0.000 OA
ATOM     20  H   UNL     1       7.721   5.104  19.057  0.00  0.00    +0.000 HD
BRANCH  18  21
ATOM     21  C   UNL     1       8.385   7.596  18.908  0.00  0.00    +0.000 C 
BRANCH  21  22
ATOM     22  C   UNL     1       8.501   9.063  18.577  0.00  0.00    +0.000 C 
ATOM     23  O   UNL     1       7.755   9.584  17.752  0.00  0.00    +0.000 OA
ATOM     24  N   UNL     1       9.455   9.756  19.283  0.00  0.00    +0.000 N 
ATOM     25  H   UNL     1      10.140   9.248  19.828  0.00  0.00    +0.000 HD
BRANCH  24  26
ATOM     26  C   UNL     1       9.651  11.181  19.069  0.00  0.00    +0.000 C 
ATOM     27  C   UNL     1       9.129  11.975  20.262  0.00  0.00    +0.000 C 
ATOM     28  C   UNL     1      11.120  11.492  18.799  0.00  0.00    +0.000 C 
ENDBRANCH  24  26
ENDBRANCH  21  22
ENDBRANCH  18  21
ENDBRANCH  16  17
ENDBRANCH   5  15
TORSDOF 6
ENDMDL
MODEL 6
REMARK VINA RESULT:      -6.9      3.220      4.702
REMARK  Name = 
REMARK  11 active torsions:
REMARK  status: ('A' for Active; 'I' for Inactive)
REMARK    1  A    between atoms: C_1  and  C_2
REMARK    2  A    between atoms: C_5  and  N_6
REMARK    3  A    between atoms: C_7  and  C_8
REMARK    4  A    between atoms: C_10  and  C_11
REMARK    5  A    between atoms: N_12  and  N_13
REMARK    6  A    between atoms: C_14  and  C_16
REMARK    7  A    between atoms: C_16  and  C_17
REMARK    8  A    between atoms: N_19  and  C_20
REMARK    9  A    between atoms: C_20  and  C_21
REMARK   10  A    between atoms: C_20  and  C_22
REMARK   11  A    between atoms: C_23  and  C_24
REMARK                            x       y       z     vdW  Elec       q    Type
REMARK                         _______ _______ _______ _____ _____    ______ ____
ROOT
ATOM      1  N   UNL     1       1.913   7.673  19.572  0.00  0.00    +0.000 N 
ATOM      2  C   UNL     1       2.504   8.006  18.353  0.00  0.00    +0.000 A 
ATOM      3  C   UNL     1       2.651   9.370  17.763  0.00  0.00    +0.000 C 
ATOM      4  C   UNL     1       3.008   6.852  17.789  0.00  0.00    +0.000 A 
ATOM      5  C   UNL     1       2.808   5.773  18.677  0.00  0.00    +0.000 A 
ATOM      6  C   UNL     1       2.111   6.293  19.769  0.00  0.00    +0.000 A 
ATOM      7  C   UNL     1       1.550   5.522  20.927  0.00  0.00    +0.000 C 
ENDROOT
BRANCH   1  12
ATOM      8  C   UNL     1      -1.093  11.089  23.115  0.00  0.00    +0.000 C 
ATOM      9  C   UNL     1      -0.295  10.233  22.173  0.00  0.00    +0.000 A 
ATOM     10  C   UNL     1      -0.561  10.214  20.801  0.00  0.00    +0.000 A 
ATOM     11  C   UNL     1       0.159   9.370  19.947  0.00  0.00    +0.000 A 
ATOM     12  C   UNL     1       1.189   8.559  20.442  0.00  0.00    +0.000 A 
ATOM     13  C   UNL     1       1.475   8.615  21.812  0.00  0.00    +0.000 A 
ATOM     14  C   UNL     1       0.724   9.421  22.672  0.00  0.00    +0.000 A 
ENDBRANCH   1  12
BRANCH   5  15
ATOM     15  C   UNL     1       3.139   4.362  18.496  0.00  0.00    +0.000 C 
ATOM     16  N   UNL     1       3.979   3.835  17.656  0.00  0.00    +0.000 NA
BRANCH  16  17
ATOM     17  N   UNL     1       4.804   4.636  16.934  0.00  0.00    +0.000 N 
ATOM     18  C   UNL     1       5.812   4.084  16.159  0.00  0.00    +0.000 C 
ATOM     19  O   UNL     1       5.987   2.874  15.990  0.00  0.00    +0.000 OA
ATOM     20  H   UNL     1       4.768   5.646  17.085  0.00  0.00    +0.000 HD
BRANCH  18  21
ATOM     21  C   UNL     1       6.651   5.086  15.408  0.00  0.00    +0.000 C 
BRANCH  21  22
ATOM     22  C   UNL     1       6.744   4.823  13.925  0.00  0.00    +0.000 C 
ATOM     23  O   UNL     1       7.600   5.375  13.239  0.00  0.00    +0.000 OA
ATOM     24  N   UNL     1       5.845   3.911  13.428  0.00  0.00    +0.000 N 
ATOM     25  H   UNL     1       5.068   3.611  14.003  0.00  0.00    +0.000 HD
BRANCH  24  26
ATOM     26  C   UNL     1       5.846   3.555  12.018  0.00  0.00    +0.000 C 
ATOM     27  C   UNL     1       6.720   2.329  11.779  0.00  0.00    +0.000 C 
ATOM     28  C   UNL     1       4.424   3.327  11.515  0.00  0.00    +0.000 C 
ENDBRANCH  24  26
ENDBRANCH  21  22
ENDBRANCH  18  21
ENDBRANCH  16  17
ENDBRANCH   5  15
TORSDOF 6
ENDMDL
MODEL 7
REMARK VINA RESULT:      -6.8      3.898      6.464
REMARK  Name = 
REMARK  11 active torsions:
REMARK  status: ('A' for Active; 'I' for Inactive)
REMARK    1  A    between atoms: C_1  and  C_2
REMARK    2  A    between atoms: C_5  and  N_6
REMARK    3  A    between atoms: C_7  and  C_8
REMARK    4  A    between atoms: C_10  and  C_11
REMARK    5  A    between atoms: N_12  and  N_13
REMARK    6  A    between atoms: C_14  and  C_16
REMARK    7  A    between atoms: C_16  and  C_17
REMARK    8  A    between atoms: N_19  and  C_20
REMARK    9  A    between atoms: C_20  and  C_21
REMARK   10  A    between atoms: C_20  and  C_22
REMARK   11  A    between atoms: C_23  and  C_24
REMARK                            x       y       z     vdW  Elec       q    Type
REMARK                         _______ _______ _______ _____ _____    ______ ____
ROOT
ATOM      1  N   UNL     1      -0.880  11.238  21.466  0.00  0.00    +0.000 N 
ATOM      2  C   UNL     1      -0.272  10.060  21.903  0.00  0.00    +0.000 A 
ATOM      3  C   UNL     1      -0.235   9.527  23.297  0.00  0.00    +0.000 C 
ATOM      4  C   UNL     1       0.248   9.409  20.803  0.00  0.00    +0.000 A 
ATOM      5  C   UNL     1      -0.084  10.129  19.634  0.00  0.00    +0.000 A 
ATOM      6  C   UNL     1      -0.766  11.269  20.062  0.00  0.00    +0.000 A 
ATOM      7  C   UNL     1      -1.220  12.418  19.210  0.00  0.00    +0.000 C 
ENDROOT
BRANCH   1  12
ATOM      8  C   UNL     1      -3.284  15.410  24.637  0.00  0.00    +0.000 C 
ATOM      9  C   UNL     1      -2.638  14.310  23.844  0.00  0.00    +0.000 A 
ATOM     10  C   UNL     1      -1.258  14.282  23.628  0.00  0.00    +0.000 A 
ATOM     11  C   UNL     1      -0.680  13.277  22.841  0.00  0.00    +0.000 A 
ATOM     12  C   UNL     1      -1.466  12.256  22.293  0.00  0.00    +0.000 A 
ATOM     13  C   UNL     1      -2.843  12.270  22.550  0.00  0.00    +0.000 A 
ATOM     14  C   UNL     1      -3.426  13.300  23.293  0.00  0.00    +0.000 A 
ENDBRANCH   1  12
BRANCH   5  15
ATOM     15  C   UNL     1       0.280   9.848  18.248  0.00  0.00    +0.000 C 
ATOM     16  N   UNL     1       1.319   9.205  17.805  0.00  0.00    +0.000 NA
BRANCH  16  17
ATOM     17  N   UNL     1       2.128   8.548  18.676  0.00  0.00    +0.000 N 
ATOM     18  C   UNL     1       2.379   7.194  18.511  0.00  0.00    +0.000 C 
ATOM     19  O   UNL     1       1.985   6.517  17.558  0.00  0.00    +0.000 OA
ATOM     20  H   UNL     1       2.425   9.025  19.529  0.00  0.00    +0.000 HD
BRANCH  18  21
ATOM     21  C   UNL     1       3.295   6.592  19.546  0.00  0.00    +0.000 C 
BRANCH  21  22
ATOM     22  C   UNL     1       3.245   5.086  19.610  0.00  0.00    +0.000 C 
ATOM     23  O   UNL     1       4.266   4.415  19.486  0.00  0.00    +0.000 OA
ATOM     24  N   UNL     1       2.006   4.544  19.854  0.00  0.00    +0.000 N 
ATOM     25  H   UNL     1       1.183   5.130  19.790  0.00  0.00    +0.000 HD
BRANCH  24  26
ATOM     26  C   UNL     1       1.829   3.104  19.960  0.00  0.00    +0.000 C 
ATOM     27  C   UNL     1       1.377   2.725  21.365  0.00  0.00    +0.000 C 
ATOM     28  C   UNL     1       0.846   2.599  18.908  0.00  0.00    +0.000 C 
ENDBRANCH  24  26
ENDBRANCH  21  22
ENDBRANCH  18  21
ENDBRANCH  16  17
ENDBRANCH   5  15
TORSDOF 6
ENDMDL
MODEL 8
REMARK VINA RESULT:      -6.8      4.078      6.383
REMARK  Name = 
REMARK  11 active torsions:
REMARK  status: ('A' for Active; 'I' for Inactive)
REMARK    1  A    between atoms: C_1  and  C_2
REMARK    2  A    between atoms: C_5  and  N_6
REMARK    3  A    between atoms: C_7  and  C_8
REMARK    4  A    between atoms: C_10  and  C_11
REMARK    5  A    between atoms: N_12  and  N_13
REMARK    6  A    between atoms: C_14  and  C_16
REMARK    7  A    between atoms: C_16  and  C_17
REMARK    8  A    between atoms: N_19  and  C_20
REMARK    9  A    between atoms: C_20  and  C_21
REMARK   10  A    between atoms: C_20  and  C_22
REMARK   11  A    between atoms: C_23  and  C_24
REMARK                            x       y       z     vdW  Elec       q    Type
REMARK                         _______ _______ _______ _____ _____    ______ ____
ROOT
ATOM      1  N   UNL     1       3.639   6.138  18.663  0.00  0.00    +0.000 N 
ATOM      2  C   UNL     1       3.519   4.881  19.258  0.00  0.00    +0.000 A 
ATOM      3  C   UNL     1       2.373   4.371  20.067  0.00  0.00    +0.000 C 
ATOM      4  C   UNL     1       4.629   4.135  18.917  0.00  0.00    +0.000 A 
ATOM      5  C   UNL     1       5.441   4.883  18.037  0.00  0.00    +0.000 A 
ATOM      6  C   UNL     1       4.826   6.128  17.904  0.00  0.00    +0.000 A 
ATOM      7  C   UNL     1       5.363   7.324  17.175  0.00  0.00    +0.000 C 
ENDROOT
BRANCH   1  12
ATOM      8  C   UNL     1      -0.073  10.498  19.342  0.00  0.00    +0.000 C 
ATOM      9  C   UNL     1       0.923   9.390  19.155  0.00  0.00    +0.000 A 
ATOM     10  C   UNL     1       1.486   9.117  17.905  0.00  0.00    +0.000 A 
ATOM     11  C   UNL     1       2.373   8.046  17.741  0.00  0.00    +0.000 A 
ATOM     12  C   UNL     1       2.748   7.253  18.833  0.00  0.00    +0.000 A 
ATOM     13  C   UNL     1       2.211   7.559  20.090  0.00  0.00    +0.000 A 
ATOM     14  C   UNL     1       1.288   8.597  20.244  0.00  0.00    +0.000 A 
ENDBRANCH   1  12
BRANCH   5  15
ATOM     15  C   UNL     1       6.728   4.523  17.446  0.00  0.00    +0.000 C 
ATOM     16  N   UNL     1       6.954   3.945  16.304  0.00  0.00    +0.000 NA
BRANCH  16  17
ATOM     17  N   UNL     1       5.934   3.764  15.426  0.00  0.00    +0.000 N 
ATOM     18  C   UNL     1       5.974   4.362  14.176  0.00  0.00    +0.000 C 
ATOM     19  O   UNL     1       6.931   5.006  13.734  0.00  0.00    +0.000 OA
ATOM     20  H   UNL     1       5.079   3.309  15.750  0.00  0.00    +0.000 HD
BRANCH  18  21
ATOM     21  C   UNL     1       4.781   4.075  13.301  0.00  0.00    +0.000 C 
BRANCH  21  22
ATOM     22  C   UNL     1       5.109   3.305  12.046  0.00  0.00    +0.000 C 
ATOM     23  O   UNL     1       4.669   3.659  10.955  0.00  0.00    +0.000 OA
ATOM     24  N   UNL     1       5.948   2.229  12.213  0.00  0.00    +0.000 N 
ATOM     25  H   UNL     1       6.149   1.893  13.147  0.00  0.00    +0.000 HD
BRANCH  24  26
ATOM     26  C   UNL     1       6.356   1.418  11.077  0.00  0.00    +0.000 C 
ATOM     27  C   UNL     1       7.776   1.774  10.651  0.00  0.00    +0.000 C 
ATOM     28  C   UNL     1       6.232  -0.068  11.400  0.00  0.00    +0.000 C 
ENDBRANCH  24  26
ENDBRANCH  21  22
ENDBRANCH  18  21
ENDBRANCH  16  17
ENDBRANCH   5  15
TORSDOF 6
ENDMDL
MODEL 9
REMARK VINA RESULT:      -6.8      2.528      3.646
REMARK  Name = 
REMARK  11 active torsions:
REMARK  status: ('A' for Active; 'I' for Inactive)
REMARK    1  A    between atoms: C_1  and  C_2
REMARK    2  A    between atoms: C_5  and  N_6
REMARK    3  A    between atoms: C_7  and  C_8
REMARK    4  A    between atoms: C_10  and  C_11
REMARK    5  A    between atoms: N_12  and  N_13
REMARK    6  A    between atoms: C_14  and  C_16
REMARK    7  A    between atoms: C_16  and  C_17
REMARK    8  A    between atoms: N_19  and  C_20
REMARK    9  A    between atoms: C_20  and  C_21
REMARK   10  A    between atoms: C_20  and  C_22
REMARK   11  A    between atoms: C_23  and  C_24
REMARK                            x       y       z     vdW  Elec       q    Type
REMARK                         _______ _______ _______ _____ _____    ______ ____
ROOT
ATOM      1  N   UNL     1       1.418   8.884  19.549  0.00  0.00    +0.000 N 
ATOM      2  C   UNL     1       2.168   8.866  18.373  0.00  0.00    +0.000 A 
ATOM      3  C   UNL     1       2.333   9.979  17.391  0.00  0.00    +0.000 C 
ATOM      4  C   UNL     1       2.808   7.647  18.287  0.00  0.00    +0.000 A 
ATOM      5  C   UNL     1       2.531   6.892  19.448  0.00  0.00    +0.000 A 
ATOM      6  C   UNL     1       1.653   7.663  20.212  0.00  0.00    +0.000 A 
ATOM      7  C   UNL     1       0.964   7.250  21.479  0.00  0.00    +0.000 C 
ENDROOT
BRANCH   1  12
ATOM      8  C   UNL     1      -2.221  12.954  21.404  0.00  0.00    +0.000 C 
ATOM      9  C   UNL     1      -1.266  11.916  20.888  0.00  0.00    +0.000 A 
ATOM     10  C   UNL     1      -1.524  11.209  19.711  0.00  0.00    +0.000 A 
ATOM     11  C   UNL     1      -0.647  10.208  19.274  0.00  0.00    +0.000 A 
ATOM     12  C   UNL     1       0.528   9.927  19.982  0.00  0.00    +0.000 A 
ATOM     13  C   UNL     1       0.800  10.669  21.138  0.00  0.00    +0.000 A 
ATOM     14  C   UNL     1      -0.100  11.633  21.601  0.00  0.00    +0.000 A 
ENDBRANCH   1  12
BRANCH   5  15
ATOM     15  C   UNL     1       2.955   5.535  19.783  0.00  0.00    +0.000 C 
ATOM     16  N   UNL     1       3.940   4.854  19.280  0.00  0.00    +0.000 NA
BRANCH  16  17
ATOM     17  N   UNL     1       4.827   5.462  18.451  0.00  0.00    +0.000 N 
ATOM     18  C   UNL     1       6.164   5.555  18.805  0.00  0.00    +0.000 C 
ATOM     19  O   UNL     1       6.663   5.042  19.811  0.00  0.00    +0.000 OA
ATOM     20  H   UNL     1       4.474   5.975  17.641  0.00  0.00    +0.000 HD
BRANCH  18  21
ATOM     21  C   UNL     1       7.038   6.251  17.793  0.00  0.00    +0.000 C 
BRANCH  21  22
ATOM     22  C   UNL     1       6.530   6.160  16.375  0.00  0.00    +0.000 C 
ATOM     23  O   UNL     1       5.623   6.887  15.982  0.00  0.00    +0.000 OA
ATOM     24  N   UNL     1       7.176   5.251  15.572  0.00  0.00    +0.000 N 
ATOM     25  H   UNL     1       7.803   4.573  15.988  0.00  0.00    +0.000 HD
BRANCH  24  26
ATOM     26  C   UNL     1       6.794   5.083  14.179  0.00  0.00    +0.000 C 
ATOM     27  C   UNL     1       7.983   5.354  13.264  0.00  0.00    +0.000 C 
ATOM     28  C   UNL     1       6.219   3.691  13.938  0.00  0.00    +0.000 C 
ENDBRANCH  24  26
ENDBRANCH  21  22
ENDBRANCH  18  21
ENDBRANCH  16  17
ENDBRANCH   5  15
TORSDOF 6
ENDMDL
