MODEL 1
REMARK VINA RESULT:      -6.9      0.000      0.000
REMARK  Name = 
REMARK  15 active torsions:
REMARK  status: ('A' for Active; 'I' for Inactive)
REMARK    1  A    between atoms: C_1  and  C_2
REMARK    2  A    between atoms: C_2  and  O_3
REMARK    3  A    between atoms: O_3  and  C_4
REMARK    4  A    between atoms: C_6  and  C_7
REMARK    5  A    between atoms: C_8  and  C_9
REMARK    6  A    between atoms: C_9  and  N_10
REMARK    7  A    between atoms: N_10  and  C_27
REMARK    8  A    between atoms: C_11  and  C_13
REMARK    9  A    between atoms: C_16  and  N_17
REMARK   10  A    between atoms: C_20  and  C_21
REMARK   11  A    between atoms: C_23  and  O_24
REMARK   12  A    between atoms: O_24  and  C_25
REMARK   13  A    between atoms: C_31  and  C_32
REMARK   14  A    between atoms: C_32  and  C_33
REMARK   15  A    between atoms: C_32  and  C_34
REMARK                            x       y       z     vdW  Elec       q    Type
REMARK                         _______ _______ _______ _____ _____    ______ ____
ROOT
ATOM      1  N   UNL     1      -0.356  10.455  20.350  0.00  0.00    +0.000 N 
ATOM      2  C   UNL     1       0.787   9.786  20.848  0.00  0.00    +0.000 C 
ATOM      3  O   UNL     1       1.297  10.035  21.942  0.00  0.00    +0.000 OA
ENDROOT
BRANCH   2   4
ATOM      4  C   UNL     1       1.410   8.692  20.034  0.00  0.00    +0.000 A 
ATOM      5  C   UNL     1       1.863   8.955  18.737  0.00  0.00    +0.000 A 
ATOM      6  C   UNL     1       2.527   7.952  18.008  0.00  0.00    +0.000 A 
ATOM      7  C   UNL     1       2.747   6.684  18.579  0.00  0.00    +0.000 A 
ATOM      8  C   UNL     1       2.276   6.429  19.881  0.00  0.00    +0.000 A 
ATOM      9  C   UNL     1       1.552   7.413  20.562  0.00  0.00    +0.000 A 
BRANCH   7  10
ATOM     10  N   UNL     1       3.399   5.663  17.817  0.00  0.00    +0.000 N 
ATOM     11  C   UNL     1       2.906   4.411  17.508  0.00  0.00    +0.000 A 
ATOM     12  N   UNL     1       3.731   3.698  16.776  0.00  0.00    +0.000 NA
ATOM     13  C   UNL     1       4.812   4.505  16.568  0.00  0.00    +0.000 A 
ATOM     14  C   UNL     1       5.962   4.007  15.781  0.00  0.00    +0.000 C 
ATOM     15  C   UNL     1       4.625   5.730  17.182  0.00  0.00    +0.000 A 
ENDBRANCH   7  10
BRANCH   8  16
ATOM     16  O   UNL     1       2.698   5.293  20.519  0.00  0.00    +0.000 OA
ATOM     17  C   UNL     1       1.699   4.375  20.944  0.00  0.00    +0.000 C 
ENDBRANCH   8  16
ENDBRANCH   2   4
BRANCH   1  18
ATOM     18  C   UNL     1      -1.074  10.039  19.160  0.00  0.00    +0.000 C 
ATOM     19  C   UNL     1      -2.244  10.729  18.513  0.00  0.00    +0.000 C 
ATOM     20  C   UNL     1      -0.891  10.841  17.885  0.00  0.00    +0.000 C 
ENDBRANCH   1  18
BRANCH   1  21
ATOM     21  C   UNL     1      -0.902  11.587  21.121  0.00  0.00    +0.000 C 
BRANCH  21  26
ATOM     22  C   UNL     1       0.321  15.291  19.239  0.00  0.00    +0.000 A 
ATOM     23  C   UNL     1      -1.012  15.091  19.621  0.00  0.00    +0.000 A 
ATOM     24  C   UNL     1      -1.420  13.979  20.372  0.00  0.00    +0.000 A 
ATOM     25  C   UNL     1      -2.847  13.958  20.852  0.00  0.00    +0.000 C 
ATOM     26  C   UNL     1      -0.487  12.966  20.640  0.00  0.00    +0.000 A 
ATOM     27  C   UNL     1       0.864  13.211  20.331  0.00  0.00    +0.000 A 
ATOM     28  C   UNL     1       1.299  14.384  19.680  0.00  0.00    +0.000 A 
BRANCH  28  29
ATOM     29  C   UNL     1       2.790  14.669  19.528  0.00  0.00    +0.000 C 
ATOM     30  C   UNL     1       3.523  14.250  20.811  0.00  0.00    +0.000 C 
ATOM     31  C   UNL     1       3.464  13.985  18.328  0.00  0.00    +0.000 C 
ENDBRANCH  28  29
BRANCH  22  32
ATOM     32  O   UNL     1       0.721  16.355  18.458  0.00  0.00    +0.000 OA
BRANCH  32  34
ATOM     33  C   UNL     1      -0.308  18.089  17.106  0.00  0.00    +0.000 C 
ATOM     34  C   UNL     1      -0.146  17.496  18.491  0.00  0.00    +0.000 C 
ENDBRANCH  32  34
ENDBRANCH  22  32
ENDBRANCH  21  26
ENDBRANCH   1  21
TORSDOF 9
ENDMDL
MODEL 2
REMARK VINA RESULT:      -6.9      2.817      5.051
REMARK  Name = 
REMARK  15 active torsions:
REMARK  status: ('A' for Active; 'I' for Inactive)
REMARK    1  A    between atoms: C_1  and  C_2
REMARK    2  A    between atoms: C_2  and  O_3
REMARK    3  A    between atoms: O_3  and  C_4
REMARK    4  A    between atoms: C_6  and  C_7
REMARK    5  A    between atoms: C_8  and  C_9
REMARK    6  A    between atoms: C_9  and  N_10
REMARK    7  A    between atoms: N_10  and  C_27
REMARK    8  A    between atoms: C_11  and  C_13
REMARK    9  A    between atoms: C_16  and  N_17
REMARK   10  A    between atoms: C_20  and  C_21
REMARK   11  A    between atoms: C_23  and  O_24
REMARK   12  A    between atoms: O_24  and  C_25
REMARK   13  A    between atoms: C_31  and  C_32
REMARK   14  A    between atoms: C_32  and  C_33
REMARK   15  A    between atoms: C_32  and  C_34
REMARK                            x       y       z     vdW  Elec       q    Type
REMARK                         _______ _______ _______ _____ _____    ______ ____
ROOT
ATOM      1  N   UNL     1      -0.690  11.221  19.705  0.00  0.00    +0.000 N 
ATOM      2  C   UNL     1       0.530  10.887  20.339  0.00  0.00    +0.000 C 
ATOM      3  O   UNL     1       1.147  11.659  21.076  0.00  0.00    +0.000 OA
ENDROOT
BRANCH   2   4
ATOM      4  C   UNL     1       1.109   9.518  20.144  0.00  0.00    +0.000 A 
ATOM      5  C   UNL     1       0.916   8.530  21.115  0.00  0.00    +0.000 A 
ATOM      6  C   UNL     1       1.383   7.223  20.889  0.00  0.00    +0.000 A 
ATOM      7  C   UNL     1       2.038   6.898  19.686  0.00  0.00    +0.000 A 
ATOM      8  C   UNL     1       2.236   7.905  18.722  0.00  0.00    +0.000 A 
ATOM      9  C   UNL     1       1.832   9.216  18.995  0.00  0.00    +0.000 A 
BRANCH   7  10
ATOM     10  N   UNL     1       2.534   5.571  19.480  0.00  0.00    +0.000 N 
ATOM     11  C   UNL     1       3.764   5.073  19.860  0.00  0.00    +0.000 A 
ATOM     12  N   UNL     1       3.927   3.808  19.548  0.00  0.00    +0.000 NA
ATOM     13  C   UNL     1       2.757   3.434  18.952  0.00  0.00    +0.000 A 
ATOM     14  C   UNL     1       2.595   2.051  18.452  0.00  0.00    +0.000 C 
ATOM     15  C   UNL     1       1.874   4.497  18.915  0.00  0.00    +0.000 A 
ENDBRANCH   7  10
BRANCH   8  16
ATOM     16  O   UNL     1       2.651   7.539  17.468  0.00  0.00    +0.000 OA
ATOM     17  C   UNL     1       4.052   7.466  17.241  0.00  0.00    +0.000 C 
ENDBRANCH   8  16
ENDBRANCH   2   4
BRANCH   1  18
ATOM     18  C   UNL     1      -1.515  10.260  18.998  0.00  0.00    +0.000 C 
ATOM     19  C   UNL     1      -2.597  10.552  17.994  0.00  0.00    +0.000 C 
ATOM     20  C   UNL     1      -1.273  10.048  17.516  0.00  0.00    +0.000 C 
ENDBRANCH   1  18
BRANCH   1  21
ATOM     21  C   UNL     1      -1.197  12.599  19.835  0.00  0.00    +0.000 C 
BRANCH  21  26
ATOM     22  C   UNL     1      -4.739  12.520  22.326  0.00  0.00    +0.000 A 
ATOM     23  C   UNL     1      -3.468  12.659  22.898  0.00  0.00    +0.000 A 
ATOM     24  C   UNL     1      -2.313  12.848  22.126  0.00  0.00    +0.000 A 
ATOM     25  C   UNL     1      -1.033  13.142  22.862  0.00  0.00    +0.000 C 
ATOM     26  C   UNL     1      -2.414  12.766  20.728  0.00  0.00    +0.000 A 
ATOM     27  C   UNL     1      -3.700  12.712  20.160  0.00  0.00    +0.000 A 
ATOM     28  C   UNL     1      -4.877  12.641  20.934  0.00  0.00    +0.000 A 
BRANCH  28  29
ATOM     29  C   UNL     1      -6.243  12.760  20.265  0.00  0.00    +0.000 C 
ATOM     30  C   UNL     1      -6.080  13.413  18.885  0.00  0.00    +0.000 C 
ATOM     31  C   UNL     1      -7.003  11.435  20.098  0.00  0.00    +0.000 C 
ENDBRANCH  28  29
BRANCH  22  32
ATOM     32  O   UNL     1      -5.872  12.284  23.076  0.00  0.00    +0.000 OA
BRANCH  32  34
ATOM     33  C   UNL     1      -7.378  14.122  23.578  0.00  0.00    +0.000 C 
ATOM     34  C   UNL     1      -6.190  13.300  24.037  0.00  0.00    +0.000 C 
ENDBRANCH  32  34
ENDBRANCH  22  32
ENDBRANCH  21  26
ENDBRANCH   1  21
TORSDOF 9
ENDMDL
MODEL 3
REMARK VINA RESULT:      -6.9      2.529      4.734
REMARK  Name = 
REMARK  15 active torsions:
REMARK  status: ('A' for Active; 'I' for Inactive)
REMARK    1  A    between atoms: C_1  and  C_2
REMARK    2  A    between atoms: C_2  and  O_3
REMARK    3  A    between atoms: O_3  and  C_4
REMARK    4  A    between atoms: C_6  and  C_7
REMARK    5  A    between atoms: C_8  and  C_9
REMARK    6  A    between atoms: C_9  and  N_10
REMARK    7  A    between atoms: N_10  and  C_27
REMARK    8  A    between atoms: C_11  and  C_13
REMARK    9  A    between atoms: C_16  and  N_17
REMARK   10  A    between atoms: C_20  and  C_21
REMARK   11  A    between atoms: C_23  and  O_24
REMARK   12  A    between atoms: O_24  and  C_25
REMARK   13  A    between atoms: C_31  and  C_32
REMARK   14  A    between atoms: C_32  and  C_33
REMARK   15  A    between atoms: C_32  and  C_34
REMARK                            x       y       z     vdW  Elec       q    Type
REMARK                         _______ _______ _______ _____ _____    ______ ____
ROOT
ATOM      1  N   UNL     1      -0.772  11.412  19.095  0.00  0.00    +0.000 N 
ATOM      2  C   UNL     1       0.597  11.200  19.385  0.00  0.00    +0.000 C 
ATOM      3  O   UNL     1       1.325  12.057  19.889  0.00  0.00    +0.000 OA
ENDROOT
BRANCH   2   4
ATOM      4  C   UNL     1       1.210   9.862  19.100  0.00  0.00    +0.000 A 
ATOM      5  C   UNL     1       1.838   9.625  17.873  0.00  0.00    +0.000 A 
ATOM      6  C   UNL     1       2.488   8.400  17.642  0.00  0.00    +0.000 A 
ATOM      7  C   UNL     1       2.519   7.410  18.641  0.00  0.00    +0.000 A 
ATOM      8  C   UNL     1       1.873   7.657  19.868  0.00  0.00    +0.000 A 
ATOM      9  C   UNL     1       1.168   8.850  20.053  0.00  0.00    +0.000 A 
BRANCH   7  10
ATOM     10  N   UNL     1       3.160   6.156  18.384  0.00  0.00    +0.000 N 
ATOM     11  C   UNL     1       4.480   5.830  18.624  0.00  0.00    +0.000 A 
ATOM     12  N   UNL     1       4.773   4.592  18.298  0.00  0.00    +0.000 NA
ATOM     13  C   UNL     1       3.604   4.058  17.838  0.00  0.00    +0.000 A 
ATOM     14  C   UNL     1       3.571   2.658  17.362  0.00  0.00    +0.000 C 
ATOM     15  C   UNL     1       2.589   4.996  17.899  0.00  0.00    +0.000 A 
ENDBRANCH   7  10
BRANCH   8  16
ATOM     16  O   UNL     1       2.108   6.804  20.915  0.00  0.00    +0.000 OA
ATOM     17  C   UNL     1       1.367   5.591  20.946  0.00  0.00    +0.000 C 
ENDBRANCH   8  16
ENDBRANCH   2   4
BRANCH   1  18
ATOM     18  C   UNL     1      -1.677  10.355  18.685  0.00  0.00    +0.000 C 
ATOM     19  C   UNL     1      -2.911  10.491  17.835  0.00  0.00    +0.000 C 
ATOM     20  C   UNL     1      -1.669   9.916  17.233  0.00  0.00    +0.000 C 
ENDBRANCH   1  18
BRANCH   1  21
ATOM     21  C   UNL     1      -1.334  12.759  19.297  0.00  0.00    +0.000 C 
BRANCH  21  26
ATOM     22  C   UNL     1      -4.576  12.504  22.157  0.00  0.00    +0.000 A 
ATOM     23  C   UNL     1      -3.244  12.518  22.589  0.00  0.00    +0.000 A 
ATOM     24  C   UNL     1      -2.173  12.757  21.716  0.00  0.00    +0.000 A 
ATOM     25  C   UNL     1      -0.805  12.903  22.327  0.00  0.00    +0.000 C 
ATOM     26  C   UNL     1      -2.433  12.859  20.340  0.00  0.00    +0.000 A 
ATOM     27  C   UNL     1      -3.776  12.930  19.924  0.00  0.00    +0.000 A 
ATOM     28  C   UNL     1      -4.861  12.807  20.816  0.00  0.00    +0.000 A 
BRANCH  28  29
ATOM     29  C   UNL     1      -6.285  13.065  20.331  0.00  0.00    +0.000 C 
ATOM     30  C   UNL     1      -6.255  14.077  19.177  0.00  0.00    +0.000 C 
ATOM     31  C   UNL     1      -7.052  11.815  19.873  0.00  0.00    +0.000 C 
ENDBRANCH  28  29
BRANCH  22  32
ATOM     32  O   UNL     1      -5.630  12.219  23.000  0.00  0.00    +0.000 OA
BRANCH  32  34
ATOM     33  C   UNL     1      -6.342  14.405  23.781  0.00  0.00    +0.000 C 
ATOM     34  C   UNL     1      -5.736  13.066  24.152  0.00  0.00    +0.000 C 
ENDBRANCH  32  34
ENDBRANCH  22  32
ENDBRANCH  21  26
ENDBRANCH   1  21
TORSDOF 9
ENDMDL
MODEL 4
REMARK VINA RESULT:      -6.5      3.292      9.793
REMARK  Name = 
REMARK  15 active torsions:
REMARK  status: ('A' for Active; 'I' for Inactive)
REMARK    1  A    between atoms: C_1  and  C_2
REMARK    2  A    between atoms: C_2  and  O_3
REMARK    3  A    between atoms: O_3  and  C_4
REMARK    4  A    between atoms: C_6  and  C_7
REMARK    5  A    between atoms: C_8  and  C_9
REMARK    6  A    between atoms: C_9  and  N_10
REMARK    7  A    between atoms: N_10  and  C_27
REMARK    8  A    between atoms: C_11  and  C_13
REMARK    9  A    between atoms: C_16  and  N_17
REMARK   10  A    between atoms: C_20  and  C_21
REMARK   11  A    between atoms: C_23  and  O_24
REMARK   12  A    between atoms: O_24  and  C_25
REMARK   13  A    between atoms: C_31  and  C_32
REMARK   14  A    between atoms: C_32  and  C_33
REMARK   15  A    between atoms: C_32  and  C_34
REMARK                            x       y       z     vdW  Elec       q    Type
REMARK                         _______ _______ _______ _____ _____    ______ ____
ROOT
ATOM      1  N   UNL     1       1.069   9.058  19.654  0.00  0.00    +0.000 N 
ATOM      2  C   UNL     1       0.601   9.547  18.411  0.00  0.00    +0.000 C 
ATOM      3  O   UNL     1       1.230   9.440  17.358  0.00  0.00    +0.000 OA
ENDROOT
BRANCH   2   4
ATOM      4  C   UNL     1      -0.743  10.210  18.342  0.00  0.00    +0.000 A 
ATOM      5  C   UNL     1      -1.813   9.560  17.720  0.00  0.00    +0.000 A 
ATOM      6  C   UNL     1      -3.093  10.144  17.734  0.00  0.00    +0.000 A 
ATOM      7  C   UNL     1      -3.307  11.376  18.378  0.00  0.00    +0.000 A 
ATOM      8  C   UNL     1      -2.218  12.025  18.991  0.00  0.00    +0.000 A 
ATOM      9  C   UNL     1      -0.938  11.468  18.902  0.00  0.00    +0.000 A 
BRANCH   7  10
ATOM     10  N   UNL     1      -4.607  11.973  18.361  0.00  0.00    +0.000 N 
ATOM     11  C   UNL     1      -5.391  12.296  19.451  0.00  0.00    +0.000 A 
ATOM     12  N   UNL     1      -6.534  12.851  19.118  0.00  0.00    +0.000 NA
ATOM     13  C   UNL     1      -6.513  12.921  17.755  0.00  0.00    +0.000 A 
ATOM     14  C   UNL     1      -7.671  13.489  17.030  0.00  0.00    +0.000 C 
ATOM     15  C   UNL     1      -5.328  12.405  17.264  0.00  0.00    +0.000 A 
ENDBRANCH   7  10
BRANCH   8  16
ATOM     16  O   UNL     1      -2.470  13.090  19.816  0.00  0.00    +0.000 OA
ATOM     17  C   UNL     1      -2.019  12.993  21.161  0.00  0.00    +0.000 C 
ENDBRANCH   8  16
ENDBRANCH   2   4
BRANCH   1  18
ATOM     18  C   UNL     1       0.254   9.006  20.854  0.00  0.00    +0.000 C 
ATOM     19  C   UNL     1       0.725   8.788  22.266  0.00  0.00    +0.000 C 
ATOM     20  C   UNL     1       0.330  10.163  21.831  0.00  0.00    +0.000 C 
ENDBRANCH   1  18
BRANCH   1  21
ATOM     21  C   UNL     1       2.428   8.491  19.721  0.00  0.00    +0.000 C 
BRANCH  21  26
ATOM     22  C   UNL     1       2.220   4.337  18.516  0.00  0.00    +0.000 A 
ATOM     23  C   UNL     1       2.918   5.270  17.740  0.00  0.00    +0.000 A 
ATOM     24  C   UNL     1       3.145   6.586  18.169  0.00  0.00    +0.000 A 
ATOM     25  C   UNL     1       4.042   7.444  17.317  0.00  0.00    +0.000 C 
ATOM     26  C   UNL     1       2.542   7.021  19.360  0.00  0.00    +0.000 A 
ATOM     27  C   UNL     1       1.916   6.059  20.175  0.00  0.00    +0.000 A 
ATOM     28  C   UNL     1       1.788   4.706  19.801  0.00  0.00    +0.000 A 
BRANCH  28  29
ATOM     29  C   UNL     1       1.256   3.682  20.799  0.00  0.00    +0.000 C 
ATOM     30  C   UNL     1       0.411   2.637  20.056  0.00  0.00    +0.000 C 
ATOM     31  C   UNL     1       2.331   2.954  21.621  0.00  0.00    +0.000 C 
ENDBRANCH  28  29
BRANCH  22  32
ATOM     32  O   UNL     1       1.949   3.056  18.079  0.00  0.00    +0.000 OA
BRANCH  32  34
ATOM     33  C   UNL     1       3.841   1.671  18.709  0.00  0.00    +0.000 C 
ATOM     34  C   UNL     1       3.080   2.332  17.577  0.00  0.00    +0.000 C 
ENDBRANCH  32  34
ENDBRANCH  22  32
ENDBRANCH  21  26
ENDBRANCH   1  21
TORSDOF 9
ENDMDL
MODEL 5
REMARK VINA RESULT:      -6.5      2.207      4.227
REMARK  Name = 
REMARK  15 active torsions:
REMARK  status: ('A' for Active; 'I' for Inactive)
REMARK    1  A    between atoms: C_1  and  C_2
REMARK    2  A    between atoms: C_2  and  O_3
REMARK    3  A    between atoms: O_3  and  C_4
REMARK    4  A    between atoms: C_6  and  C_7
REMARK    5  A    between atoms: C_8  and  C_9
REMARK    6  A    between atoms: C_9  and  N_10
REMARK    7  A    between atoms: N_10  and  C_27
REMARK    8  A    between atoms: C_11  and  C_13
REMARK    9  A    between atoms: C_16  and  N_17
REMARK   10  A    between atoms: C_20  and  C_21
REMARK   11  A    between atoms: C_23  and  O_24
REMARK   12  A    between atoms: O_24  and  C_25
REMARK   13  A    between atoms: C_31  and  C_32
REMARK   14  A    between atoms: C_32  and  C_33
REMARK   15  A    between atoms: C_32  and  C_34
REMARK                            x       y       z     vdW  Elec       q    Type
REMARK                         _______ _______ _______ _____ _____    ______ ____
ROOT
ATOM      1  N   UNL     1       0.446  11.249  20.026  0.00  0.00    +0.000 N 
ATOM      2  C   UNL     1       0.382   9.873  20.352  0.00  0.00    +0.000 C 
ATOM      3  O   UNL     1      -0.367   9.414  21.216  0.00  0.00    +0.000 OA
ENDROOT
BRANCH   2   4
ATOM      4  C   UNL     1       1.240   8.900  19.601  0.00  0.00    +0.000 A 
ATOM      5  C   UNL     1       1.672   9.201  18.305  0.00  0.00    +0.000 A 
ATOM      6  C   UNL     1       2.548   8.327  17.637  0.00  0.00    +0.000 A 
ATOM      7  C   UNL     1       3.001   7.152  18.266  0.00  0.00    +0.000 A 
ATOM      8  C   UNL     1       2.549   6.856  19.567  0.00  0.00    +0.000 A 
ATOM      9  C   UNL     1       1.620   7.697  20.187  0.00  0.00    +0.000 A 
BRANCH   7  10
ATOM     10  N   UNL     1       3.870   6.257  17.565  0.00  0.00    +0.000 N 
ATOM     11  C   UNL     1       3.645   4.924  17.288  0.00  0.00    +0.000 A 
ATOM     12  N   UNL     1       4.622   4.366  16.610  0.00  0.00    +0.000 NA
ATOM     13  C   UNL     1       5.531   5.364  16.407  0.00  0.00    +0.000 A 
ATOM     14  C   UNL     1       6.786   5.079  15.677  0.00  0.00    +0.000 C 
ATOM     15  C   UNL     1       5.083   6.545  16.969  0.00  0.00    +0.000 A 
ENDBRANCH   7  10
BRANCH   8  16
ATOM     16  O   UNL     1       3.171   5.853  20.263  0.00  0.00    +0.000 OA
ATOM     17  C   UNL     1       2.350   4.813  20.779  0.00  0.00    +0.000 C 
ENDBRANCH   8  16
ENDBRANCH   2   4
BRANCH   1  18
ATOM     18  C   UNL     1       1.177  11.769  18.885  0.00  0.00    +0.000 C 
ATOM     19  C   UNL     1       1.148  13.175  18.349  0.00  0.00    +0.000 C 
ATOM     20  C   UNL     1       2.334  12.717  19.137  0.00  0.00    +0.000 C 
ENDBRANCH   1  18
BRANCH   1  21
ATOM     21  C   UNL     1      -0.336  12.202  20.834  0.00  0.00    +0.000 C 
BRANCH  21  26
ATOM     22  C   UNL     1      -4.508  12.582  19.734  0.00  0.00    +0.000 A 
ATOM     23  C   UNL     1      -3.914  13.502  20.608  0.00  0.00    +0.000 A 
ATOM     24  C   UNL     1      -2.536  13.511  20.867  0.00  0.00    +0.000 A 
ATOM     25  C   UNL     1      -1.999  14.645  21.699  0.00  0.00    +0.000 C 
ATOM     26  C   UNL     1      -1.741  12.484  20.333  0.00  0.00    +0.000 A 
ATOM     27  C   UNL     1      -2.326  11.617  19.390  0.00  0.00    +0.000 A 
ATOM     28  C   UNL     1      -3.689  11.679  19.036  0.00  0.00    +0.000 A 
BRANCH  28  29
ATOM     29  C   UNL     1      -4.222  10.829  17.886  0.00  0.00    +0.000 C 
ATOM     30  C   UNL     1      -4.491  11.728  16.671  0.00  0.00    +0.000 C 
ATOM     31  C   UNL     1      -3.307   9.673  17.453  0.00  0.00    +0.000 C 
ENDBRANCH  28  29
BRANCH  22  32
ATOM     32  O   UNL     1      -5.869  12.534  19.514  0.00  0.00    +0.000 OA
BRANCH  32  34
ATOM     33  C   UNL     1      -7.324  11.613  21.225  0.00  0.00    +0.000 C 
ATOM     34  C   UNL     1      -6.682  12.860  20.649  0.00  0.00    +0.000 C 
ENDBRANCH  32  34
ENDBRANCH  22  32
ENDBRANCH  21  26
ENDBRANCH   1  21
TORSDOF 9
ENDMDL
MODEL 6
REMARK VINA RESULT:      -6.4      2.335      4.414
REMARK  Name = 
REMARK  15 active torsions:
REMARK  status: ('A' for Active; 'I' for Inactive)
REMARK    1  A    between atoms: C_1  and  C_2
REMARK    2  A    between atoms: C_2  and  O_3
REMARK    3  A    between atoms: O_3  and  C_4
REMARK    4  A    between atoms: C_6  and  C_7
REMARK    5  A    between atoms: C_8  and  C_9
REMARK    6  A    between atoms: C_9  and  N_10
REMARK    7  A    between atoms: N_10  and  C_27
REMARK    8  A    between atoms: C_11  and  C_13
REMARK    9  A    between atoms: C_16  and  N_17
REMARK   10  A    between atoms: C_20  and  C_21
REMARK   11  A    between atoms: C_23  and  O_24
REMARK   12  A    between atoms: O_24  and  C_25
REMARK   13  A    between atoms: C_31  and  C_32
REMARK   14  A    between atoms: C_32  and  C_33
REMARK   15  A    between atoms: C_32  and  C_34
REMARK                            x       y       z     vdW  Elec       q    Type
REMARK                         _______ _______ _______ _____ _____    ______ ____
ROOT
ATOM      1  N   UNL     1      -0.454  11.650  18.908  0.00  0.00    +0.000 N 
ATOM      2  C   UNL     1       0.827  11.374  19.442  0.00  0.00    +0.000 C 
ATOM      3  O   UNL     1       1.625  12.249  19.782  0.00  0.00    +0.000 OA
ENDROOT
BRANCH   2   4
ATOM      4  C   UNL     1       1.247   9.948  19.643  0.00  0.00    +0.000 A 
ATOM      5  C   UNL     1       0.928   9.285  20.832  0.00  0.00    +0.000 A 
ATOM      6  C   UNL     1       1.245   7.923  20.982  0.00  0.00    +0.000 A 
ATOM      7  C   UNL     1       1.875   7.218  19.940  0.00  0.00    +0.000 A 
ATOM      8  C   UNL     1       2.200   7.902  18.752  0.00  0.00    +0.000 A 
ATOM      9  C   UNL     1       1.946   9.273  18.649  0.00  0.00    +0.000 A 
BRANCH   7  10
ATOM     10  N   UNL     1       2.218   5.840  20.116  0.00  0.00    +0.000 N 
ATOM     11  C   UNL     1       3.456   5.259  19.929  0.00  0.00    +0.000 A 
ATOM     12  N   UNL     1       3.465   3.971  20.186  0.00  0.00    +0.000 NA
ATOM     13  C   UNL     1       2.191   3.676  20.578  0.00  0.00    +0.000 A 
ATOM     14  C   UNL     1       1.834   2.285  20.934  0.00  0.00    +0.000 C 
ATOM     15  C   UNL     1       1.407   4.814  20.562  0.00  0.00    +0.000 A 
ENDBRANCH   7  10
BRANCH   8  16
ATOM     16  O   UNL     1       2.587   7.170  17.660  0.00  0.00    +0.000 OA
ATOM     17  C   UNL     1       3.958   7.228  17.289  0.00  0.00    +0.000 C 
ENDBRANCH   8  16
ENDBRANCH   2   4
BRANCH   1  18
ATOM     18  C   UNL     1      -1.468  10.635  18.689  0.00  0.00    +0.000 C 
ATOM     19  C   UNL     1      -2.740  10.774  17.898  0.00  0.00    +0.000 C 
ATOM     20  C   UNL     1      -1.592  10.020  17.308  0.00  0.00    +0.000 C 
ENDBRANCH   1  18
BRANCH   1  21
ATOM     21  C   UNL     1      -0.815  13.053  18.634  0.00  0.00    +0.000 C 
BRANCH  21  26
ATOM     22  C   UNL     1      -1.929  14.944  22.367  0.00  0.00    +0.000 A 
ATOM     23  C   UNL     1      -0.928  15.497  21.557  0.00  0.00    +0.000 A 
ATOM     24  C   UNL     1      -0.646  15.012  20.273  0.00  0.00    +0.000 A 
ATOM     25  C   UNL     1       0.341  15.789  19.443  0.00  0.00    +0.000 C 
ATOM     26  C   UNL     1      -1.299  13.849  19.832  0.00  0.00    +0.000 A 
ATOM     27  C   UNL     1      -2.360  13.350  20.611  0.00  0.00    +0.000 A 
ATOM     28  C   UNL     1      -2.726  13.909  21.852  0.00  0.00    +0.000 A 
BRANCH  28  29
ATOM     29  C   UNL     1      -3.990  13.433  22.564  0.00  0.00    +0.000 C 
ATOM     30  C   UNL     1      -4.883  12.680  21.568  0.00  0.00    +0.000 C 
ATOM     31  C   UNL     1      -3.749  12.536  23.787  0.00  0.00    +0.000 C 
ENDBRANCH  28  29
BRANCH  22  32
ATOM     32  O   UNL     1      -2.178  15.384  23.651  0.00  0.00    +0.000 OA
BRANCH  32  34
ATOM     33  C   UNL     1      -1.371  15.962  25.867  0.00  0.00    +0.000 C 
ATOM     34  C   UNL     1      -1.089  15.229  24.571  0.00  0.00    +0.000 C 
ENDBRANCH  32  34
ENDBRANCH  22  32
ENDBRANCH  21  26
ENDBRANCH   1  21
TORSDOF 9
ENDMDL
MODEL 7
REMARK VINA RESULT:      -6.4      2.676      4.695
REMARK  Name = 
REMARK  15 active torsions:
REMARK  status: ('A' for Active; 'I' for Inactive)
REMARK    1  A    between atoms: C_1  and  C_2
REMARK    2  A    between atoms: C_2  and  O_3
REMARK    3  A    between atoms: O_3  and  C_4
REMARK    4  A    between atoms: C_6  and  C_7
REMARK    5  A    between atoms: C_8  and  C_9
REMARK    6  A    between atoms: C_9  and  N_10
REMARK    7  A    between atoms: N_10  and  C_27
REMARK    8  A    between atoms: C_11  and  C_13
REMARK    9  A    between atoms: C_16  and  N_17
REMARK   10  A    between atoms: C_20  and  C_21
REMARK   11  A    between atoms: C_23  and  O_24
REMARK   12  A    between atoms: O_24  and  C_25
REMARK   13  A    between atoms: C_31  and  C_32
REMARK   14  A    between atoms: C_32  and  C_33
REMARK   15  A    between atoms: C_32  and  C_34
REMARK                            x       y       z     vdW  Elec       q    Type
REMARK                         _______ _______ _______ _____ _____    ______ ____
ROOT
ATOM      1  N   UNL     1       0.959  10.743  19.588  0.00  0.00    +0.000 N 
ATOM      2  C   UNL     1       1.675  10.164  18.513  0.00  0.00    +0.000 C 
ATOM      3  O   UNL     1       1.902  10.751  17.454  0.00  0.00    +0.000 OA
ENDROOT
BRANCH   2   4
ATOM      4  C   UNL     1       2.221   8.775  18.658  0.00  0.00    +0.000 A 
ATOM      5  C   UNL     1       1.763   7.946  19.686  0.00  0.00    +0.000 A 
ATOM      6  C   UNL     1       2.211   6.615  19.767  0.00  0.00    +0.000 A 
ATOM      7  C   UNL     1       3.113   6.107  18.813  0.00  0.00    +0.000 A 
ATOM      8  C   UNL     1       3.574   6.957  17.789  0.00  0.00    +0.000 A 
ATOM      9  C   UNL     1       3.178   8.298  17.768  0.00  0.00    +0.000 A 
BRANCH   7  10
ATOM     10  N   UNL     1       3.583   4.760  18.922  0.00  0.00    +0.000 N 
ATOM     11  C   UNL     1       4.742   4.329  19.536  0.00  0.00    +0.000 A 
ATOM     12  N   UNL     1       4.896   3.026  19.490  0.00  0.00    +0.000 NA
ATOM     13  C   UNL     1       3.792   2.559  18.836  0.00  0.00    +0.000 A 
ATOM     14  C   UNL     1       3.642   1.108  18.589  0.00  0.00    +0.000 C 
ATOM     15  C   UNL     1       2.957   3.606  18.493  0.00  0.00    +0.000 A 
ENDBRANCH   7  10
BRANCH   8  16
ATOM     16  O   UNL     1       4.252   6.403  16.735  0.00  0.00    +0.000 OA
ATOM     17  C   UNL     1       5.645   6.672  16.642  0.00  0.00    +0.000 C 
ENDBRANCH   8  16
ENDBRANCH   2   4
BRANCH   1  18
ATOM     18  C   UNL     1       0.855  10.136  20.901  0.00  0.00    +0.000 C 
ATOM     19  C   UNL     1       0.097  10.660  22.090  0.00  0.00    +0.000 C 
ATOM     20  C   UNL     1      -0.467   9.515  21.311  0.00  0.00    +0.000 C 
ENDBRANCH   1  18
BRANCH   1  21
ATOM     21  C   UNL     1       0.353  12.073  19.395  0.00  0.00    +0.000 C 
BRANCH  21  26
ATOM     22  C   UNL     1      -3.911  11.577  18.817  0.00  0.00    +0.000 A 
ATOM     23  C   UNL     1      -3.420  12.444  19.802  0.00  0.00    +0.000 A 
ATOM     24  C   UNL     1      -2.058  12.756  19.919  0.00  0.00    +0.000 A 
ATOM     25  C   UNL     1      -1.678  13.820  20.914  0.00  0.00    +0.000 C 
ATOM     26  C   UNL     1      -1.138  12.076  19.106  0.00  0.00    +0.000 A 
ATOM     27  C   UNL     1      -1.641  11.273  18.065  0.00  0.00    +0.000 A 
ATOM     28  C   UNL     1      -3.019  11.050  17.868  0.00  0.00    +0.000 A 
BRANCH  28  29
ATOM     29  C   UNL     1      -3.507  10.315  16.624  0.00  0.00    +0.000 C 
ATOM     30  C   UNL     1      -4.034  11.333  15.603  0.00  0.00    +0.000 C 
ATOM     31  C   UNL     1      -2.456   9.427  15.938  0.00  0.00    +0.000 C 
ENDBRANCH  28  29
BRANCH  22  32
ATOM     32  O   UNL     1      -5.242  11.227  18.727  0.00  0.00    +0.000 OA
BRANCH  32  34
ATOM     33  C   UNL     1      -7.315  12.473  18.518  0.00  0.00    +0.000 C 
ATOM     34  C   UNL     1      -6.150  12.101  19.412  0.00  0.00    +0.000 C 
ENDBRANCH  32  34
ENDBRANCH  22  32
ENDBRANCH  21  26
ENDBRANCH   1  21
TORSDOF 9
ENDMDL
MODEL 8
REMARK VINA RESULT:      -6.3      2.277      3.981
REMARK  Name = 
REMARK  15 active torsions:
REMARK  status: ('A' for Active; 'I' for Inactive)
REMARK    1  A    between atoms: C_1  and  C_2
REMARK    2  A    between atoms: C_2  and  O_3
REMARK    3  A    between atoms: O_3  and  C_4
REMARK    4  A    between atoms: C_6  and  C_7
REMARK    5  A    between atoms: C_8  and  C_9
REMARK    6  A    between atoms: C_9  and  N_10
REMARK    7  A    between atoms: N_10  and  C_27
REMARK    8  A    between atoms: C_11  and  C_13
REMARK    9  A    between atoms: C_16  and  N_17
REMARK   10  A    between atoms: C_20  and  C_21
REMARK   11  A    between atoms: C_23  and  O_24
REMARK   12  A    between atoms: O_24  and  C_25
REMARK   13  A    between atoms: C_31  and  C_32
REMARK   14  A    between atoms: C_32  and  C_33
REMARK   15  A    between atoms: C_32  and  C_34
REMARK                            x       y       z     vdW  Elec       q    Type
REMARK                         _______ _______ _______ _____ _____    ______ ____
ROOT
ATOM      1  N   UNL     1      -0.366  11.340  18.672  0.00  0.00    +0.000 N 
ATOM      2  C   UNL     1       0.917  11.079  19.211  0.00  0.00    +0.000 C 
ATOM      3  O   UNL     1       1.721  11.964  19.512  0.00  0.00    +0.000 OA
ENDROOT
BRANCH   2   4
ATOM      4  C   UNL     1       1.332   9.661  19.466  0.00  0.00    +0.000 A 
ATOM      5  C   UNL     1       0.961   9.026  20.656  0.00  0.00    +0.000 A 
ATOM      6  C   UNL     1       1.276   7.669  20.854  0.00  0.00    +0.000 A 
ATOM      7  C   UNL     1       1.954   6.942  19.859  0.00  0.00    +0.000 A 
ATOM      8  C   UNL     1       2.331   7.597  18.671  0.00  0.00    +0.000 A 
ATOM      9  C   UNL     1       2.078   8.964  18.522  0.00  0.00    +0.000 A 
BRANCH   7  10
ATOM     10  N   UNL     1       2.292   5.570  20.085  0.00  0.00    +0.000 N 
ATOM     11  C   UNL     1       1.476   4.585  20.603  0.00  0.00    +0.000 A 
ATOM     12  N   UNL     1       2.065   3.413  20.676  0.00  0.00    +0.000 NA
ATOM     13  C   UNL     1       3.318   3.611  20.173  0.00  0.00    +0.000 A 
ATOM     14  C   UNL     1       4.276   2.484  20.118  0.00  0.00    +0.000 C 
ATOM     15  C   UNL     1       3.478   4.927  19.782  0.00  0.00    +0.000 A 
ENDBRANCH   7  10
BRANCH   8  16
ATOM     16  O   UNL     1       2.769   6.839  17.616  0.00  0.00    +0.000 OA
ATOM     17  C   UNL     1       4.107   7.042  17.181  0.00  0.00    +0.000 C 
ENDBRANCH   8  16
ENDBRANCH   2   4
BRANCH   1  18
ATOM     18  C   UNL     1      -1.385  10.322  18.499  0.00  0.00    +0.000 C 
ATOM     19  C   UNL     1      -2.756  10.497  17.905  0.00  0.00    +0.000 C 
ATOM     20  C   UNL     1      -1.688   9.832  17.096  0.00  0.00    +0.000 C 
ENDBRANCH   1  18
BRANCH   1  21
ATOM     21  C   UNL     1      -0.721  12.732  18.344  0.00  0.00    +0.000 C 
BRANCH  21  26
ATOM     22  C   UNL     1      -1.527  14.866  22.026  0.00  0.00    +0.000 A 
ATOM     23  C   UNL     1      -0.636  15.388  21.079  0.00  0.00    +0.000 A 
ATOM     24  C   UNL     1      -0.465  14.815  19.811  0.00  0.00    +0.000 A 
ATOM     25  C   UNL     1       0.402  15.558  18.830  0.00  0.00    +0.000 C 
ATOM     26  C   UNL     1      -1.113  13.602  19.525  0.00  0.00    +0.000 A 
ATOM     27  C   UNL     1      -2.070  13.131  20.444  0.00  0.00    +0.000 A 
ATOM     28  C   UNL     1      -2.332  13.770  21.672  0.00  0.00    +0.000 A 
BRANCH  28  29
ATOM     29  C   UNL     1      -3.497  13.311  22.543  0.00  0.00    +0.000 C 
ATOM     30  C   UNL     1      -4.642  12.821  21.645  0.00  0.00    +0.000 C 
ATOM     31  C   UNL     1      -3.157  12.207  23.556  0.00  0.00    +0.000 C 
ENDBRANCH  28  29
BRANCH  22  32
ATOM     32  O   UNL     1      -1.663  15.394  23.293  0.00  0.00    +0.000 OA
BRANCH  32  34
ATOM     33  C   UNL     1      -1.621  17.813  23.503  0.00  0.00    +0.000 C 
ATOM     34  C   UNL     1      -2.480  16.570  23.380  0.00  0.00    +0.000 C 
ENDBRANCH  32  34
ENDBRANCH  22  32
ENDBRANCH  21  26
ENDBRANCH   1  21
TORSDOF 9
ENDMDL
MODEL 9
REMARK VINA RESULT:      -6.3      2.906      4.754
REMARK  Name = 
REMARK  15 active torsions:
REMARK  status: ('A' for Active; 'I' for Inactive)
REMARK    1  A    between atoms: C_1  and  C_2
REMARK    2  A    between atoms: C_2  and  O_3
REMARK    3  A    between atoms: O_3  and  C_4
REMARK    4  A    between atoms: C_6  and  C_7
REMARK    5  A    between atoms: C_8  and  C_9
REMARK    6  A    between atoms: C_9  and  N_10
REMARK    7  A    between atoms: N_10  and  C_27
REMARK    8  A    between atoms: C_11  and  C_13
REMARK    9  A    between atoms: C_16  and  N_17
REMARK   10  A    between atoms: C_20  and  C_21
REMARK   11  A    between atoms: C_23  and  O_24
REMARK   12  A    between atoms: O_24  and  C_25
REMARK   13  A    between atoms: C_31  and  C_32
REMARK   14  A    between atoms: C_32  and  C_33
REMARK   15  A    between atoms: C_32  and  C_34
REMARK                            x       y       z     vdW  Elec       q    Type
REMARK                         _______ _______ _______ _____ _____    ______ ____
ROOT
ATOM      1  N   UNL     1       0.810  10.486  19.661  0.00  0.00    +0.000 N 
ATOM      2  C   UNL     1       1.526   9.929  18.575  0.00  0.00    +0.000 C 
ATOM      3  O   UNL     1       1.702  10.514  17.505  0.00  0.00    +0.000 OA
ENDROOT
BRANCH   2   4
ATOM      4  C   UNL     1       2.138   8.567  18.719  0.00  0.00    +0.000 A 
ATOM      5  C   UNL     1       1.764   7.740  19.783  0.00  0.00    +0.000 A 
ATOM      6  C   UNL     1       2.273   6.432  19.867  0.00  0.00    +0.000 A 
ATOM      7  C   UNL     1       3.152   5.944  18.882  0.00  0.00    +0.000 A 
ATOM      8  C   UNL     1       3.529   6.792  17.823  0.00  0.00    +0.000 A 
ATOM      9  C   UNL     1       3.074   8.114  17.795  0.00  0.00    +0.000 A 
BRANCH   7  10
ATOM     10  N   UNL     1       3.685   4.621  18.994  0.00  0.00    +0.000 N 
ATOM     11  C   UNL     1       4.894   4.253  19.549  0.00  0.00    +0.000 A 
ATOM     12  N   UNL     1       5.101   2.956  19.523  0.00  0.00    +0.000 NA
ATOM     13  C   UNL     1       3.983   2.428  18.946  0.00  0.00    +0.000 A 
ATOM     14  C   UNL     1       3.880   0.967  18.741  0.00  0.00    +0.000 C 
ATOM     15  C   UNL     1       3.085   3.431  18.628  0.00  0.00    +0.000 A 
ENDBRANCH   7  10
BRANCH   8  16
ATOM     16  O   UNL     1       4.182   6.246  16.749  0.00  0.00    +0.000 OA
ATOM     17  C   UNL     1       5.556   6.573  16.587  0.00  0.00    +0.000 C 
ENDBRANCH   8  16
ENDBRANCH   2   4
BRANCH   1  18
ATOM     18  C   UNL     1       0.765   9.888  20.982  0.00  0.00    +0.000 C 
ATOM     19  C   UNL     1      -0.026  10.363  22.171  0.00  0.00    +0.000 C 
ATOM     20  C   UNL     1      -0.498   9.166  21.409  0.00  0.00    +0.000 C 
ENDBRANCH   1  18
BRANCH   1  21
ATOM     21  C   UNL     1       0.140  11.784  19.470  0.00  0.00    +0.000 C 
BRANCH  21  26
ATOM     22  C   UNL     1      -4.168  12.195  19.303  0.00  0.00    +0.000 A 
ATOM     23  C   UNL     1      -3.487  11.432  18.346  0.00  0.00    +0.000 A 
ATOM     24  C   UNL     1      -2.119  11.142  18.451  0.00  0.00    +0.000 A 
ATOM     25  C   UNL     1      -1.539  10.184  17.445  0.00  0.00    +0.000 C 
ATOM     26  C   UNL     1      -1.378  11.744  19.480  0.00  0.00    +0.000 A 
ATOM     27  C   UNL     1      -2.081  12.437  20.484  0.00  0.00    +0.000 A 
ATOM     28  C   UNL     1      -3.477  12.631  20.445  0.00  0.00    +0.000 A 
BRANCH  28  29
ATOM     29  C   UNL     1      -4.200  13.237  21.644  0.00  0.00    +0.000 C 
ATOM     30  C   UNL     1      -3.604  12.668  22.940  0.00  0.00    +0.000 C 
ATOM     31  C   UNL     1      -4.167  14.771  21.716  0.00  0.00    +0.000 C 
ENDBRANCH  28  29
BRANCH  22  32
ATOM     32  O   UNL     1      -5.502  12.526  19.180  0.00  0.00    +0.000 OA
BRANCH  32  34
ATOM     33  C   UNL     1      -7.082  11.125  20.379  0.00  0.00    +0.000 C 
ATOM     34  C   UNL     1      -6.398  11.414  19.057  0.00  0.00    +0.000 C 
ENDBRANCH  32  34
ENDBRANCH  22  32
ENDBRANCH  21  26
ENDBRANCH   1  21
TORSDOF 9
ENDMDL
