MODEL 1
REMARK VINA RESULT:      -7.5      0.000      0.000
REMARK  Name = 
REMARK  7 active torsions:
REMARK  status: ('A' for Active; 'I' for Inactive)
REMARK    1  A    between atoms: C_1  and  C_2
REMARK    2  A    between atoms: C_2  and  S_3
REMARK    3  A    between atoms: C_2  and  C_10
REMARK    4  A    between atoms: S_3  and  C_4
REMARK    5  A    between atoms: N_8  and  C_9
REMARK    6  A    between atoms: C_14  and  N_15
REMARK    7  A    between atoms: C_16  and  C_18
REMARK                            x       y       z     vdW  Elec       q    Type
REMARK                         _______ _______ _______ _____ _____    ______ ____
ROOT
ATOM      1  C   UNL     1       4.442   4.591  16.710  0.00  0.00    +0.000 A 
ATOM      2  C   UNL     1       3.827   3.333  16.839  0.00  0.00    +0.000 A 
ATOM      3  C   UNL     1       2.598   3.202  17.474  0.00  0.00    +0.000 A 
ATOM      4  C   UNL     1       1.980   4.322  18.025  0.00  0.00    +0.000 A 
ATOM      5  C   UNL     1       2.583   5.580  17.972  0.00  0.00    +0.000 A 
ATOM      6  C   UNL     1       3.796   5.713  17.276  0.00  0.00    +0.000 A 
ENDROOT
BRANCH   5   7
ATOM      7  N   UNL     1       2.022   6.722  18.594  0.00  0.00    +0.000 N 
ATOM      8  C   UNL     1       1.972   6.935  19.964  0.00  0.00    +0.000 C 
ATOM      9  O   UNL     1       2.442   6.185  20.815  0.00  0.00    +0.000 OA
ATOM     10  H   UNL     1       1.721   7.492  17.997  0.00  0.00    +0.000 HD
BRANCH   8  11
ATOM     11  C   UNL     1       1.324   8.180  20.461  0.00  0.00    +0.000 A 
ATOM     12  C   UNL     1       0.688   8.124  21.720  0.00  0.00    +0.000 A 
ATOM     13  C   UNL     1       0.019   9.224  22.243  0.00  0.00    +0.000 A 
ATOM     14  C   UNL     1      -0.032  10.416  21.528  0.00  0.00    +0.000 A 
ATOM     15  C   UNL     1       0.619  10.482  20.282  0.00  0.00    +0.000 A 
ATOM     16  S   UNL     1       0.722  11.825  19.206  0.00  0.00    +0.000 S 
ATOM     17  C   UNL     1       1.652  10.881  18.127  0.00  0.00    +0.000 A 
ATOM     18  N   UNL     1       1.897   9.642  18.492  0.00  0.00    +0.000 NA
ATOM     19  C   UNL     1       1.304   9.389  19.731  0.00  0.00    +0.000 A 
ENDBRANCH   8  11
ENDBRANCH   5   7
BRANCH   1  21
ATOM     20  C   UNL     1       5.892   3.778  14.725  0.00  0.00    +0.000 C 
ATOM     21  C   UNL     1       5.760   4.680  15.953  0.00  0.00    +0.000 C 
BRANCH  21  22
ATOM     22  S   UNL     1       7.218   4.538  17.061  0.00  0.00    +0.000 S 
BRANCH  22  23
ATOM     23  C   UNL     1       7.498   6.185  17.487  0.00  0.00    +0.000 A 
ATOM     24  N   UNL     1       7.290   7.240  16.734  0.00  0.00    +0.000 NA
ATOM     25  N   UNL     1       7.766   8.338  17.412  0.00  0.00    +0.000 NA
ATOM     26  C   UNL     1       8.229   7.917  18.569  0.00  0.00    +0.000 A 
ATOM     27  N   UNL     1       8.022   6.575  18.683  0.00  0.00    +0.000 N 
ATOM     28  C   UNL     1       8.297   5.771  19.842  0.00  0.00    +0.000 C 
ENDBRANCH  22  23
ENDBRANCH  21  22
ENDBRANCH   1  21
TORSDOF 5
ENDMDL
MODEL 2
REMARK VINA RESULT:      -7.4      3.136      8.966
REMARK  Name = 
REMARK  7 active torsions:
REMARK  status: ('A' for Active; 'I' for Inactive)
REMARK    1  A    between atoms: C_1  and  C_2
REMARK    2  A    between atoms: C_2  and  S_3
REMARK    3  A    between atoms: C_2  and  C_10
REMARK    4  A    between atoms: S_3  and  C_4
REMARK    5  A    between atoms: N_8  and  C_9
REMARK    6  A    between atoms: C_14  and  N_15
REMARK    7  A    between atoms: C_16  and  C_18
REMARK                            x       y       z     vdW  Elec       q    Type
REMARK                         _______ _______ _______ _____ _____    ______ ____
ROOT
ATOM      1  C   UNL     1      -0.359  11.180  18.826  0.00  0.00    +0.000 A 
ATOM      2  C   UNL     1       0.548  12.247  18.948  0.00  0.00    +0.000 A 
ATOM      3  C   UNL     1       1.883  12.093  18.595  0.00  0.00    +0.000 A 
ATOM      4  C   UNL     1       2.343  10.856  18.148  0.00  0.00    +0.000 A 
ATOM      5  C   UNL     1       1.489   9.753  18.067  0.00  0.00    +0.000 A 
ATOM      6  C   UNL     1       0.130   9.935  18.370  0.00  0.00    +0.000 A 
ENDROOT
BRANCH   5   7
ATOM      7  N   UNL     1       1.942   8.463  17.698  0.00  0.00    +0.000 N 
ATOM      8  C   UNL     1       2.316   7.468  18.590  0.00  0.00    +0.000 C 
ATOM      9  O   UNL     1       2.263   7.557  19.813  0.00  0.00    +0.000 OA
ATOM     10  H   UNL     1       1.901   8.207  16.713  0.00  0.00    +0.000 HD
BRANCH   8  11
ATOM     11  C   UNL     1       2.795   6.171  18.038  0.00  0.00    +0.000 A 
ATOM     12  C   UNL     1       1.906   5.076  18.089  0.00  0.00    +0.000 A 
ATOM     13  C   UNL     1       2.283   3.816  17.638  0.00  0.00    +0.000 A 
ATOM     14  C   UNL     1       3.557   3.612  17.119  0.00  0.00    +0.000 A 
ATOM     15  C   UNL     1       4.439   4.706  17.047  0.00  0.00    +0.000 A 
ATOM     16  S   UNL     1       6.053   4.734  16.443  0.00  0.00    +0.000 S 
ATOM     17  C   UNL     1       6.150   6.403  16.797  0.00  0.00    +0.000 A 
ATOM     18  N   UNL     1       5.083   6.952  17.333  0.00  0.00    +0.000 NA
ATOM     19  C   UNL     1       4.085   5.989  17.492  0.00  0.00    +0.000 A 
ENDBRANCH   8  11
ENDBRANCH   5   7
BRANCH   1  21
ATOM     20  C   UNL     1      -2.832  11.146  18.061  0.00  0.00    +0.000 C 
ATOM     21  C   UNL     1      -1.821  11.426  19.174  0.00  0.00    +0.000 C 
BRANCH  21  22
ATOM     22  S   UNL     1      -2.093  13.072  19.941  0.00  0.00    +0.000 S 
BRANCH  22  23
ATOM     23  C   UNL     1      -2.886  12.647  21.412  0.00  0.00    +0.000 A 
ATOM     24  N   UNL     1      -4.174  12.708  21.659  0.00  0.00    +0.000 NA
ATOM     25  N   UNL     1      -4.360  12.403  22.988  0.00  0.00    +0.000 NA
ATOM     26  C   UNL     1      -3.178  12.143  23.502  0.00  0.00    +0.000 A 
ATOM     27  N   UNL     1      -2.228  12.224  22.528  0.00  0.00    +0.000 N 
ATOM     28  C   UNL     1      -0.834  11.908  22.675  0.00  0.00    +0.000 C 
ENDBRANCH  22  23
ENDBRANCH  21  22
ENDBRANCH   1  21
TORSDOF 5
ENDMDL
MODEL 3
REMARK VINA RESULT:      -7.3      3.380      8.890
REMARK  Name = 
REMARK  7 active torsions:
REMARK  status: ('A' for Active; 'I' for Inactive)
REMARK    1  A    between atoms: C_1  and  C_2
REMARK    2  A    between atoms: C_2  and  S_3
REMARK    3  A    between atoms: C_2  and  C_10
REMARK    4  A    between atoms: S_3  and  C_4
REMARK    5  A    between atoms: N_8  and  C_9
REMARK    6  A    between atoms: C_14  and  N_15
REMARK    7  A    between atoms: C_16  and  C_18
REMARK                            x       y       z     vdW  Elec       q    Type
REMARK                         _______ _______ _______ _____ _____    ______ ____
ROOT
ATOM      1  C   UNL     1      -0.429  11.046  20.466  0.00  0.00    +0.000 A 
ATOM      2  C   UNL     1      -0.713  11.192  21.835  0.00  0.00    +0.000 A 
ATOM      3  C   UNL     1      -0.215  10.289  22.766  0.00  0.00    +0.000 A 
ATOM      4  C   UNL     1       0.546   9.202  22.341  0.00  0.00    +0.000 A 
ATOM      5  C   UNL     1       0.802   8.986  20.984  0.00  0.00    +0.000 A 
ATOM      6  C   UNL     1       0.345   9.937  20.056  0.00  0.00    +0.000 A 
ENDROOT
BRANCH   5   7
ATOM      7  N   UNL     1       1.499   7.848  20.511  0.00  0.00    +0.000 N 
ATOM      8  C   UNL     1       2.164   7.772  19.295  0.00  0.00    +0.000 C 
ATOM      9  O   UNL     1       2.272   8.692  18.489  0.00  0.00    +0.000 OA
ATOM     10  H   UNL     1       1.608   7.058  21.146  0.00  0.00    +0.000 HD
BRANCH   8  11
ATOM     11  C   UNL     1       2.828   6.491  18.934  0.00  0.00    +0.000 A 
ATOM     12  C   UNL     1       3.614   6.475  17.762  0.00  0.00    +0.000 A 
ATOM     13  C   UNL     1       4.235   5.312  17.322  0.00  0.00    +0.000 A 
ATOM     14  C   UNL     1       4.096   4.130  18.042  0.00  0.00    +0.000 A 
ATOM     15  C   UNL     1       3.330   4.147  19.223  0.00  0.00    +0.000 A 
ATOM     16  S   UNL     1       3.009   2.841  20.300  0.00  0.00    +0.000 S 
ATOM     17  C   UNL     1       2.085   3.889  21.285  0.00  0.00    +0.000 A 
ATOM     18  N   UNL     1       1.988   5.137  20.884  0.00  0.00    +0.000 NA
ATOM     19  C   UNL     1       2.695   5.306  19.691  0.00  0.00    +0.000 A 
ENDBRANCH   8  11
ENDBRANCH   5   7
BRANCH   1  21
ATOM     20  C   UNL     1      -0.483  13.532  19.748  0.00  0.00    +0.000 C 
ATOM     21  C   UNL     1      -0.954  12.099  19.500  0.00  0.00    +0.000 C 
BRANCH  21  22
ATOM     22  S   UNL     1      -2.776  12.009  19.285  0.00  0.00    +0.000 S 
BRANCH  22  23
ATOM     23  C   UNL     1      -2.911  11.292  17.723  0.00  0.00    +0.000 A 
ATOM     24  N   UNL     1      -1.996  10.588  17.097  0.00  0.00    +0.000 NA
ATOM     25  N   UNL     1      -2.468  10.320  15.832  0.00  0.00    +0.000 NA
ATOM     26  C   UNL     1      -3.667  10.850  15.738  0.00  0.00    +0.000 A 
ATOM     27  N   UNL     1      -4.011  11.417  16.928  0.00  0.00    +0.000 N 
ATOM     28  C   UNL     1      -5.282  12.005  17.252  0.00  0.00    +0.000 C 
ENDBRANCH  22  23
ENDBRANCH  21  22
ENDBRANCH   1  21
TORSDOF 5
ENDMDL
MODEL 4
REMARK VINA RESULT:      -7.3      2.832      8.777
REMARK  Name = 
REMARK  7 active torsions:
REMARK  status: ('A' for Active; 'I' for Inactive)
REMARK    1  A    between atoms: C_1  and  C_2
REMARK    2  A    between atoms: C_2  and  S_3
REMARK    3  A    between atoms: C_2  and  C_10
REMARK    4  A    between atoms: S_3  and  C_4
REMARK    5  A    between atoms: N_8  and  C_9
REMARK    6  A    between atoms: C_14  and  N_15
REMARK    7  A    between atoms: C_16  and  C_18
REMARK                            x       y       z     vdW  Elec       q    Type
REMARK                         _______ _______ _______ _____ _____    ______ ____
ROOT
ATOM      1  C   UNL     1      -0.270  11.005  18.620  0.00  0.00    +0.000 A 
ATOM      2  C   UNL     1       0.586  12.115  18.740  0.00  0.00    +0.000 A 
ATOM      3  C   UNL     1       1.933  12.014  18.415  0.00  0.00    +0.000 A 
ATOM      4  C   UNL     1       2.457  10.792  18.000  0.00  0.00    +0.000 A 
ATOM      5  C   UNL     1       1.655   9.650  17.925  0.00  0.00    +0.000 A 
ATOM      6  C   UNL     1       0.283   9.775  18.197  0.00  0.00    +0.000 A 
ENDROOT
BRANCH   5   7
ATOM      7  N   UNL     1       2.173   8.375  17.589  0.00  0.00    +0.000 N 
ATOM      8  C   UNL     1       2.431   7.359  18.497  0.00  0.00    +0.000 C 
ATOM      9  O   UNL     1       2.206   7.413  19.703  0.00  0.00    +0.000 OA
ATOM     10  H   UNL     1       2.273   8.146  16.601  0.00  0.00    +0.000 HD
BRANCH   8  11
ATOM     11  C   UNL     1       3.000   6.083  17.984  0.00  0.00    +0.000 A 
ATOM     12  C   UNL     1       2.162   4.947  17.996  0.00  0.00    +0.000 A 
ATOM     13  C   UNL     1       2.621   3.703  17.579  0.00  0.00    +0.000 A 
ATOM     14  C   UNL     1       3.930   3.556  17.131  0.00  0.00    +0.000 A 
ATOM     15  C   UNL     1       4.762   4.691  17.098  0.00  0.00    +0.000 A 
ATOM     16  S   UNL     1       6.404   4.791  16.582  0.00  0.00    +0.000 S 
ATOM     17  C   UNL     1       6.403   6.465  16.926  0.00  0.00    +0.000 A 
ATOM     18  N   UNL     1       5.284   6.966  17.397  0.00  0.00    +0.000 NA
ATOM     19  C   UNL     1       4.324   5.958  17.510  0.00  0.00    +0.000 A 
ENDBRANCH   8  11
ENDBRANCH   5   7
BRANCH   1  21
ATOM     20  C   UNL     1      -2.716  10.953  17.776  0.00  0.00    +0.000 C 
ATOM     21  C   UNL     1      -1.748  11.191  18.935  0.00  0.00    +0.000 C 
BRANCH  21  22
ATOM     22  S   UNL     1      -2.089  12.780  19.791  0.00  0.00    +0.000 S 
BRANCH  22  23
ATOM     23  C   UNL     1      -1.935  12.328  21.447  0.00  0.00    +0.000 A 
ATOM     24  N   UNL     1      -0.870  11.830  22.032  0.00  0.00    +0.000 NA
ATOM     25  N   UNL     1      -1.219  11.493  23.321  0.00  0.00    +0.000 NA
ATOM     26  C   UNL     1      -2.482  11.819  23.484  0.00  0.00    +0.000 A 
ATOM     27  N   UNL     1      -2.954  12.406  22.348  0.00  0.00    +0.000 N 
ATOM     28  C   UNL     1      -4.256  12.991  22.174  0.00  0.00    +0.000 C 
ENDBRANCH  22  23
ENDBRANCH  21  22
ENDBRANCH   1  21
TORSDOF 5
ENDMDL
MODEL 5
REMARK VINA RESULT:      -7.2      2.175      3.070
REMARK  Name = 
REMARK  7 active torsions:
REMARK  status: ('A' for Active; 'I' for Inactive)
REMARK    1  A    between atoms: C_1  and  C_2
REMARK    2  A    between atoms: C_2  and  S_3
REMARK    3  A    between atoms: C_2  and  C_10
REMARK    4  A    between atoms: S_3  and  C_4
REMARK    5  A    between atoms: N_8  and  C_9
REMARK    6  A    between atoms: C_14  and  N_15
REMARK    7  A    between atoms: C_16  and  C_18
REMARK                            x       y       z     vdW  Elec       q    Type
REMARK                         _______ _______ _______ _____ _____    ______ ____
ROOT
ATOM      1  C   UNL     1       4.359   5.687  17.582  0.00  0.00    +0.000 A 
ATOM      2  C   UNL     1       4.179   4.412  18.147  0.00  0.00    +0.000 A 
ATOM      3  C   UNL     1       3.288   4.217  19.195  0.00  0.00    +0.000 A 
ATOM      4  C   UNL     1       2.588   5.300  19.722  0.00  0.00    +0.000 A 
ATOM      5  C   UNL     1       2.782   6.593  19.230  0.00  0.00    +0.000 A 
ATOM      6  C   UNL     1       3.639   6.772  18.132  0.00  0.00    +0.000 A 
ENDROOT
BRANCH   5   7
ATOM      7  N   UNL     1       2.152   7.727  19.798  0.00  0.00    +0.000 N 
ATOM      8  C   UNL     1       1.189   7.684  20.797  0.00  0.00    +0.000 C 
ATOM      9  O   UNL     1       0.788   6.664  21.350  0.00  0.00    +0.000 OA
ATOM     10  H   UNL     1       2.494   8.649  19.528  0.00  0.00    +0.000 HD
BRANCH   8  11
ATOM     11  C   UNL     1       0.605   8.969  21.269  0.00  0.00    +0.000 A 
ATOM     12  C   UNL     1       0.124   9.015  22.595  0.00  0.00    +0.000 A 
ATOM     13  C   UNL     1      -0.479  10.158  23.107  0.00  0.00    +0.000 A 
ATOM     14  C   UNL     1      -0.615  11.292  22.313  0.00  0.00    +0.000 A 
ATOM     15  C   UNL     1      -0.118  11.256  20.997  0.00  0.00    +0.000 A 
ATOM     16  S   UNL     1      -0.145  12.511  19.816  0.00  0.00    +0.000 S 
ATOM     17  C   UNL     1       0.650  11.479  18.710  0.00  0.00    +0.000 A 
ATOM     18  N   UNL     1       0.937  10.270  19.138  0.00  0.00    +0.000 NA
ATOM     19  C   UNL     1       0.497  10.118  20.455  0.00  0.00    +0.000 A 
ENDBRANCH   8  11
ENDBRANCH   5   7
BRANCH   1  21
ATOM     20  C   UNL     1       4.908   6.858  15.339  0.00  0.00    +0.000 C 
ATOM     21  C   UNL     1       5.306   5.829  16.398  0.00  0.00    +0.000 C 
BRANCH  21  22
ATOM     22  S   UNL     1       5.736   4.210  15.645  0.00  0.00    +0.000 S 
BRANCH  22  23
ATOM     23  C   UNL     1       6.822   4.683  14.392  0.00  0.00    +0.000 A 
ATOM     24  N   UNL     1       7.854   5.486  14.505  0.00  0.00    +0.000 NA
ATOM     25  N   UNL     1       8.363   5.693  13.243  0.00  0.00    +0.000 NA
ATOM     26  C   UNL     1       7.637   4.987  12.404  0.00  0.00    +0.000 A 
ATOM     27  N   UNL     1       6.694   4.286  13.094  0.00  0.00    +0.000 N 
ATOM     28  C   UNL     1       5.779   3.325  12.542  0.00  0.00    +0.000 C 
ENDBRANCH  22  23
ENDBRANCH  21  22
ENDBRANCH   1  21
TORSDOF 5
ENDMDL
MODEL 6
REMARK VINA RESULT:      -7.2      2.927      8.726
REMARK  Name = 
REMARK  7 active torsions:
REMARK  status: ('A' for Active; 'I' for Inactive)
REMARK    1  A    between atoms: C_1  and  C_2
REMARK    2  A    between atoms: C_2  and  S_3
REMARK    3  A    between atoms: C_2  and  C_10
REMARK    4  A    between atoms: S_3  and  C_4
REMARK    5  A    between atoms: N_8  and  C_9
REMARK    6  A    between atoms: C_14  and  N_15
REMARK    7  A    between atoms: C_16  and  C_18
REMARK                            x       y       z     vdW  Elec       q    Type
REMARK                         _______ _______ _______ _____ _____    ______ ____
ROOT
ATOM      1  C   UNL     1       0.336  10.606  19.944  0.00  0.00    +0.000 A 
ATOM      2  C   UNL     1       0.100  10.652  21.330  0.00  0.00    +0.000 A 
ATOM      3  C   UNL     1       0.584   9.656  22.169  0.00  0.00    +0.000 A 
ATOM      4  C   UNL     1       1.282   8.576  21.633  0.00  0.00    +0.000 A 
ATOM      5  C   UNL     1       1.488   8.460  20.257  0.00  0.00    +0.000 A 
ATOM      6  C   UNL     1       1.047   9.501  19.423  0.00  0.00    +0.000 A 
ENDROOT
BRANCH   5   7
ATOM      7  N   UNL     1       2.118   7.335  19.672  0.00  0.00    +0.000 N 
ATOM      8  C   UNL     1       2.564   7.268  18.359  0.00  0.00    +0.000 C 
ATOM      9  O   UNL     1       2.509   8.185  17.545  0.00  0.00    +0.000 OA
ATOM     10  H   UNL     1       2.354   6.551  20.279  0.00  0.00    +0.000 HD
BRANCH   8  11
ATOM     11  C   UNL     1       3.185   6.000  17.890  0.00  0.00    +0.000 A 
ATOM     12  C   UNL     1       2.368   4.849  17.855  0.00  0.00    +0.000 A 
ATOM     13  C   UNL     1       2.874   3.612  17.474  0.00  0.00    +0.000 A 
ATOM     14  C   UNL     1       4.210   3.486  17.110  0.00  0.00    +0.000 A 
ATOM     15  C   UNL     1       5.023   4.635  17.123  0.00  0.00    +0.000 A 
ATOM     16  S   UNL     1       6.692   4.761  16.710  0.00  0.00    +0.000 S 
ATOM     17  C   UNL     1       6.641   6.437  17.045  0.00  0.00    +0.000 A 
ATOM     18  N   UNL     1       5.486   6.921  17.442  0.00  0.00    +0.000 NA
ATOM     19  C   UNL     1       4.539   5.896  17.501  0.00  0.00    +0.000 A 
ENDBRANCH   8  11
ENDBRANCH   5   7
BRANCH   1  21
ATOM     20  C   UNL     1       0.724  12.995  19.026  0.00  0.00    +0.000 C 
ATOM     21  C   UNL     1      -0.169  11.755  19.083  0.00  0.00    +0.000 C 
BRANCH  21  22
ATOM     22  S   UNL     1      -1.916  12.191  19.447  0.00  0.00    +0.000 S 
BRANCH  22  23
ATOM     23  C   UNL     1      -2.718  11.649  18.021  0.00  0.00    +0.000 A 
ATOM     24  N   UNL     1      -2.156  11.227  16.912  0.00  0.00    +0.000 NA
ATOM     25  N   UNL     1      -3.155  11.017  15.990  0.00  0.00    +0.000 NA
ATOM     26  C   UNL     1      -4.298  11.296  16.577  0.00  0.00    +0.000 A 
ATOM     27  N   UNL     1      -4.073  11.637  17.877  0.00  0.00    +0.000 N 
ATOM     28  C   UNL     1      -5.078  11.909  18.868  0.00  0.00    +0.000 C 
ENDBRANCH  22  23
ENDBRANCH  21  22
ENDBRANCH   1  21
TORSDOF 5
ENDMDL
MODEL 7
REMARK VINA RESULT:      -7.2      2.302      3.597
REMARK  Name = 
REMARK  7 active torsions:
REMARK  status: ('A' for Active; 'I' for Inactive)
REMARK    1  A    between atoms: C_1  and  C_2
REMARK    2  A    between atoms: C_2  and  S_3
REMARK    3  A    between atoms: C_2  and  C_10
REMARK    4  A    between atoms: S_3  and  C_4
REMARK    5  A    between atoms: N_8  and  C_9
REMARK    6  A    between atoms: C_14  and  N_15
REMARK    7  A    between atoms: C_16  and  C_18
REMARK                            x       y       z     vdW  Elec       q    Type
REMARK                         _______ _______ _______ _____ _____    ______ ____
ROOT
ATOM      1  C   UNL     1       4.435   5.324  17.882  0.00  0.00    +0.000 A 
ATOM      2  C   UNL     1       3.967   4.076  18.330  0.00  0.00    +0.000 A 
ATOM      3  C   UNL     1       2.844   3.986  19.143  0.00  0.00    +0.000 A 
ATOM      4  C   UNL     1       2.189   5.145  19.552  0.00  0.00    +0.000 A 
ATOM      5  C   UNL     1       2.654   6.408  19.179  0.00  0.00    +0.000 A 
ATOM      6  C   UNL     1       3.755   6.487  18.309  0.00  0.00    +0.000 A 
ENDROOT
BRANCH   5   7
ATOM      7  N   UNL     1       2.063   7.607  19.645  0.00  0.00    +0.000 N 
ATOM      8  C   UNL     1       1.633   8.648  18.834  0.00  0.00    +0.000 C 
ATOM      9  O   UNL     1       1.668   8.651  17.607  0.00  0.00    +0.000 OA
ATOM     10  H   UNL     1       1.845   7.677  20.638  0.00  0.00    +0.000 HD
BRANCH   8  11
ATOM     11  C   UNL     1       1.054   9.855  19.485  0.00  0.00    +0.000 A 
ATOM     12  C   UNL     1       1.185  11.085  18.805  0.00  0.00    +0.000 A 
ATOM     13  C   UNL     1       0.715  12.271  19.357  0.00  0.00    +0.000 A 
ATOM     14  C   UNL     1       0.095  12.266  20.602  0.00  0.00    +0.000 A 
ATOM     15  C   UNL     1      -0.056  11.038  21.273  0.00  0.00    +0.000 A 
ATOM     16  S   UNL     1      -0.790  10.747  22.805  0.00  0.00    +0.000 S 
ATOM     17  C   UNL     1      -0.458   9.079  22.641  0.00  0.00    +0.000 A 
ATOM     18  N   UNL     1       0.159   8.709  21.541  0.00  0.00    +0.000 NA
ATOM     19  C   UNL     1       0.406   9.826  20.739  0.00  0.00    +0.000 A 
ENDBRANCH   8  11
ENDBRANCH   5   7
BRANCH   1  21
ATOM     20  C   UNL     1       5.975   6.716  16.336  0.00  0.00    +0.000 C 
ATOM     21  C   UNL     1       5.636   5.356  16.947  0.00  0.00    +0.000 C 
BRANCH  21  22
ATOM     22  S   UNL     1       5.569   4.036  15.672  0.00  0.00    +0.000 S 
BRANCH  22  23
ATOM     23  C   UNL     1       6.728   4.595  14.525  0.00  0.00    +0.000 A 
ATOM     24  N   UNL     1       7.747   5.389  14.758  0.00  0.00    +0.000 NA
ATOM     25  N   UNL     1       8.333   5.684  13.547  0.00  0.00    +0.000 NA
ATOM     26  C   UNL     1       7.663   5.039  12.618  0.00  0.00    +0.000 A 
ATOM     27  N   UNL     1       6.682   4.291  13.197  0.00  0.00    +0.000 N 
ATOM     28  C   UNL     1       5.808   3.370  12.523  0.00  0.00    +0.000 C 
ENDBRANCH  22  23
ENDBRANCH  21  22
ENDBRANCH   1  21
TORSDOF 5
ENDMDL
MODEL 8
REMARK VINA RESULT:      -7.1      3.233      8.891
REMARK  Name = 
REMARK  7 active torsions:
REMARK  status: ('A' for Active; 'I' for Inactive)
REMARK    1  A    between atoms: C_1  and  C_2
REMARK    2  A    between atoms: C_2  and  S_3
REMARK    3  A    between atoms: C_2  and  C_10
REMARK    4  A    between atoms: S_3  and  C_4
REMARK    5  A    between atoms: N_8  and  C_9
REMARK    6  A    between atoms: C_14  and  N_15
REMARK    7  A    between atoms: C_16  and  C_18
REMARK                            x       y       z     vdW  Elec       q    Type
REMARK                         _______ _______ _______ _____ _____    ______ ____
ROOT
ATOM      1  C   UNL     1      -0.063  10.867  19.548  0.00  0.00    +0.000 A 
ATOM      2  C   UNL     1      -0.215  10.850  20.946  0.00  0.00    +0.000 A 
ATOM      3  C   UNL     1       0.448   9.909  21.724  0.00  0.00    +0.000 A 
ATOM      4  C   UNL     1       1.247   8.944  21.114  0.00  0.00    +0.000 A 
ATOM      5  C   UNL     1       1.378   8.888  19.725  0.00  0.00    +0.000 A 
ATOM      6  C   UNL     1       0.752   9.879  18.951  0.00  0.00    +0.000 A 
ENDROOT
BRANCH   5   7
ATOM      7  N   UNL     1       2.113   7.870  19.069  0.00  0.00    +0.000 N 
ATOM      8  C   UNL     1       2.288   6.581  19.551  0.00  0.00    +0.000 C 
ATOM      9  O   UNL     1       1.796   6.139  20.585  0.00  0.00    +0.000 OA
ATOM     10  H   UNL     1       2.458   8.061  18.129  0.00  0.00    +0.000 HD
BRANCH   8  11
ATOM     11  C   UNL     1       3.112   5.635  18.751  0.00  0.00    +0.000 A 
ATOM     12  C   UNL     1       4.077   6.188  17.882  0.00  0.00    +0.000 A 
ATOM     13  C   UNL     1       4.860   5.383  17.063  0.00  0.00    +0.000 A 
ATOM     14  C   UNL     1       4.709   4.001  17.089  0.00  0.00    +0.000 A 
ATOM     15  C   UNL     1       3.762   3.444  17.970  0.00  0.00    +0.000 A 
ATOM     16  S   UNL     1       3.384   1.780  18.211  0.00  0.00    +0.000 S 
ATOM     17  C   UNL     1       2.225   2.220  19.387  0.00  0.00    +0.000 A 
ATOM     18  N   UNL     1       2.086   3.506  19.621  0.00  0.00    +0.000 NA
ATOM     19  C   UNL     1       2.960   4.231  18.809  0.00  0.00    +0.000 A 
ENDBRANCH   8  11
ENDBRANCH   5   7
BRANCH   1  21
ATOM     20  C   UNL     1      -0.325  13.392  19.043  0.00  0.00    +0.000 C 
ATOM     21  C   UNL     1      -0.769  11.957  18.754  0.00  0.00    +0.000 C 
BRANCH  21  22
ATOM     22  S   UNL     1      -2.598  11.789  18.801  0.00  0.00    +0.000 S 
BRANCH  22  23
ATOM     23  C   UNL     1      -2.922  11.060  17.273  0.00  0.00    +0.000 A 
ATOM     24  N   UNL     1      -2.123  10.275  16.588  0.00  0.00    +0.000 NA
ATOM     25  N   UNL     1      -2.721  10.025  15.374  0.00  0.00    +0.000 NA
ATOM     26  C   UNL     1      -3.879  10.648  15.370  0.00  0.00    +0.000 A 
ATOM     27  N   UNL     1      -4.073  11.261  16.571  0.00  0.00    +0.000 N 
ATOM     28  C   UNL     1      -5.262  11.954  16.987  0.00  0.00    +0.000 C 
ENDBRANCH  22  23
ENDBRANCH  21  22
ENDBRANCH   1  21
TORSDOF 5
ENDMDL
MODEL 9
REMARK VINA RESULT:      -7.1      3.052      8.895
REMARK  Name = 
REMARK  7 active torsions:
REMARK  status: ('A' for Active; 'I' for Inactive)
REMARK    1  A    between atoms: C_1  and  C_2
REMARK    2  A    between atoms: C_2  and  S_3
REMARK    3  A    between atoms: C_2  and  C_10
REMARK    4  A    between atoms: S_3  and  C_4
REMARK    5  A    between atoms: N_8  and  C_9
REMARK    6  A    between atoms: C_14  and  N_15
REMARK    7  A    between atoms: C_16  and  C_18
REMARK                            x       y       z     vdW  Elec       q    Type
REMARK                         _______ _______ _______ _____ _____    ______ ____
ROOT
ATOM      1  C   UNL     1      -0.371  10.773  18.611  0.00  0.00    +0.000 A 
ATOM      2  C   UNL     1       0.387  11.949  18.763  0.00  0.00    +0.000 A 
ATOM      3  C   UNL     1       1.740  11.970  18.448  0.00  0.00    +0.000 A 
ATOM      4  C   UNL     1       2.369  10.807  18.011  0.00  0.00    +0.000 A 
ATOM      5  C   UNL     1       1.668   9.603  17.903  0.00  0.00    +0.000 A 
ATOM      6  C   UNL     1       0.288   9.605  18.166  0.00  0.00    +0.000 A 
ENDROOT
BRANCH   5   7
ATOM      7  N   UNL     1       2.295   8.385  17.543  0.00  0.00    +0.000 N 
ATOM      8  C   UNL     1       2.614   7.365  18.428  0.00  0.00    +0.000 C 
ATOM      9  O   UNL     1       2.358   7.364  19.629  0.00  0.00    +0.000 OA
ATOM     10  H   UNL     1       2.435   8.195  16.552  0.00  0.00    +0.000 HD
BRANCH   8  11
ATOM     11  C   UNL     1       3.296   6.155  17.893  0.00  0.00    +0.000 A 
ATOM     12  C   UNL     1       4.464   6.354  17.126  0.00  0.00    +0.000 A 
ATOM     13  C   UNL     1       5.141   5.286  16.549  0.00  0.00    +0.000 A 
ATOM     14  C   UNL     1       4.677   3.987  16.724  0.00  0.00    +0.000 A 
ATOM     15  C   UNL     1       3.524   3.783  17.505  0.00  0.00    +0.000 A 
ATOM     16  S   UNL     1       2.750   2.292  17.889  0.00  0.00    +0.000 S 
ATOM     17  C   UNL     1       1.581   3.141  18.802  0.00  0.00    +0.000 A 
ATOM     18  N   UNL     1       1.710   4.448  18.849  0.00  0.00    +0.000 NA
ATOM     19  C   UNL     1       2.822   4.841  18.102  0.00  0.00    +0.000 A 
ENDBRANCH   8  11
ENDBRANCH   5   7
BRANCH   1  21
ATOM     20  C   UNL     1      -2.795  10.402  17.782  0.00  0.00    +0.000 C 
ATOM     21  C   UNL     1      -1.861  10.826  18.917  0.00  0.00    +0.000 C 
BRANCH  21  22
ATOM     22  S   UNL     1      -2.371  12.429  19.653  0.00  0.00    +0.000 S 
BRANCH  22  23
ATOM     23  C   UNL     1      -2.118  12.141  21.334  0.00  0.00    +0.000 A 
ATOM     24  N   UNL     1      -1.054  11.610  21.891  0.00  0.00    +0.000 NA
ATOM     25  N   UNL     1      -1.321  11.444  23.231  0.00  0.00    +0.000 NA
ATOM     26  C   UNL     1      -2.534  11.902  23.450  0.00  0.00    +0.000 A 
ATOM     27  N   UNL     1      -3.048  12.408  22.293  0.00  0.00    +0.000 N 
ATOM     28  C   UNL     1      -4.305  13.090  22.151  0.00  0.00    +0.000 C 
ENDBRANCH  22  23
ENDBRANCH  21  22
ENDBRANCH   1  21
TORSDOF 5
ENDMDL
