MODEL 1
REMARK VINA RESULT:      -8.5      0.000      0.000
REMARK  Name = 
REMARK  6 active torsions:
REMARK  status: ('A' for Active; 'I' for Inactive)
REMARK    1  A    between atoms: C_2  and  C_5
REMARK    2  A    between atoms: C_9  and  C_10
REMARK    3  A    between atoms: C_10  and  C_11
REMARK    4  A    between atoms: C_14  and  C_15
REMARK    5  A    between atoms: C_15  and  N_16
REMARK    6  A    between atoms: C_19  and  C_20
REMARK                            x       y       z     vdW  Elec       q    Type
REMARK                         _______ _______ _______ _____ _____    ______ ____
ROOT
ATOM      1  C   UNL     1       7.310   6.805  17.519  0.00  0.00    +0.000 A 
ATOM      2  N   UNL     1       8.082   6.643  18.605  0.00  0.00    +0.000 NA
ATOM      3  O   UNL     1       8.532   7.935  18.878  0.00  0.00    +0.000 OA
ATOM      4  C   UNL     1       8.010   8.745  17.909  0.00  0.00    +0.000 A 
ATOM      5  N   UNL     1       7.228   8.103  17.066  0.00  0.00    +0.000 NA
ENDROOT
BRANCH   1   6
ATOM      6  C   UNL     1       6.750   5.663  16.749  0.00  0.00    +0.000 C 
BRANCH   6  11
ATOM      7  C   UNL     1       3.879   3.749  18.426  0.00  0.00    +0.000 A 
ATOM      8  C   UNL     1       2.901   4.752  18.490  0.00  0.00    +0.000 A 
ATOM      9  C   UNL     1       3.155   6.021  17.973  0.00  0.00    +0.000 A 
ATOM     10  C   UNL     1       4.391   6.305  17.391  0.00  0.00    +0.000 A 
ATOM     11  C   UNL     1       5.396   5.328  17.328  0.00  0.00    +0.000 A 
ATOM     12  C   UNL     1       5.127   4.051  17.850  0.00  0.00    +0.000 A 
BRANCH   7  14
ATOM     13  F   UNL     1       3.638   1.393  18.005  0.00  0.00    +0.000 F 
ATOM     14  C   UNL     1       3.607   2.364  18.961  0.00  0.00    +0.000 C 
ATOM     15  F   UNL     1       2.383   2.263  19.552  0.00  0.00    +0.000 F 
ATOM     16  F   UNL     1       4.510   1.983  19.906  0.00  0.00    +0.000 F 
ENDBRANCH   7  14
ENDBRANCH   6  11
ENDBRANCH   1   6
BRANCH   4  17
ATOM     17  C   UNL     1       8.489  10.168  17.888  0.00  0.00    +0.000 C 
BRANCH  17  18
ATOM     18  N   UNL     1       9.612  10.492  18.812  0.00  0.00    +0.000 NA
ATOM     19  C   UNL     1      10.701  11.181  18.109  0.00  0.00    +0.000 C 
ATOM     20  C   UNL     1      11.837  11.625  19.037  0.00  0.00    +0.000 C 
ATOM     21  C   UNL     1      11.337  12.470  20.222  0.00  0.00    +0.000 C 
ATOM     22  C   UNL     1      10.266  11.627  20.943  0.00  0.00    +0.000 C 
ATOM     23  C   UNL     1       9.134  11.208  20.002  0.00  0.00    +0.000 C 
BRANCH  21  24
ATOM     24  C   UNL     1      10.881  13.896  19.903  0.00  0.00    +0.000 A 
ATOM     25  C   UNL     1       9.929  14.593  20.657  0.00  0.00    +0.000 A 
ATOM     26  C   UNL     1       9.584  15.890  20.301  0.00  0.00    +0.000 A 
ATOM     27  N   UNL     1      10.091  16.537  19.234  0.00  0.00    +0.000 NA
ATOM     28  C   UNL     1      10.971  15.847  18.484  0.00  0.00    +0.000 A 
ATOM     29  C   UNL     1      11.385  14.550  18.770  0.00  0.00    +0.000 A 
ENDBRANCH  21  24
ENDBRANCH  17  18
ENDBRANCH   4  17
TORSDOF 6
ENDMDL
MODEL 2
REMARK VINA RESULT:      -8.5      0.404      1.085
REMARK  Name = 
REMARK  6 active torsions:
REMARK  status: ('A' for Active; 'I' for Inactive)
REMARK    1  A    between atoms: C_2  and  C_5
REMARK    2  A    between atoms: C_9  and  C_10
REMARK    3  A    between atoms: C_10  and  C_11
REMARK    4  A    between atoms: C_14  and  C_15
REMARK    5  A    between atoms: C_15  and  N_16
REMARK    6  A    between atoms: C_19  and  C_20
REMARK                            x       y       z     vdW  Elec       q    Type
REMARK                         _______ _______ _______ _____ _____    ______ ____
ROOT
ATOM      1  C   UNL     1       7.382   6.883  17.521  0.00  0.00    +0.000 A 
ATOM      2  N   UNL     1       8.166   6.728  18.600  0.00  0.00    +0.000 NA
ATOM      3  O   UNL     1       8.564   8.031  18.902  0.00  0.00    +0.000 OA
ATOM      4  C   UNL     1       8.006   8.841  17.954  0.00  0.00    +0.000 A 
ATOM      5  N   UNL     1       7.246   8.187  17.099  0.00  0.00    +0.000 NA
ENDROOT
BRANCH   1   6
ATOM      6  C   UNL     1       6.865   5.739  16.726  0.00  0.00    +0.000 C 
BRANCH   6  11
ATOM      7  C   UNL     1       3.958   3.783  18.288  0.00  0.00    +0.000 A 
ATOM      8  C   UNL     1       2.966   4.774  18.319  0.00  0.00    +0.000 A 
ATOM      9  C   UNL     1       3.223   6.048  17.816  0.00  0.00    +0.000 A 
ATOM     10  C   UNL     1       4.477   6.349  17.281  0.00  0.00    +0.000 A 
ATOM     11  C   UNL     1       5.495   5.385  17.253  0.00  0.00    +0.000 A 
ATOM     12  C   UNL     1       5.223   4.103  17.761  0.00  0.00    +0.000 A 
BRANCH   7  14
ATOM     13  F   UNL     1       4.586   1.970  19.738  0.00  0.00    +0.000 F 
ATOM     14  C   UNL     1       3.683   2.393  18.809  0.00  0.00    +0.000 C 
ATOM     15  F   UNL     1       3.698   1.453  17.823  0.00  0.00    +0.000 F 
ATOM     16  F   UNL     1       2.463   2.291  19.404  0.00  0.00    +0.000 F 
ENDBRANCH   7  14
ENDBRANCH   6  11
ENDBRANCH   1   6
BRANCH   4  17
ATOM     17  C   UNL     1       8.426  10.282  17.964  0.00  0.00    +0.000 C 
BRANCH  17  18
ATOM     18  N   UNL     1       9.616  10.608  18.801  0.00  0.00    +0.000 NA
ATOM     19  C   UNL     1      10.686  11.208  17.997  0.00  0.00    +0.000 C 
ATOM     20  C   UNL     1      11.894  11.654  18.829  0.00  0.00    +0.000 C 
ATOM     21  C   UNL     1      11.501  12.586  19.990  0.00  0.00    +0.000 C 
ATOM     22  C   UNL     1      10.442  11.832  20.820  0.00  0.00    +0.000 C 
ATOM     23  C   UNL     1       9.240  11.411  19.973  0.00  0.00    +0.000 C 
BRANCH  21  24
ATOM     24  C   UNL     1      11.084  14.009  19.615  0.00  0.00    +0.000 A 
ATOM     25  C   UNL     1      10.790  14.412  18.307  0.00  0.00    +0.000 A 
ATOM     26  C   UNL     1      10.406  15.723  18.059  0.00  0.00    +0.000 A 
ATOM     27  N   UNL     1      10.321  16.674  19.010  0.00  0.00    +0.000 NA
ATOM     28  C   UNL     1      10.650  16.295  20.260  0.00  0.00    +0.000 A 
ATOM     29  C   UNL     1      11.032  15.003  20.603  0.00  0.00    +0.000 A 
ENDBRANCH  21  24
ENDBRANCH  17  18
ENDBRANCH   4  17
TORSDOF 6
ENDMDL
MODEL 3
REMARK VINA RESULT:      -8.4      2.016      2.656
REMARK  Name = 
REMARK  6 active torsions:
REMARK  status: ('A' for Active; 'I' for Inactive)
REMARK    1  A    between atoms: C_2  and  C_5
REMARK    2  A    between atoms: C_9  and  C_10
REMARK    3  A    between atoms: C_10  and  C_11
REMARK    4  A    between atoms: C_14  and  C_15
REMARK    5  A    between atoms: C_15  and  N_16
REMARK    6  A    between atoms: C_19  and  C_20
REMARK                            x       y       z     vdW  Elec       q    Type
REMARK                         _______ _______ _______ _____ _____    ______ ____
ROOT
ATOM      1  C   UNL     1       7.423   6.814  17.584  0.00  0.00    +0.000 A 
ATOM      2  N   UNL     1       8.169   6.688  18.694  0.00  0.00    +0.000 NA
ATOM      3  O   UNL     1       8.601   7.992  18.943  0.00  0.00    +0.000 OA
ATOM      4  C   UNL     1       8.099   8.770  17.939  0.00  0.00    +0.000 A 
ATOM      5  N   UNL     1       7.342   8.099  17.094  0.00  0.00    +0.000 NA
ENDROOT
BRANCH   1   6
ATOM      6  C   UNL     1       6.892   5.648  16.831  0.00  0.00    +0.000 C 
BRANCH   6  11
ATOM      7  C   UNL     1       3.278   6.421  17.862  0.00  0.00    +0.000 A 
ATOM      8  C   UNL     1       2.713   5.139  17.808  0.00  0.00    +0.000 A 
ATOM      9  C   UNL     1       3.494   4.035  17.471  0.00  0.00    +0.000 A 
ATOM     10  C   UNL     1       4.849   4.200  17.178  0.00  0.00    +0.000 A 
ATOM     11  C   UNL     1       5.439   5.473  17.206  0.00  0.00    +0.000 A 
ATOM     12  C   UNL     1       4.641   6.578  17.551  0.00  0.00    +0.000 A 
BRANCH   7  14
ATOM     13  F   UNL     1       1.286   7.730  17.544  0.00  0.00    +0.000 F 
ATOM     14  C   UNL     1       2.447   7.620  18.249  0.00  0.00    +0.000 C 
ATOM     15  F   UNL     1       3.107   8.797  18.062  0.00  0.00    +0.000 F 
ATOM     16  F   UNL     1       2.082   7.601  19.561  0.00  0.00    +0.000 F 
ENDBRANCH   7  14
ENDBRANCH   6  11
ENDBRANCH   1   6
BRANCH   4  17
ATOM     17  C   UNL     1       8.567  10.196  17.891  0.00  0.00    +0.000 C 
BRANCH  17  18
ATOM     18  N   UNL     1       9.701  10.540  18.794  0.00  0.00    +0.000 NA
ATOM     19  C   UNL     1      10.785  11.205  18.061  0.00  0.00    +0.000 C 
ATOM     20  C   UNL     1      11.933  11.670  18.963  0.00  0.00    +0.000 C 
ATOM     21  C   UNL     1      11.449  12.550  20.130  0.00  0.00    +0.000 C 
ATOM     22  C   UNL     1      10.382  11.732  20.885  0.00  0.00    +0.000 C 
ATOM     23  C   UNL     1       9.239  11.292  19.969  0.00  0.00    +0.000 C 
BRANCH  21  24
ATOM     24  C   UNL     1      10.995  13.968  19.776  0.00  0.00    +0.000 A 
ATOM     25  C   UNL     1      11.316  14.606  18.572  0.00  0.00    +0.000 A 
ATOM     26  C   UNL     1      10.850  15.892  18.329  0.00  0.00    +0.000 A 
ATOM     27  N   UNL     1      10.113  16.603  19.205  0.00  0.00    +0.000 NA
ATOM     28  C   UNL     1       9.846  16.003  20.381  0.00  0.00    +0.000 A 
ATOM     29  C   UNL     1      10.260  14.716  20.707  0.00  0.00    +0.000 A 
ENDBRANCH  21  24
ENDBRANCH  17  18
ENDBRANCH   4  17
TORSDOF 6
ENDMDL
MODEL 4
REMARK VINA RESULT:      -8.3      2.095      2.591
REMARK  Name = 
REMARK  6 active torsions:
REMARK  status: ('A' for Active; 'I' for Inactive)
REMARK    1  A    between atoms: C_2  and  C_5
REMARK    2  A    between atoms: C_9  and  C_10
REMARK    3  A    between atoms: C_10  and  C_11
REMARK    4  A    between atoms: C_14  and  C_15
REMARK    5  A    between atoms: C_15  and  N_16
REMARK    6  A    between atoms: C_19  and  C_20
REMARK                            x       y       z     vdW  Elec       q    Type
REMARK                         _______ _______ _______ _____ _____    ______ ____
ROOT
ATOM      1  C   UNL     1       7.354   6.883  17.579  0.00  0.00    +0.000 A 
ATOM      2  N   UNL     1       8.128   6.739  18.667  0.00  0.00    +0.000 NA
ATOM      3  O   UNL     1       8.594   8.032  18.907  0.00  0.00    +0.000 OA
ATOM      4  C   UNL     1       8.080   8.824  17.919  0.00  0.00    +0.000 A 
ATOM      5  N   UNL     1       7.287   8.170  17.094  0.00  0.00    +0.000 NA
ENDROOT
BRANCH   1   6
ATOM      6  C   UNL     1       6.779   5.730  16.839  0.00  0.00    +0.000 C 
BRANCH   6  11
ATOM      7  C   UNL     1       3.198   6.580  17.923  0.00  0.00    +0.000 A 
ATOM      8  C   UNL     1       2.618   5.303  17.927  0.00  0.00    +0.000 A 
ATOM      9  C   UNL     1       3.380   4.179  17.612  0.00  0.00    +0.000 A 
ATOM     10  C   UNL     1       4.729   4.318  17.283  0.00  0.00    +0.000 A 
ATOM     11  C   UNL     1       5.333   5.584  17.252  0.00  0.00    +0.000 A 
ATOM     12  C   UNL     1       4.555   6.709  17.575  0.00  0.00    +0.000 A 
BRANCH   7  14
ATOM     13  F   UNL     1       2.007   7.835  19.593  0.00  0.00    +0.000 F 
ATOM     14  C   UNL     1       2.389   7.801  18.285  0.00  0.00    +0.000 C 
ATOM     15  F   UNL     1       1.238   7.899  17.562  0.00  0.00    +0.000 F 
ATOM     16  F   UNL     1       3.067   8.961  18.067  0.00  0.00    +0.000 F 
ENDBRANCH   7  14
ENDBRANCH   6  11
ENDBRANCH   1   6
BRANCH   4  17
ATOM     17  C   UNL     1       8.575  10.240  17.861  0.00  0.00    +0.000 C 
BRANCH  17  18
ATOM     18  N   UNL     1       9.712  10.570  18.767  0.00  0.00    +0.000 NA
ATOM     19  C   UNL     1      10.801  11.230  18.038  0.00  0.00    +0.000 C 
ATOM     20  C   UNL     1      11.952  11.680  18.943  0.00  0.00    +0.000 C 
ATOM     21  C   UNL     1      11.475  12.558  20.115  0.00  0.00    +0.000 C 
ATOM     22  C   UNL     1      10.402  11.744  20.865  0.00  0.00    +0.000 C 
ATOM     23  C   UNL     1       9.255  11.318  19.946  0.00  0.00    +0.000 C 
BRANCH  21  24
ATOM     24  C   UNL     1      11.033  13.981  19.769  0.00  0.00    +0.000 A 
ATOM     25  C   UNL     1       9.971  14.639  20.402  0.00  0.00    +0.000 A 
ATOM     26  C   UNL     1       9.646  15.937  20.031  0.00  0.00    +0.000 A 
ATOM     27  N   UNL     1      10.279  16.623  19.059  0.00  0.00    +0.000 NA
ATOM     28  C   UNL     1      11.269  15.970  18.421  0.00  0.00    +0.000 A 
ATOM     29  C   UNL     1      11.671  14.675  18.731  0.00  0.00    +0.000 A 
ENDBRANCH  21  24
ENDBRANCH  17  18
ENDBRANCH   4  17
TORSDOF 6
ENDMDL
MODEL 5
REMARK VINA RESULT:      -8.2      7.116      9.702
REMARK  Name = 
REMARK  6 active torsions:
REMARK  status: ('A' for Active; 'I' for Inactive)
REMARK    1  A    between atoms: C_2  and  C_5
REMARK    2  A    between atoms: C_9  and  C_10
REMARK    3  A    between atoms: C_10  and  C_11
REMARK    4  A    between atoms: C_14  and  C_15
REMARK    5  A    between atoms: C_15  and  N_16
REMARK    6  A    between atoms: C_19  and  C_20
REMARK                            x       y       z     vdW  Elec       q    Type
REMARK                         _______ _______ _______ _____ _____    ______ ____
ROOT
ATOM      1  C   UNL     1       1.842   8.440  19.306  0.00  0.00    +0.000 A 
ATOM      2  N   UNL     1       1.131   8.667  20.423  0.00  0.00    +0.000 NA
ATOM      3  O   UNL     1       1.247   7.469  21.129  0.00  0.00    +0.000 OA
ATOM      4  C   UNL     1       1.991   6.626  20.352  0.00  0.00    +0.000 A 
ATOM      5  N   UNL     1       2.406   7.186  19.235  0.00  0.00    +0.000 NA
ENDROOT
BRANCH   1   6
ATOM      6  C   UNL     1       1.859   9.380  18.154  0.00  0.00    +0.000 C 
BRANCH   6  11
ATOM      7  C   UNL     1      -1.799  10.476  17.783  0.00  0.00    +0.000 A 
ATOM      8  C   UNL     1      -1.759  11.730  18.409  0.00  0.00    +0.000 A 
ATOM      9  C   UNL     1      -0.562  12.227  18.920  0.00  0.00    +0.000 A 
ATOM     10  C   UNL     1       0.610  11.475  18.816  0.00  0.00    +0.000 A 
ATOM     11  C   UNL     1       0.598  10.210  18.211  0.00  0.00    +0.000 A 
ATOM     12  C   UNL     1      -0.615   9.720  17.697  0.00  0.00    +0.000 A 
BRANCH   7  14
ATOM     13  F   UNL     1      -3.652   8.953  17.959  0.00  0.00    +0.000 F 
ATOM     14  C   UNL     1      -3.085   9.937  17.206  0.00  0.00    +0.000 C 
ATOM     15  F   UNL     1      -2.918   9.404  15.963  0.00  0.00    +0.000 F 
ATOM     16  F   UNL     1      -4.041  10.899  17.074  0.00  0.00    +0.000 F 
ENDBRANCH   7  14
ENDBRANCH   6  11
ENDBRANCH   1   6
BRANCH   4  17
ATOM     17  C   UNL     1       2.116   5.206  20.824  0.00  0.00    +0.000 C 
BRANCH  17  18
ATOM     18  N   UNL     1       2.298   4.179  19.759  0.00  0.00    +0.000 NA
ATOM     19  C   UNL     1       1.854   4.679  18.454  0.00  0.00    +0.000 C 
ATOM     20  C   UNL     1       2.114   3.697  17.307  0.00  0.00    +0.000 C 
ATOM     21  C   UNL     1       3.582   3.238  17.241  0.00  0.00    +0.000 C 
ATOM     22  C   UNL     1       3.922   2.652  18.625  0.00  0.00    +0.000 C 
ATOM     23  C   UNL     1       3.671   3.655  19.753  0.00  0.00    +0.000 C 
BRANCH  21  24
ATOM     24  C   UNL     1       4.599   4.269  16.746  0.00  0.00    +0.000 A 
ATOM     25  C   UNL     1       4.439   5.651  16.898  0.00  0.00    +0.000 A 
ATOM     26  C   UNL     1       5.421   6.514  16.429  0.00  0.00    +0.000 A 
ATOM     27  N   UNL     1       6.537   6.109  15.793  0.00  0.00    +0.000 NA
ATOM     28  C   UNL     1       6.665   4.781  15.607  0.00  0.00    +0.000 A 
ATOM     29  C   UNL     1       5.741   3.842  16.053  0.00  0.00    +0.000 A 
ENDBRANCH  21  24
ENDBRANCH  17  18
ENDBRANCH   4  17
TORSDOF 6
ENDMDL
MODEL 6
REMARK VINA RESULT:      -8.2      6.265      8.622
REMARK  Name = 
REMARK  6 active torsions:
REMARK  status: ('A' for Active; 'I' for Inactive)
REMARK    1  A    between atoms: C_2  and  C_5
REMARK    2  A    between atoms: C_9  and  C_10
REMARK    3  A    between atoms: C_10  and  C_11
REMARK    4  A    between atoms: C_14  and  C_15
REMARK    5  A    between atoms: C_15  and  N_16
REMARK    6  A    between atoms: C_19  and  C_20
REMARK                            x       y       z     vdW  Elec       q    Type
REMARK                         _______ _______ _______ _____ _____    ______ ____
ROOT
ATOM      1  C   UNL     1       3.468   4.380  19.581  0.00  0.00    +0.000 A 
ATOM      2  N   UNL     1       2.278   3.766  19.473  0.00  0.00    +0.000 NA
ATOM      3  O   UNL     1       1.367   4.758  19.838  0.00  0.00    +0.000 OA
ATOM      4  C   UNL     1       2.101   5.865  20.161  0.00  0.00    +0.000 A 
ATOM      5  N   UNL     1       3.396   5.693  19.991  0.00  0.00    +0.000 NA
ENDROOT
BRANCH   1   6
ATOM      6  C   UNL     1       4.763   3.660  19.463  0.00  0.00    +0.000 C 
BRANCH   6  11
ATOM      7  C   UNL     1       6.406   4.989  16.261  0.00  0.00    +0.000 A 
ATOM      8  C   UNL     1       7.241   5.983  16.792  0.00  0.00    +0.000 A 
ATOM      9  C   UNL     1       7.293   6.203  18.167  0.00  0.00    +0.000 A 
ATOM     10  C   UNL     1       6.508   5.435  19.029  0.00  0.00    +0.000 A 
ATOM     11  C   UNL     1       5.650   4.446  18.527  0.00  0.00    +0.000 A 
ATOM     12  C   UNL     1       5.608   4.231  17.138  0.00  0.00    +0.000 A 
BRANCH   7  14
ATOM     13  F   UNL     1       7.442   5.205  14.102  0.00  0.00    +0.000 F 
ATOM     14  C   UNL     1       6.359   4.726  14.776  0.00  0.00    +0.000 C 
ATOM     15  F   UNL     1       5.272   5.291  14.179  0.00  0.00    +0.000 F 
ATOM     16  F   UNL     1       6.298   3.398  14.482  0.00  0.00    +0.000 F 
ENDBRANCH   7  14
ENDBRANCH   6  11
ENDBRANCH   1   6
BRANCH   4  17
ATOM     17  C   UNL     1       1.351   7.024  20.751  0.00  0.00    +0.000 C 
BRANCH  17  18
ATOM     18  N   UNL     1       1.657   8.362  20.170  0.00  0.00    +0.000 NA
ATOM     19  C   UNL     1       1.507   8.357  18.711  0.00  0.00    +0.000 C 
ATOM     20  C   UNL     1       1.713   9.736  18.075  0.00  0.00    +0.000 C 
ATOM     21  C   UNL     1       0.821  10.820  18.708  0.00  0.00    +0.000 C 
ATOM     22  C   UNL     1       1.116  10.803  20.221  0.00  0.00    +0.000 C 
ATOM     23  C   UNL     1       0.889   9.422  20.837  0.00  0.00    +0.000 C 
BRANCH  21  24
ATOM     24  C   UNL     1      -0.672  10.758  18.375  0.00  0.00    +0.000 A 
ATOM     25  C   UNL     1      -1.224   9.861  17.453  0.00  0.00    +0.000 A 
ATOM     26  C   UNL     1      -2.593   9.866  17.222  0.00  0.00    +0.000 A 
ATOM     27  N   UNL     1      -3.453  10.716  17.817  0.00  0.00    +0.000 NA
ATOM     28  C   UNL     1      -2.911  11.609  18.668  0.00  0.00    +0.000 A 
ATOM     29  C   UNL     1      -1.555  11.670  18.970  0.00  0.00    +0.000 A 
ENDBRANCH  21  24
ENDBRANCH  17  18
ENDBRANCH   4  17
TORSDOF 6
ENDMDL
MODEL 7
REMARK VINA RESULT:      -8.2      1.352      2.012
REMARK  Name = 
REMARK  6 active torsions:
REMARK  status: ('A' for Active; 'I' for Inactive)
REMARK    1  A    between atoms: C_2  and  C_5
REMARK    2  A    between atoms: C_9  and  C_10
REMARK    3  A    between atoms: C_10  and  C_11
REMARK    4  A    between atoms: C_14  and  C_15
REMARK    5  A    between atoms: C_15  and  N_16
REMARK    6  A    between atoms: C_19  and  C_20
REMARK                            x       y       z     vdW  Elec       q    Type
REMARK                         _______ _______ _______ _____ _____    ______ ____
ROOT
ATOM      1  C   UNL     1       7.828   6.904  18.070  0.00  0.00    +0.000 A 
ATOM      2  N   UNL     1       7.227   7.299  16.936  0.00  0.00    +0.000 NA
ATOM      3  O   UNL     1       7.483   8.671  16.894  0.00  0.00    +0.000 OA
ATOM      4  C   UNL     1       8.188   8.972  18.025  0.00  0.00    +0.000 A 
ATOM      5  N   UNL     1       8.451   7.916  18.766  0.00  0.00    +0.000 NA
ENDROOT
BRANCH   1   6
ATOM      6  C   UNL     1       7.672   5.538  18.633  0.00  0.00    +0.000 C 
BRANCH   6  11
ATOM      7  C   UNL     1       4.005   4.539  18.112  0.00  0.00    +0.000 A 
ATOM      8  C   UNL     1       4.090   3.872  16.882  0.00  0.00    +0.000 A 
ATOM      9  C   UNL     1       5.319   3.723  16.242  0.00  0.00    +0.000 A 
ATOM     10  C   UNL     1       6.477   4.242  16.822  0.00  0.00    +0.000 A 
ATOM     11  C   UNL     1       6.421   4.930  18.043  0.00  0.00    +0.000 A 
ATOM     12  C   UNL     1       5.177   5.072  18.680  0.00  0.00    +0.000 A 
BRANCH   7  14
ATOM     13  F   UNL     1       2.295   3.565  19.495  0.00  0.00    +0.000 F 
ATOM     14  C   UNL     1       2.683   4.687  18.825  0.00  0.00    +0.000 C 
ATOM     15  F   UNL     1       1.660   4.983  17.975  0.00  0.00    +0.000 F 
ATOM     16  F   UNL     1       2.698   5.685  19.752  0.00  0.00    +0.000 F 
ENDBRANCH   7  14
ENDBRANCH   6  11
ENDBRANCH   1   6
BRANCH   4  17
ATOM     17  C   UNL     1       8.440  10.428  18.295  0.00  0.00    +0.000 C 
BRANCH  17  18
ATOM     18  N   UNL     1       9.788  10.766  18.834  0.00  0.00    +0.000 NA
ATOM     19  C   UNL     1      10.613  11.438  17.824  0.00  0.00    +0.000 C 
ATOM     20  C   UNL     1      11.974  11.897  18.358  0.00  0.00    +0.000 C 
ATOM     21  C   UNL     1      11.850  12.767  19.623  0.00  0.00    +0.000 C 
ATOM     22  C   UNL     1      11.047  11.942  20.647  0.00  0.00    +0.000 C 
ATOM     23  C   UNL     1       9.687  11.508  20.098  0.00  0.00    +0.000 C 
BRANCH  21  24
ATOM     24  C   UNL     1      11.315  14.188  19.427  0.00  0.00    +0.000 A 
ATOM     25  C   UNL     1      11.209  14.811  18.178  0.00  0.00    +0.000 A 
ATOM     26  C   UNL     1      10.699  16.100  18.092  0.00  0.00    +0.000 A 
ATOM     27  N   UNL     1      10.312  16.828  19.158  0.00  0.00    +0.000 NA
ATOM     28  C   UNL     1      10.459  16.242  20.362  0.00  0.00    +0.000 A 
ATOM     29  C   UNL     1      10.948  14.953  20.543  0.00  0.00    +0.000 A 
ENDBRANCH  21  24
ENDBRANCH  17  18
ENDBRANCH   4  17
TORSDOF 6
ENDMDL
MODEL 8
REMARK VINA RESULT:      -8.1      1.308      1.793
REMARK  Name = 
REMARK  6 active torsions:
REMARK  status: ('A' for Active; 'I' for Inactive)
REMARK    1  A    between atoms: C_2  and  C_5
REMARK    2  A    between atoms: C_9  and  C_10
REMARK    3  A    between atoms: C_10  and  C_11
REMARK    4  A    between atoms: C_14  and  C_15
REMARK    5  A    between atoms: C_15  and  N_16
REMARK    6  A    between atoms: C_19  and  C_20
REMARK                            x       y       z     vdW  Elec       q    Type
REMARK                         _______ _______ _______ _____ _____    ______ ____
ROOT
ATOM      1  C   UNL     1       7.710   6.855  18.076  0.00  0.00    +0.000 A 
ATOM      2  N   UNL     1       6.982   7.234  17.012  0.00  0.00    +0.000 NA
ATOM      3  O   UNL     1       7.252   8.599  16.906  0.00  0.00    +0.000 OA
ATOM      4  C   UNL     1       8.092   8.914  17.936  0.00  0.00    +0.000 A 
ATOM      5  N   UNL     1       8.428   7.871  18.667  0.00  0.00    +0.000 NA
ENDROOT
BRANCH   1   6
ATOM      6  C   UNL     1       7.603   5.505  18.688  0.00  0.00    +0.000 C 
BRANCH   6  11
ATOM      7  C   UNL     1       3.928   4.403  18.675  0.00  0.00    +0.000 A 
ATOM      8  C   UNL     1       3.828   3.849  17.391  0.00  0.00    +0.000 A 
ATOM      9  C   UNL     1       4.939   3.806  16.551  0.00  0.00    +0.000 A 
ATOM     10  C   UNL     1       6.162   4.321  16.981  0.00  0.00    +0.000 A 
ATOM     11  C   UNL     1       6.290   4.898  18.254  0.00  0.00    +0.000 A 
ATOM     12  C   UNL     1       5.163   4.932  19.094  0.00  0.00    +0.000 A 
BRANCH   7  14
ATOM     13  F   UNL     1       2.737   5.495  20.456  0.00  0.00    +0.000 F 
ATOM     14  C   UNL     1       2.738   4.433  19.603  0.00  0.00    +0.000 C 
ATOM     15  F   UNL     1       2.660   3.324  20.391  0.00  0.00    +0.000 F 
ATOM     16  F   UNL     1       1.555   4.497  18.931  0.00  0.00    +0.000 F 
ENDBRANCH   7  14
ENDBRANCH   6  11
ENDBRANCH   1   6
BRANCH   4  17
ATOM     17  C   UNL     1       8.397  10.371  18.137  0.00  0.00    +0.000 C 
BRANCH  17  18
ATOM     18  N   UNL     1       9.678  10.679  18.835  0.00  0.00    +0.000 NA
ATOM     19  C   UNL     1      10.627  11.348  17.938  0.00  0.00    +0.000 C 
ATOM     20  C   UNL     1      11.923  11.776  18.635  0.00  0.00    +0.000 C 
ATOM     21  C   UNL     1      11.665  12.633  19.888  0.00  0.00    +0.000 C 
ATOM     22  C   UNL     1      10.734  11.809  20.800  0.00  0.00    +0.000 C 
ATOM     23  C   UNL     1       9.441  11.406  20.089  0.00  0.00    +0.000 C 
BRANCH  21  24
ATOM     24  C   UNL     1      11.180  14.064  19.651  0.00  0.00    +0.000 A 
ATOM     25  C   UNL     1      10.436  14.795  20.585  0.00  0.00    +0.000 A 
ATOM     26  C   UNL     1      10.047  16.096  20.290  0.00  0.00    +0.000 A 
ATOM     27  N   UNL     1      10.318  16.715  19.125  0.00  0.00    +0.000 NA
ATOM     28  C   UNL     1      10.993  15.993  18.211  0.00  0.00    +0.000 A 
ATOM     29  C   UNL     1      11.433  14.690  18.422  0.00  0.00    +0.000 A 
ENDBRANCH  21  24
ENDBRANCH  17  18
ENDBRANCH   4  17
TORSDOF 6
ENDMDL
MODEL 9
REMARK VINA RESULT:      -8.1      1.444      1.949
REMARK  Name = 
REMARK  6 active torsions:
REMARK  status: ('A' for Active; 'I' for Inactive)
REMARK    1  A    between atoms: C_2  and  C_5
REMARK    2  A    between atoms: C_9  and  C_10
REMARK    3  A    between atoms: C_10  and  C_11
REMARK    4  A    between atoms: C_14  and  C_15
REMARK    5  A    between atoms: C_15  and  N_16
REMARK    6  A    between atoms: C_19  and  C_20
REMARK                            x       y       z     vdW  Elec       q    Type
REMARK                         _______ _______ _______ _____ _____    ______ ____
ROOT
ATOM      1  C   UNL     1       7.851   7.082  18.046  0.00  0.00    +0.000 A 
ATOM      2  N   UNL     1       7.198   7.564  16.976  0.00  0.00    +0.000 NA
ATOM      3  O   UNL     1       7.466   8.933  17.022  0.00  0.00    +0.000 OA
ATOM      4  C   UNL     1       8.231   9.146  18.135  0.00  0.00    +0.000 A 
ATOM      5  N   UNL     1       8.520   8.035  18.782  0.00  0.00    +0.000 NA
ENDROOT
BRANCH   1   6
ATOM      6  C   UNL     1       7.709   5.679  18.515  0.00  0.00    +0.000 C 
BRANCH   6  11
ATOM      7  C   UNL     1       4.206   4.526  17.458  0.00  0.00    +0.000 A 
ATOM      8  C   UNL     1       4.493   3.922  16.225  0.00  0.00    +0.000 A 
ATOM      9  C   UNL     1       5.803   3.864  15.754  0.00  0.00    +0.000 A 
ATOM     10  C   UNL     1       6.843   4.412  16.507  0.00  0.00    +0.000 A 
ATOM     11  C   UNL     1       6.585   5.038  17.736  0.00  0.00    +0.000 A 
ATOM     12  C   UNL     1       5.260   5.088  18.202  0.00  0.00    +0.000 A 
BRANCH   7  14
ATOM     13  F   UNL     1       1.984   3.607  17.474  0.00  0.00    +0.000 F 
ATOM     14  C   UNL     1       2.794   4.574  17.988  0.00  0.00    +0.000 C 
ATOM     15  F   UNL     1       2.175   5.758  17.720  0.00  0.00    +0.000 F 
ATOM     16  F   UNL     1       2.739   4.422  19.341  0.00  0.00    +0.000 F 
ENDBRANCH   7  14
ENDBRANCH   6  11
ENDBRANCH   1   6
BRANCH   4  17
ATOM     17  C   UNL     1       8.513  10.575  18.497  0.00  0.00    +0.000 C 
BRANCH  17  18
ATOM     18  N   UNL     1       9.928  10.894  18.840  0.00  0.00    +0.000 NA
ATOM     19  C   UNL     1      10.601  11.589  17.737  0.00  0.00    +0.000 C 
ATOM     20  C   UNL     1      12.029  12.028  18.077  0.00  0.00    +0.000 C 
ATOM     21  C   UNL     1      12.099  12.865  19.367  0.00  0.00    +0.000 C 
ATOM     22  C   UNL     1      11.449  12.016  20.478  0.00  0.00    +0.000 C 
ATOM     23  C   UNL     1      10.019  11.602  20.124  0.00  0.00    +0.000 C 
BRANCH  21  24
ATOM     24  C   UNL     1      11.552  14.292  19.289  0.00  0.00    +0.000 A 
ATOM     25  C   UNL     1      11.028  14.983  20.388  0.00  0.00    +0.000 A 
ATOM     26  C   UNL     1      10.564  16.282  20.227  0.00  0.00    +0.000 A 
ATOM     27  N   UNL     1      10.555  16.937  19.050  0.00  0.00    +0.000 NA
ATOM     28  C   UNL     1      11.017  16.252  17.986  0.00  0.00    +0.000 A 
ATOM     29  C   UNL     1      11.512  14.955  18.054  0.00  0.00    +0.000 A 
ENDBRANCH  21  24
ENDBRANCH  17  18
ENDBRANCH   4  17
TORSDOF 6
ENDMDL
