MODEL 1
REMARK VINA RESULT:      -7.7      0.000      0.000
REMARK  Name = 
REMARK  12 active torsions:
REMARK  status: ('A' for Active; 'I' for Inactive)
REMARK    1  A    between atoms: C_1  and  O_2
REMARK    2  A    between atoms: O_2  and  C_3
REMARK    3  A    between atoms: C_6  and  C_7
REMARK    4  A    between atoms: C_7  and  O_9
REMARK    5  A    between atoms: C_12  and  C_13
REMARK    6  A    between atoms: C_13  and  C_15
REMARK    7  A    between atoms: C_20  and  O_21
REMARK    8  A    between atoms: O_21  and  C_22
REMARK    9  A    between atoms: C_22  and  C_23
REMARK   10  A    between atoms: C_22  and  C_24
REMARK   11  A    between atoms: C_29  and  O_30
REMARK   12  A    between atoms: O_30  and  C_31
REMARK                            x       y       z     vdW  Elec       q    Type
REMARK                         _______ _______ _______ _____ _____    ______ ____
ROOT
ATOM      1  C   UNL     1       6.250   5.171  16.736  0.00  0.00    +0.000 A 
ATOM      2  C   UNL     1       5.249   4.289  17.198  0.00  0.00    +0.000 A 
ATOM      3  C   UNL     1       4.020   4.731  17.758  0.00  0.00    +0.000 A 
ATOM      4  C   UNL     1       2.949   3.879  18.154  0.00  0.00    +0.000 A 
ATOM      5  C   UNL     1       1.744   4.453  18.541  0.00  0.00    +0.000 A 
ATOM      6  N   UNL     1       1.515   5.780  18.594  0.00  0.00    +0.000 NA
ATOM      7  C   UNL     1       2.546   6.594  18.270  0.00  0.00    +0.000 A 
ATOM      8  C   UNL     1       3.828   6.131  17.867  0.00  0.00    +0.000 A 
ATOM      9  C   UNL     1       4.909   6.983  17.551  0.00  0.00    +0.000 A 
ATOM     10  C   UNL     1       6.099   6.536  16.966  0.00  0.00    +0.000 A 
ENDROOT
BRANCH   1  12
ATOM     11  C   UNL     1       7.282   4.582  14.679  0.00  0.00    +0.000 C 
ATOM     12  O   UNL     1       7.370   4.707  16.102  0.00  0.00    +0.000 OA
ENDBRANCH   1  12
BRANCH   4  13
ATOM     13  C   UNL     1       2.936   2.396  18.113  0.00  0.00    +0.000 C 
ATOM     14  O   UNL     1       3.755   1.730  18.719  0.00  0.00    +0.000 OA
BRANCH  13  15
ATOM     15  O   UNL     1       2.010   1.844  17.303  0.00  0.00    +0.000 OA
ATOM     16  H   UNL     1       2.268   1.015  16.862  0.00  0.00    +0.000 HD
ENDBRANCH  13  15
ENDBRANCH   4  13
BRANCH   7  17
ATOM     17  C   UNL     1       2.177   8.043  18.221  0.00  0.00    +0.000 C 
ATOM     18  O   UNL     1       2.521   8.746  17.263  0.00  0.00    +0.000 OA
BRANCH  17  19
ATOM     19  C   UNL     1       1.384   8.674  19.295  0.00  0.00    +0.000 A 
ATOM     20  C   UNL     1       1.578   8.272  20.617  0.00  0.00    +0.000 A 
ATOM     21  F   UNL     1       2.576   7.442  20.957  0.00  0.00    +0.000 F 
ATOM     22  C   UNL     1       0.739   8.722  21.635  0.00  0.00    +0.000 A 
ATOM     23  C   UNL     1      -0.288   9.623  21.346  0.00  0.00    +0.000 A 
ATOM     24  C   UNL     1      -0.439  10.105  20.046  0.00  0.00    +0.000 A 
ATOM     25  C   UNL     1       0.371   9.591  19.022  0.00  0.00    +0.000 A 
ATOM     26  F   UNL     1       0.120   9.976  17.760  0.00  0.00    +0.000 F 
BRANCH  24  27
ATOM     27  O   UNL     1      -1.348  11.050  19.659  0.00  0.00    +0.000 OA
BRANCH  27  28
ATOM     28  C   UNL     1      -1.444  12.273  20.403  0.00  0.00    +0.000 C 
ATOM     29  C   UNL     1      -0.419  13.311  19.945  0.00  0.00    +0.000 C 
ATOM     30  C   UNL     1      -2.848  12.819  20.141  0.00  0.00    +0.000 C 
ENDBRANCH  27  28
ENDBRANCH  24  27
ENDBRANCH  17  19
ENDBRANCH   7  17
BRANCH  10  31
ATOM     31  O   UNL     1       6.934   7.578  16.685  0.00  0.00    +0.000 OA
ATOM     32  C   UNL     1       7.827   8.080  17.661  0.00  0.00    +0.000 C 
ENDBRANCH  10  31
TORSDOF 8
ENDMDL
MODEL 2
REMARK VINA RESULT:      -7.5      3.117      7.694
REMARK  Name = 
REMARK  12 active torsions:
REMARK  status: ('A' for Active; 'I' for Inactive)
REMARK    1  A    between atoms: C_1  and  O_2
REMARK    2  A    between atoms: O_2  and  C_3
REMARK    3  A    between atoms: C_6  and  C_7
REMARK    4  A    between atoms: C_7  and  O_9
REMARK    5  A    between atoms: C_12  and  C_13
REMARK    6  A    between atoms: C_13  and  C_15
REMARK    7  A    between atoms: C_20  and  O_21
REMARK    8  A    between atoms: O_21  and  C_22
REMARK    9  A    between atoms: C_22  and  C_23
REMARK   10  A    between atoms: C_22  and  C_24
REMARK   11  A    between atoms: C_29  and  O_30
REMARK   12  A    between atoms: O_30  and  C_31
REMARK                            x       y       z     vdW  Elec       q    Type
REMARK                         _______ _______ _______ _____ _____    ______ ____
ROOT
ATOM      1  C   UNL     1       1.691   6.855  20.184  0.00  0.00    +0.000 A 
ATOM      2  C   UNL     1       1.698   5.507  20.602  0.00  0.00    +0.000 A 
ATOM      3  C   UNL     1       2.687   4.571  20.195  0.00  0.00    +0.000 A 
ATOM      4  C   UNL     1       2.783   3.228  20.661  0.00  0.00    +0.000 A 
ATOM      5  C   UNL     1       3.890   2.470  20.298  0.00  0.00    +0.000 A 
ATOM      6  N   UNL     1       4.886   2.910  19.505  0.00  0.00    +0.000 NA
ATOM      7  C   UNL     1       4.773   4.165  19.015  0.00  0.00    +0.000 A 
ATOM      8  C   UNL     1       3.687   5.036  19.305  0.00  0.00    +0.000 A 
ATOM      9  C   UNL     1       3.561   6.339  18.776  0.00  0.00    +0.000 A 
ATOM     10  C   UNL     1       2.605   7.261  19.214  0.00  0.00    +0.000 A 
ENDROOT
BRANCH   1  12
ATOM     11  C   UNL     1       1.278   8.640  21.696  0.00  0.00    +0.000 C 
ATOM     12  O   UNL     1       0.788   7.752  20.686  0.00  0.00    +0.000 OA
ENDBRANCH   1  12
BRANCH   4  13
ATOM     13  C   UNL     1       1.855   2.548  21.597  0.00  0.00    +0.000 C 
ATOM     14  O   UNL     1       2.256   1.798  22.468  0.00  0.00    +0.000 OA
BRANCH  13  15
ATOM     15  O   UNL     1       0.542   2.753  21.367  0.00  0.00    +0.000 OA
ATOM     16  H   UNL     1      -0.072   2.155  21.829  0.00  0.00    +0.000 HD
ENDBRANCH  13  15
ENDBRANCH   4  13
BRANCH   7  17
ATOM     17  C   UNL     1       5.977   4.628  18.257  0.00  0.00    +0.000 C 
ATOM     18  O   UNL     1       7.072   4.736  18.823  0.00  0.00    +0.000 OA
BRANCH  17  19
ATOM     19  C   UNL     1       5.906   4.950  16.818  0.00  0.00    +0.000 A 
ATOM     20  C   UNL     1       5.801   6.283  16.419  0.00  0.00    +0.000 A 
ATOM     21  F   UNL     1       5.923   7.289  17.299  0.00  0.00    +0.000 F 
ATOM     22  C   UNL     1       5.568   6.617  15.086  0.00  0.00    +0.000 A 
ATOM     23  C   UNL     1       5.478   5.613  14.120  0.00  0.00    +0.000 A 
ATOM     24  C   UNL     1       5.670   4.281  14.487  0.00  0.00    +0.000 A 
ATOM     25  C   UNL     1       5.838   3.957  15.842  0.00  0.00    +0.000 A 
ATOM     26  F   UNL     1       5.893   2.659  16.184  0.00  0.00    +0.000 F 
BRANCH  24  27
ATOM     27  O   UNL     1       5.691   3.223  13.622  0.00  0.00    +0.000 OA
BRANCH  27  28
ATOM     28  C   UNL     1       5.861   3.470  12.220  0.00  0.00    +0.000 C 
ATOM     29  C   UNL     1       6.797   2.454  11.562  0.00  0.00    +0.000 C 
ATOM     30  C   UNL     1       4.472   3.337  11.595  0.00  0.00    +0.000 C 
ENDBRANCH  27  28
ENDBRANCH  24  27
ENDBRANCH  17  19
ENDBRANCH   7  17
BRANCH  10  31
ATOM     31  O   UNL     1       2.763   8.469  18.600  0.00  0.00    +0.000 OA
ATOM     32  C   UNL     1       1.738   9.016  17.792  0.00  0.00    +0.000 C 
ENDBRANCH  10  31
TORSDOF 8
ENDMDL
MODEL 3
REMARK VINA RESULT:      -7.4      2.684      8.880
REMARK  Name = 
REMARK  12 active torsions:
REMARK  status: ('A' for Active; 'I' for Inactive)
REMARK    1  A    between atoms: C_1  and  O_2
REMARK    2  A    between atoms: O_2  and  C_3
REMARK    3  A    between atoms: C_6  and  C_7
REMARK    4  A    between atoms: C_7  and  O_9
REMARK    5  A    between atoms: C_12  and  C_13
REMARK    6  A    between atoms: C_13  and  C_15
REMARK    7  A    between atoms: C_20  and  O_21
REMARK    8  A    between atoms: O_21  and  C_22
REMARK    9  A    between atoms: C_22  and  C_23
REMARK   10  A    between atoms: C_22  and  C_24
REMARK   11  A    between atoms: C_29  and  O_30
REMARK   12  A    between atoms: O_30  and  C_31
REMARK                            x       y       z     vdW  Elec       q    Type
REMARK                         _______ _______ _______ _____ _____    ______ ____
ROOT
ATOM      1  C   UNL     1      -3.425  11.315  17.688  0.00  0.00    +0.000 A 
ATOM      2  C   UNL     1      -3.105  11.927  18.920  0.00  0.00    +0.000 A 
ATOM      3  C   UNL     1      -1.865  11.731  19.587  0.00  0.00    +0.000 A 
ATOM      4  C   UNL     1      -1.466  12.395  20.782  0.00  0.00    +0.000 A 
ATOM      5  C   UNL     1      -0.166  12.226  21.242  0.00  0.00    +0.000 A 
ATOM      6  N   UNL     1       0.758  11.448  20.643  0.00  0.00    +0.000 NA
ATOM      7  C   UNL     1       0.368  10.773  19.538  0.00  0.00    +0.000 A 
ATOM      8  C   UNL     1      -0.934  10.855  18.974  0.00  0.00    +0.000 A 
ATOM      9  C   UNL     1      -1.345  10.132  17.833  0.00  0.00    +0.000 A 
ATOM     10  C   UNL     1      -2.553  10.363  17.166  0.00  0.00    +0.000 A 
ENDROOT
BRANCH   1  12
ATOM     11  C   UNL     1      -5.795  11.436  17.761  0.00  0.00    +0.000 C 
ATOM     12  O   UNL     1      -4.582  11.616  17.024  0.00  0.00    +0.000 OA
ENDBRANCH   1  12
BRANCH   4  13
ATOM     13  C   UNL     1      -2.275  13.353  21.575  0.00  0.00    +0.000 C 
ATOM     14  O   UNL     1      -1.947  14.518  21.705  0.00  0.00    +0.000 OA
BRANCH  13  15
ATOM     15  O   UNL     1      -3.349  12.830  22.201  0.00  0.00    +0.000 OA
ATOM     16  H   UNL     1      -3.373  12.936  23.169  0.00  0.00    +0.000 HD
ENDBRANCH  13  15
ENDBRANCH   4  13
BRANCH   7  17
ATOM     17  C   UNL     1       1.481  10.041  18.855  0.00  0.00    +0.000 C 
ATOM     18  O   UNL     1       2.225  10.630  18.062  0.00  0.00    +0.000 OA
BRANCH  17  19
ATOM     19  C   UNL     1       1.737   8.610  19.115  0.00  0.00    +0.000 A 
ATOM     20  C   UNL     1       1.409   8.071  20.359  0.00  0.00    +0.000 A 
ATOM     21  F   UNL     1       0.722   8.778  21.271  0.00  0.00    +0.000 F 
ATOM     22  C   UNL     1       1.783   6.773  20.700  0.00  0.00    +0.000 A 
ATOM     23  C   UNL     1       2.458   5.975  19.774  0.00  0.00    +0.000 A 
ATOM     24  C   UNL     1       2.714   6.467  18.494  0.00  0.00    +0.000 A 
ATOM     25  C   UNL     1       2.391   7.798  18.191  0.00  0.00    +0.000 A 
ATOM     26  F   UNL     1       2.762   8.286  16.996  0.00  0.00    +0.000 F 
BRANCH  24  27
ATOM     27  O   UNL     1       3.289   5.755  17.479  0.00  0.00    +0.000 OA
BRANCH  27  28
ATOM     28  C   UNL     1       3.613   4.374  17.690  0.00  0.00    +0.000 C 
ATOM     29  C   UNL     1       2.488   3.440  17.243  0.00  0.00    +0.000 C 
ATOM     30  C   UNL     1       4.853   4.095  16.839  0.00  0.00    +0.000 C 
ENDBRANCH  27  28
ENDBRANCH  24  27
ENDBRANCH  17  19
ENDBRANCH   7  17
BRANCH  10  31
ATOM     31  O   UNL     1      -2.656   9.590  16.046  0.00  0.00    +0.000 OA
ATOM     32  C   UNL     1      -2.922  10.170  14.782  0.00  0.00    +0.000 C 
ENDBRANCH  10  31
TORSDOF 8
ENDMDL
MODEL 4
REMARK VINA RESULT:      -7.4      2.657      8.879
REMARK  Name = 
REMARK  12 active torsions:
REMARK  status: ('A' for Active; 'I' for Inactive)
REMARK    1  A    between atoms: C_1  and  O_2
REMARK    2  A    between atoms: O_2  and  C_3
REMARK    3  A    between atoms: C_6  and  C_7
REMARK    4  A    between atoms: C_7  and  O_9
REMARK    5  A    between atoms: C_12  and  C_13
REMARK    6  A    between atoms: C_13  and  C_15
REMARK    7  A    between atoms: C_20  and  O_21
REMARK    8  A    between atoms: O_21  and  C_22
REMARK    9  A    between atoms: C_22  and  C_23
REMARK   10  A    between atoms: C_22  and  C_24
REMARK   11  A    between atoms: C_29  and  O_30
REMARK   12  A    between atoms: O_30  and  C_31
REMARK                            x       y       z     vdW  Elec       q    Type
REMARK                         _______ _______ _______ _____ _____    ______ ____
ROOT
ATOM      1  C   UNL     1      -1.967  13.454  21.407  0.00  0.00    +0.000 A 
ATOM      2  C   UNL     1      -2.720  12.906  20.346  0.00  0.00    +0.000 A 
ATOM      3  C   UNL     1      -2.156  12.077  19.339  0.00  0.00    +0.000 A 
ATOM      4  C   UNL     1      -2.893  11.432  18.304  0.00  0.00    +0.000 A 
ATOM      5  C   UNL     1      -2.238  10.526  17.479  0.00  0.00    +0.000 A 
ATOM      6  N   UNL     1      -0.928  10.223  17.571  0.00  0.00    +0.000 NA
ATOM      7  C   UNL     1      -0.212  10.872  18.517  0.00  0.00    +0.000 A 
ATOM      8  C   UNL     1      -0.763  11.826  19.415  0.00  0.00    +0.000 A 
ATOM      9  C   UNL     1      -0.009  12.518  20.388  0.00  0.00    +0.000 A 
ATOM     10  C   UNL     1      -0.582  13.301  21.396  0.00  0.00    +0.000 A 
ENDROOT
BRANCH   1  12
ATOM     11  C   UNL     1      -2.671  15.568  22.227  0.00  0.00    +0.000 C 
ATOM     12  O   UNL     1      -2.566  14.154  22.418  0.00  0.00    +0.000 OA
ENDBRANCH   1  12
BRANCH   4  13
ATOM     13  C   UNL     1      -4.350  11.549  18.050  0.00  0.00    +0.000 C 
ATOM     14  O   UNL     1      -5.169  10.948  18.722  0.00  0.00    +0.000 OA
BRANCH  13  15
ATOM     15  O   UNL     1      -4.698  12.298  16.984  0.00  0.00    +0.000 OA
ATOM     16  H   UNL     1      -4.673  13.263  17.114  0.00  0.00    +0.000 HD
ENDBRANCH  13  15
ENDBRANCH   4  13
BRANCH   7  17
ATOM     17  C   UNL     1       1.196  10.385  18.646  0.00  0.00    +0.000 C 
ATOM     18  O   UNL     1       2.146  11.140  18.405  0.00  0.00    +0.000 OA
BRANCH  17  19
ATOM     19  C   UNL     1       1.499   9.006  19.079  0.00  0.00    +0.000 A 
ATOM     20  C   UNL     1       1.144   8.598  20.365  0.00  0.00    +0.000 A 
ATOM     21  F   UNL     1       0.393   9.372  21.164  0.00  0.00    +0.000 F 
ATOM     22  C   UNL     1       1.556   7.364  20.866  0.00  0.00    +0.000 A 
ATOM     23  C   UNL     1       2.299   6.497  20.062  0.00  0.00    +0.000 A 
ATOM     24  C   UNL     1       2.586   6.851  18.744  0.00  0.00    +0.000 A 
ATOM     25  C   UNL     1       2.222   8.124  18.278  0.00  0.00    +0.000 A 
ATOM     26  F   UNL     1       2.621   8.488  17.048  0.00  0.00    +0.000 F 
BRANCH  24  27
ATOM     27  O   UNL     1       3.229   6.054  17.838  0.00  0.00    +0.000 OA
BRANCH  27  28
ATOM     28  C   UNL     1       4.659   6.109  17.753  0.00  0.00    +0.000 C 
ATOM     29  C   UNL     1       5.333   5.069  18.650  0.00  0.00    +0.000 C 
ATOM     30  C   UNL     1       5.009   5.802  16.296  0.00  0.00    +0.000 C 
ENDBRANCH  27  28
ENDBRANCH  24  27
ENDBRANCH  17  19
ENDBRANCH   7  17
BRANCH  10  31
ATOM     31  O   UNL     1       0.367  13.780  22.251  0.00  0.00    +0.000 OA
ATOM     32  C   UNL     1       1.338  14.713  21.815  0.00  0.00    +0.000 C 
ENDBRANCH  10  31
TORSDOF 8
ENDMDL
MODEL 5
REMARK VINA RESULT:      -7.3      2.769      6.638
REMARK  Name = 
REMARK  12 active torsions:
REMARK  status: ('A' for Active; 'I' for Inactive)
REMARK    1  A    between atoms: C_1  and  O_2
REMARK    2  A    between atoms: O_2  and  C_3
REMARK    3  A    between atoms: C_6  and  C_7
REMARK    4  A    between atoms: C_7  and  O_9
REMARK    5  A    between atoms: C_12  and  C_13
REMARK    6  A    between atoms: C_13  and  C_15
REMARK    7  A    between atoms: C_20  and  O_21
REMARK    8  A    between atoms: O_21  and  C_22
REMARK    9  A    between atoms: C_22  and  C_23
REMARK   10  A    between atoms: C_22  and  C_24
REMARK   11  A    between atoms: C_29  and  O_30
REMARK   12  A    between atoms: O_30  and  C_31
REMARK                            x       y       z     vdW  Elec       q    Type
REMARK                         _______ _______ _______ _____ _____    ______ ____
ROOT
ATOM      1  C   UNL     1       1.403   7.519  20.400  0.00  0.00    +0.000 A 
ATOM      2  C   UNL     1       1.492   6.135  20.667  0.00  0.00    +0.000 A 
ATOM      3  C   UNL     1       2.321   5.251  19.925  0.00  0.00    +0.000 A 
ATOM      4  C   UNL     1       2.509   3.870  20.215  0.00  0.00    +0.000 A 
ATOM      5  C   UNL     1       3.467   3.159  19.503  0.00  0.00    +0.000 A 
ATOM      6  N   UNL     1       4.231   3.682  18.523  0.00  0.00    +0.000 NA
ATOM      7  C   UNL     1       4.019   4.980  18.207  0.00  0.00    +0.000 A 
ATOM      8  C   UNL     1       3.064   5.810  18.854  0.00  0.00    +0.000 A 
ATOM      9  C   UNL     1       2.830   7.159  18.508  0.00  0.00    +0.000 A 
ATOM     10  C   UNL     1       2.039   8.026  19.270  0.00  0.00    +0.000 A 
ENDROOT
BRANCH   1  12
ATOM     11  C   UNL     1       1.425   9.084  22.185  0.00  0.00    +0.000 C 
ATOM     12  O   UNL     1       0.679   8.354  21.207  0.00  0.00    +0.000 OA
ENDBRANCH   1  12
BRANCH   4  13
ATOM     13  C   UNL     1       1.843   3.092  21.289  0.00  0.00    +0.000 C 
ATOM     14  O   UNL     1       2.443   2.724  22.282  0.00  0.00    +0.000 OA
BRANCH  13  15
ATOM     15  O   UNL     1       0.559   2.756  21.054  0.00  0.00    +0.000 OA
ATOM     16  H   UNL     1       0.301   2.682  20.117  0.00  0.00    +0.000 HD
ENDBRANCH  13  15
ENDBRANCH   4  13
BRANCH   7  17
ATOM     17  C   UNL     1       4.993   5.524  17.209  0.00  0.00    +0.000 C 
ATOM     18  O   UNL     1       4.759   5.444  15.997  0.00  0.00    +0.000 OA
BRANCH  17  19
ATOM     19  C   UNL     1       6.244   6.183  17.633  0.00  0.00    +0.000 A 
ATOM     20  C   UNL     1       7.244   5.426  18.245  0.00  0.00    +0.000 A 
ATOM     21  F   UNL     1       7.165   4.088  18.316  0.00  0.00    +0.000 F 
ATOM     22  C   UNL     1       8.365   6.037  18.805  0.00  0.00    +0.000 A 
ATOM     23  C   UNL     1       8.521   7.422  18.719  0.00  0.00    +0.000 A 
ATOM     24  C   UNL     1       7.577   8.183  18.032  0.00  0.00    +0.000 A 
ATOM     25  C   UNL     1       6.422   7.562  17.533  0.00  0.00    +0.000 A 
ATOM     26  F   UNL     1       5.468   8.336  16.989  0.00  0.00    +0.000 F 
BRANCH  24  27
ATOM     27  O   UNL     1       7.664   9.529  17.809  0.00  0.00    +0.000 OA
BRANCH  27  28
ATOM     28  C   UNL     1       8.899  10.204  18.083  0.00  0.00    +0.000 C 
ATOM     29  C   UNL     1       8.860  11.676  17.668  0.00  0.00    +0.000 C 
ATOM     30  C   UNL     1       9.098  10.124  19.597  0.00  0.00    +0.000 C 
ENDBRANCH  27  28
ENDBRANCH  24  27
ENDBRANCH  17  19
ENDBRANCH   7  17
BRANCH  10  31
ATOM     31  O   UNL     1       2.056   9.291  18.758  0.00  0.00    +0.000 OA
ATOM     32  C   UNL     1       0.950   9.800  18.037  0.00  0.00    +0.000 C 
ENDBRANCH  10  31
TORSDOF 8
ENDMDL
MODEL 6
REMARK VINA RESULT:      -7.1      3.438      9.667
REMARK  Name = 
REMARK  12 active torsions:
REMARK  status: ('A' for Active; 'I' for Inactive)
REMARK    1  A    between atoms: C_1  and  O_2
REMARK    2  A    between atoms: O_2  and  C_3
REMARK    3  A    between atoms: C_6  and  C_7
REMARK    4  A    between atoms: C_7  and  O_9
REMARK    5  A    between atoms: C_12  and  C_13
REMARK    6  A    between atoms: C_13  and  C_15
REMARK    7  A    between atoms: C_20  and  O_21
REMARK    8  A    between atoms: O_21  and  C_22
REMARK    9  A    between atoms: C_22  and  C_23
REMARK   10  A    between atoms: C_22  and  C_24
REMARK   11  A    between atoms: C_29  and  O_30
REMARK   12  A    between atoms: O_30  and  C_31
REMARK                            x       y       z     vdW  Elec       q    Type
REMARK                         _______ _______ _______ _____ _____    ______ ____
ROOT
ATOM      1  C   UNL     1      -4.836  12.122  17.881  0.00  0.00    +0.000 A 
ATOM      2  C   UNL     1      -5.126  12.434  19.227  0.00  0.00    +0.000 A 
ATOM      3  C   UNL     1      -4.154  12.387  20.263  0.00  0.00    +0.000 A 
ATOM      4  C   UNL     1      -4.380  12.777  21.614  0.00  0.00    +0.000 A 
ATOM      5  C   UNL     1      -3.300  12.828  22.488  0.00  0.00    +0.000 A 
ATOM      6  N   UNL     1      -2.035  12.506  22.152  0.00  0.00    +0.000 NA
ATOM      7  C   UNL     1      -1.824  12.083  20.885  0.00  0.00    +0.000 A 
ATOM      8  C   UNL     1      -2.845  11.980  19.901  0.00  0.00    +0.000 A 
ATOM      9  C   UNL     1      -2.626  11.518  18.585  0.00  0.00    +0.000 A 
ATOM     10  C   UNL     1      -3.582  11.605  17.567  0.00  0.00    +0.000 A 
ENDROOT
BRANCH   1  12
ATOM     11  C   UNL     1      -7.054  12.759  17.318  0.00  0.00    +0.000 C 
ATOM     12  O   UNL     1      -5.771  12.287  16.895  0.00  0.00    +0.000 OA
ENDBRANCH   1  12
BRANCH   4  13
ATOM     13  C   UNL     1      -5.662  13.242  22.199  0.00  0.00    +0.000 C 
ATOM     14  O   UNL     1      -6.435  12.475  22.743  0.00  0.00    +0.000 OA
BRANCH  13  15
ATOM     15  O   UNL     1      -5.945  14.548  22.017  0.00  0.00    +0.000 OA
ATOM     16  H   UNL     1      -5.180  15.150  21.984  0.00  0.00    +0.000 HD
ENDBRANCH  13  15
ENDBRANCH   4  13
BRANCH   7  17
ATOM     17  C   UNL     1      -0.381  11.876  20.551  0.00  0.00    +0.000 C 
ATOM     18  O   UNL     1       0.325  12.829  20.201  0.00  0.00    +0.000 OA
BRANCH  17  19
ATOM     19  C   UNL     1       0.249  10.543  20.644  0.00  0.00    +0.000 A 
ATOM     20  C   UNL     1       0.427   9.956  21.897  0.00  0.00    +0.000 A 
ATOM     21  F   UNL     1      -0.102  10.496  23.006  0.00  0.00    +0.000 F 
ATOM     22  C   UNL     1       1.160   8.780  22.041  0.00  0.00    +0.000 A 
ATOM     23  C   UNL     1       1.694   8.148  20.915  0.00  0.00    +0.000 A 
ATOM     24  C   UNL     1       1.450   8.673  19.647  0.00  0.00    +0.000 A 
ATOM     25  C   UNL     1       0.767   9.893  19.526  0.00  0.00    +0.000 A 
ATOM     26  F   UNL     1       0.656  10.441  18.305  0.00  0.00    +0.000 F 
BRANCH  24  27
ATOM     27  O   UNL     1       1.846   8.101  18.470  0.00  0.00    +0.000 OA
BRANCH  27  28
ATOM     28  C   UNL     1       2.778   7.012  18.501  0.00  0.00    +0.000 C 
ATOM     29  C   UNL     1       2.122   5.677  18.146  0.00  0.00    +0.000 C 
ATOM     30  C   UNL     1       3.841   7.334  17.449  0.00  0.00    +0.000 C 
ENDBRANCH  27  28
ENDBRANCH  24  27
ENDBRANCH  17  19
ENDBRANCH   7  17
BRANCH  10  31
ATOM     31  O   UNL     1      -3.078  11.169  16.376  0.00  0.00    +0.000 OA
ATOM     32  C   UNL     1      -2.610   9.842  16.225  0.00  0.00    +0.000 C 
ENDBRANCH  10  31
TORSDOF 8
ENDMDL
MODEL 7
REMARK VINA RESULT:      -7.1      2.240      4.307
REMARK  Name = 
REMARK  12 active torsions:
REMARK  status: ('A' for Active; 'I' for Inactive)
REMARK    1  A    between atoms: C_1  and  O_2
REMARK    2  A    between atoms: O_2  and  C_3
REMARK    3  A    between atoms: C_6  and  C_7
REMARK    4  A    between atoms: C_7  and  O_9
REMARK    5  A    between atoms: C_12  and  C_13
REMARK    6  A    between atoms: C_13  and  C_15
REMARK    7  A    between atoms: C_20  and  O_21
REMARK    8  A    between atoms: O_21  and  C_22
REMARK    9  A    between atoms: C_22  and  C_23
REMARK   10  A    between atoms: C_22  and  C_24
REMARK   11  A    between atoms: C_29  and  O_30
REMARK   12  A    between atoms: O_30  and  C_31
REMARK                            x       y       z     vdW  Elec       q    Type
REMARK                         _______ _______ _______ _____ _____    ______ ____
ROOT
ATOM      1  C   UNL     1       3.441   3.786  19.100  0.00  0.00    +0.000 A 
ATOM      2  C   UNL     1       4.020   4.700  18.194  0.00  0.00    +0.000 A 
ATOM      3  C   UNL     1       3.602   6.054  18.080  0.00  0.00    +0.000 A 
ATOM      4  C   UNL     1       4.216   7.032  17.246  0.00  0.00    +0.000 A 
ATOM      5  C   UNL     1       3.803   8.355  17.348  0.00  0.00    +0.000 A 
ATOM      6  N   UNL     1       2.831   8.787  18.176  0.00  0.00    +0.000 NA
ATOM      7  C   UNL     1       2.208   7.854  18.931  0.00  0.00    +0.000 A 
ATOM      8  C   UNL     1       2.532   6.470  18.912  0.00  0.00    +0.000 A 
ATOM      9  C   UNL     1       1.866   5.495  19.686  0.00  0.00    +0.000 A 
ATOM     10  C   UNL     1       2.312   4.175  19.816  0.00  0.00    +0.000 A 
ENDROOT
BRANCH   1  12
ATOM     11  C   UNL     1       3.535   1.556  18.287  0.00  0.00    +0.000 C 
ATOM     12  O   UNL     1       3.946   2.524  19.258  0.00  0.00    +0.000 OA
ENDBRANCH   1  12
BRANCH   4  13
ATOM     13  C   UNL     1       5.347   6.814  16.312  0.00  0.00    +0.000 C 
ATOM     14  O   UNL     1       5.182   6.348  15.199  0.00  0.00    +0.000 OA
BRANCH  13  15
ATOM     15  O   UNL     1       6.571   7.092  16.806  0.00  0.00    +0.000 OA
ATOM     16  H   UNL     1       6.637   7.154  17.776  0.00  0.00    +0.000 HD
ENDBRANCH  13  15
ENDBRANCH   4  13
BRANCH   7  17
ATOM     17  C   UNL     1       1.240   8.426  19.918  0.00  0.00    +0.000 C 
ATOM     18  O   UNL     1       1.021   7.847  20.989  0.00  0.00    +0.000 OA
BRANCH  17  19
ATOM     19  C   UNL     1       0.534   9.697  19.659  0.00  0.00    +0.000 A 
ATOM     20  C   UNL     1       0.538  10.694  20.635  0.00  0.00    +0.000 A 
ATOM     21  F   UNL     1       1.298  10.593  21.737  0.00  0.00    +0.000 F 
ATOM     22  C   UNL     1      -0.249  11.836  20.497  0.00  0.00    +0.000 A 
ATOM     23  C   UNL     1      -1.024  12.015  19.349  0.00  0.00    +0.000 A 
ATOM     24  C   UNL     1      -0.970  11.072  18.324  0.00  0.00    +0.000 A 
ATOM     25  C   UNL     1      -0.225   9.897  18.508  0.00  0.00    +0.000 A 
ATOM     26  F   UNL     1      -0.292   8.947  17.560  0.00  0.00    +0.000 F 
BRANCH  24  27
ATOM     27  O   UNL     1      -1.614  11.178  17.122  0.00  0.00    +0.000 OA
BRANCH  27  28
ATOM     28  C   UNL     1      -2.881  10.530  16.949  0.00  0.00    +0.000 C 
ATOM     29  C   UNL     1      -4.055  11.466  17.243  0.00  0.00    +0.000 C 
ATOM     30  C   UNL     1      -2.944  10.108  15.481  0.00  0.00    +0.000 C 
ENDBRANCH  27  28
ENDBRANCH  24  27
ENDBRANCH  17  19
ENDBRANCH   7  17
BRANCH  10  31
ATOM     31  O   UNL     1       1.534   3.474  20.692  0.00  0.00    +0.000 OA
ATOM     32  C   UNL     1       2.059   3.010  21.922  0.00  0.00    +0.000 C 
ENDBRANCH  10  31
TORSDOF 8
ENDMDL
MODEL 8
REMARK VINA RESULT:      -7.1      2.658      8.763
REMARK  Name = 
REMARK  12 active torsions:
REMARK  status: ('A' for Active; 'I' for Inactive)
REMARK    1  A    between atoms: C_1  and  O_2
REMARK    2  A    between atoms: O_2  and  C_3
REMARK    3  A    between atoms: C_6  and  C_7
REMARK    4  A    between atoms: C_7  and  O_9
REMARK    5  A    between atoms: C_12  and  C_13
REMARK    6  A    between atoms: C_13  and  C_15
REMARK    7  A    between atoms: C_20  and  O_21
REMARK    8  A    between atoms: O_21  and  C_22
REMARK    9  A    between atoms: C_22  and  C_23
REMARK   10  A    between atoms: C_22  and  C_24
REMARK   11  A    between atoms: C_29  and  O_30
REMARK   12  A    between atoms: O_30  and  C_31
REMARK                            x       y       z     vdW  Elec       q    Type
REMARK                         _______ _______ _______ _____ _____    ______ ____
ROOT
ATOM      1  C   UNL     1      -3.169  11.346  17.780  0.00  0.00    +0.000 A 
ATOM      2  C   UNL     1      -2.643  11.891  18.972  0.00  0.00    +0.000 A 
ATOM      3  C   UNL     1      -1.386  11.508  19.514  0.00  0.00    +0.000 A 
ATOM      4  C   UNL     1      -0.778  12.095  20.661  0.00  0.00    +0.000 A 
ATOM      5  C   UNL     1       0.522  11.732  20.991  0.00  0.00    +0.000 A 
ATOM      6  N   UNL     1       1.257  10.832  20.308  0.00  0.00    +0.000 NA
ATOM      7  C   UNL     1       0.665  10.232  19.250  0.00  0.00    +0.000 A 
ATOM      8  C   UNL     1      -0.660  10.510  18.818  0.00  0.00    +0.000 A 
ATOM      9  C   UNL     1      -1.283   9.867  17.726  0.00  0.00    +0.000 A 
ATOM     10  C   UNL     1      -2.503  10.280  17.180  0.00  0.00    +0.000 A 
ENDROOT
BRANCH   1  12
ATOM     11  C   UNL     1      -5.543  11.335  17.811  0.00  0.00    +0.000 C 
ATOM     12  O   UNL     1      -4.329  11.820  17.232  0.00  0.00    +0.000 OA
ENDBRANCH   1  12
BRANCH   4  13
ATOM     13  C   UNL     1      -1.355  13.155  21.524  0.00  0.00    +0.000 C 
ATOM     14  O   UNL     1      -1.960  12.892  22.547  0.00  0.00    +0.000 OA
BRANCH  13  15
ATOM     15  O   UNL     1      -1.232  14.415  21.060  0.00  0.00    +0.000 OA
ATOM     16  H   UNL     1      -0.963  14.503  20.128  0.00  0.00    +0.000 HD
ENDBRANCH  13  15
ENDBRANCH   4  13
BRANCH   7  17
ATOM     17  C   UNL     1       1.584   9.350  18.466  0.00  0.00    +0.000 C 
ATOM     18  O   UNL     1       2.052   9.734  17.387  0.00  0.00    +0.000 OA
BRANCH  17  19
ATOM     19  C   UNL     1       1.975   8.012  18.955  0.00  0.00    +0.000 A 
ATOM     20  C   UNL     1       1.403   7.518  20.128  0.00  0.00    +0.000 A 
ATOM     21  F   UNL     1       0.392   8.156  20.737  0.00  0.00    +0.000 F 
ATOM     22  C   UNL     1       1.863   6.338  20.708  0.00  0.00    +0.000 A 
ATOM     23  C   UNL     1       2.882   5.608  20.092  0.00  0.00    +0.000 A 
ATOM     24  C   UNL     1       3.402   6.039  18.873  0.00  0.00    +0.000 A 
ATOM     25  C   UNL     1       2.975   7.264  18.336  0.00  0.00    +0.000 A 
ATOM     26  F   UNL     1       3.582   7.719  17.228  0.00  0.00    +0.000 F 
BRANCH  24  27
ATOM     27  O   UNL     1       4.337   5.368  18.134  0.00  0.00    +0.000 OA
BRANCH  27  28
ATOM     28  C   UNL     1       3.900   4.420  17.151  0.00  0.00    +0.000 C 
ATOM     29  C   UNL     1       4.892   4.287  15.994  0.00  0.00    +0.000 C 
ATOM     30  C   UNL     1       3.802   3.076  17.873  0.00  0.00    +0.000 C 
ENDBRANCH  27  28
ENDBRANCH  24  27
ENDBRANCH  17  19
ENDBRANCH   7  17
BRANCH  10  31
ATOM     31  O   UNL     1      -2.829   9.541  16.079  0.00  0.00    +0.000 OA
ATOM     32  C   UNL     1      -2.889  10.134  14.796  0.00  0.00    +0.000 C 
ENDBRANCH  10  31
TORSDOF 8
ENDMDL
MODEL 9
REMARK VINA RESULT:      -7.0      1.906      4.227
REMARK  Name = 
REMARK  12 active torsions:
REMARK  status: ('A' for Active; 'I' for Inactive)
REMARK    1  A    between atoms: C_1  and  O_2
REMARK    2  A    between atoms: O_2  and  C_3
REMARK    3  A    between atoms: C_6  and  C_7
REMARK    4  A    between atoms: C_7  and  O_9
REMARK    5  A    between atoms: C_12  and  C_13
REMARK    6  A    between atoms: C_13  and  C_15
REMARK    7  A    between atoms: C_20  and  O_21
REMARK    8  A    between atoms: O_21  and  C_22
REMARK    9  A    between atoms: C_22  and  C_23
REMARK   10  A    between atoms: C_22  and  C_24
REMARK   11  A    between atoms: C_29  and  O_30
REMARK   12  A    between atoms: O_30  and  C_31
REMARK                            x       y       z     vdW  Elec       q    Type
REMARK                         _______ _______ _______ _____ _____    ______ ____
ROOT
ATOM      1  C   UNL     1       3.032   2.907  18.125  0.00  0.00    +0.000 A 
ATOM      2  C   UNL     1       3.813   3.829  17.395  0.00  0.00    +0.000 A 
ATOM      3  C   UNL     1       3.692   5.237  17.539  0.00  0.00    +0.000 A 
ATOM      4  C   UNL     1       4.519   6.199  16.891  0.00  0.00    +0.000 A 
ATOM      5  C   UNL     1       4.392   7.538  17.241  0.00  0.00    +0.000 A 
ATOM      6  N   UNL     1       3.513   8.006  18.149  0.00  0.00    +0.000 NA
ATOM      7  C   UNL     1       2.689   7.104  18.728  0.00  0.00    +0.000 A 
ATOM      8  C   UNL     1       2.714   5.711  18.449  0.00  0.00    +0.000 A 
ATOM      9  C   UNL     1       1.838   4.773  19.040  0.00  0.00    +0.000 A 
ATOM     10  C   UNL     1       1.993   3.388  18.918  0.00  0.00    +0.000 A 
ENDROOT
BRANCH   1  12
ATOM     11  C   UNL     1       4.168   1.012  18.997  0.00  0.00    +0.000 C 
ATOM     12  O   UNL     1       3.256   1.560  18.040  0.00  0.00    +0.000 OA
ENDBRANCH   1  12
BRANCH   4  13
ATOM     13  C   UNL     1       5.602   5.922  15.916  0.00  0.00    +0.000 C 
ATOM     14  O   UNL     1       6.752   6.270  16.117  0.00  0.00    +0.000 OA
BRANCH  13  15
ATOM     15  O   UNL     1       5.215   5.334  14.766  0.00  0.00    +0.000 OA
ATOM     16  H   UNL     1       4.259   5.354  14.577  0.00  0.00    +0.000 HD
ENDBRANCH  13  15
ENDBRANCH   4  13
BRANCH   7  17
ATOM     17  C   UNL     1       1.839   7.677  19.819  0.00  0.00    +0.000 C 
ATOM     18  O   UNL     1       1.676   7.059  20.878  0.00  0.00    +0.000 OA
BRANCH  17  19
ATOM     19  C   UNL     1       1.185   8.993  19.676  0.00  0.00    +0.000 A 
ATOM     20  C   UNL     1       0.760   9.414  18.416  0.00  0.00    +0.000 A 
ATOM     21  F   UNL     1       0.786   8.591  17.356  0.00  0.00    +0.000 F 
ATOM     22  C   UNL     1       0.290  10.710  18.213  0.00  0.00    +0.000 A 
ATOM     23  C   UNL     1       0.198  11.596  19.289  0.00  0.00    +0.000 A 
ATOM     24  C   UNL     1       0.533  11.164  20.571  0.00  0.00    +0.000 A 
ATOM     25  C   UNL     1       1.067   9.878  20.747  0.00  0.00    +0.000 A 
ATOM     26  F   UNL     1       1.500   9.531  21.970  0.00  0.00    +0.000 F 
BRANCH  24  27
ATOM     27  O   UNL     1       0.403  11.907  21.711  0.00  0.00    +0.000 OA
BRANCH  27  28
ATOM     28  C   UNL     1      -0.909  12.241  22.182  0.00  0.00    +0.000 C 
ATOM     29  C   UNL     1      -1.461  11.192  23.148  0.00  0.00    +0.000 C 
ATOM     30  C   UNL     1      -0.768  13.570  22.925  0.00  0.00    +0.000 C 
ENDBRANCH  27  28
ENDBRANCH  24  27
ENDBRANCH  17  19
ENDBRANCH   7  17
BRANCH  10  31
ATOM     31  O   UNL     1       1.064   2.719  19.660  0.00  0.00    +0.000 OA
ATOM     32  C   UNL     1       1.148   2.682  21.072  0.00  0.00    +0.000 C 
ENDBRANCH  10  31
TORSDOF 8
ENDMDL
