MODEL 1
REMARK VINA RESULT:      -9.4      0.000      0.000
REMARK  Name = 
REMARK  8 active torsions:
REMARK  status: ('A' for Active; 'I' for Inactive)
REMARK    1  A    between atoms: C_2  and  C_3
REMARK    2  A    between atoms: C_3  and  C_4
REMARK    3  A    between atoms: C_7  and  N_8
REMARK    4  A    between atoms: C_9  and  C_11
REMARK    5  A    between atoms: C_16  and  S_17
REMARK    6  A    between atoms: S_17  and  C_18
REMARK    7  A    between atoms: C_22  and  C_23
REMARK    8  A    between atoms: C_24  and  C_25
REMARK                            x       y       z     vdW  Elec       q    Type
REMARK                         _______ _______ _______ _____ _____    ______ ____
ROOT
ATOM      1  C   UNL     1       2.423   4.591  19.669  0.00  0.00    +0.000 A 
ATOM      2  C   UNL     1       2.135   4.390  21.041  0.00  0.00    +0.000 A 
ATOM      3  C   UNL     1       2.426   3.193  21.683  0.00  0.00    +0.000 A 
ATOM      4  C   UNL     1       2.995   2.159  20.958  0.00  0.00    +0.000 A 
ATOM      5  C   UNL     1       3.259   2.327  19.593  0.00  0.00    +0.000 A 
ATOM      6  C   UNL     1       2.992   3.543  18.931  0.00  0.00    +0.000 A 
ENDROOT
BRANCH   1   8
ATOM      7  N   UNL     1       2.145   7.050  20.102  0.00  0.00    +0.000 N 
ATOM      8  C   UNL     1       2.141   5.984  19.219  0.00  0.00    +0.000 C 
ATOM      9  O   UNL     1       1.854   6.105  18.024  0.00  0.00    +0.000 OA
ATOM     10  H   UNL     1       2.159   6.861  21.093  0.00  0.00    +0.000 HD
BRANCH   7  14
ATOM     11  C   UNL     1       1.041  10.936  18.818  0.00  0.00    +0.000 A 
ATOM     12  C   UNL     1       0.550  10.403  20.021  0.00  0.00    +0.000 A 
ATOM     13  C   UNL     1       0.961   9.139  20.463  0.00  0.00    +0.000 A 
ATOM     14  C   UNL     1       1.803   8.359  19.672  0.00  0.00    +0.000 A 
ATOM     15  C   UNL     1       2.260   8.882  18.451  0.00  0.00    +0.000 A 
ATOM     16  C   UNL     1       1.876  10.151  18.021  0.00  0.00    +0.000 A 
BRANCH  11  17
ATOM     17  C   UNL     1       0.827  12.391  18.472  0.00  0.00    +0.000 C 
BRANCH  17  19
ATOM     18  N   UNL     1       3.159  13.609  18.312  0.00  0.00    +0.000 NA
ATOM     19  C   UNL     1       2.126  13.083  18.382  0.00  0.00    +0.000 C 
ENDBRANCH  17  19
ENDBRANCH  11  17
ENDBRANCH   7  14
ENDBRANCH   1   8
BRANCH   6  20
ATOM     20  S   UNL     1       3.259   3.578  17.176  0.00  0.00    +0.000 S 
BRANCH  20  21
ATOM     21  C   UNL     1       4.834   4.397  16.933  0.00  0.00    +0.000 A 
ATOM     22  C   UNL     1       4.892   5.544  16.139  0.00  0.00    +0.000 A 
ATOM     23  C   UNL     1       5.905   6.499  16.322  0.00  0.00    +0.000 A 
ATOM     24  C   UNL     1       6.796   6.361  17.408  0.00  0.00    +0.000 A 
ATOM     25  C   UNL     1       7.720   7.188  18.149  0.00  0.00    +0.000 A 
ATOM     26  N   UNL     1       8.342   6.460  19.094  0.00  0.00    +0.000 NA
ATOM     27  N   UNL     1       7.847   5.219  18.946  0.00  0.00    +0.000 N 
ATOM     28  C   UNL     1       6.815   5.127  18.056  0.00  0.00    +0.000 A 
ATOM     29  C   UNL     1       5.889   4.100  17.806  0.00  0.00    +0.000 A 
ATOM     30  H   UNL     1       8.219   4.481  19.534  0.00  0.00    +0.000 HD
BRANCH  25  31
ATOM     31  C   UNL     1       7.998   8.606  18.006  0.00  0.00    +0.000 C 
ATOM     32  C   UNL     1       8.905   9.293  18.722  0.00  0.00    +0.000 C 
BRANCH  32  33
ATOM     33  C   UNL     1       9.154  10.729  18.889  0.00  0.00    +0.000 A 
ATOM     34  C   UNL     1       9.583  11.383  20.027  0.00  0.00    +0.000 A 
ATOM     35  C   UNL     1       9.651  12.790  20.006  0.00  0.00    +0.000 A 
ATOM     36  C   UNL     1       9.286  13.480  18.849  0.00  0.00    +0.000 A 
ATOM     37  C   UNL     1       8.867  12.744  17.764  0.00  0.00    +0.000 A 
ATOM     38  N   UNL     1       8.785  11.399  17.767  0.00  0.00    +0.000 NA
ENDBRANCH  32  33
ENDBRANCH  25  31
ENDBRANCH  20  21
ENDBRANCH   6  20
TORSDOF 8
ENDMDL
MODEL 2
REMARK VINA RESULT:      -9.1      1.073      1.282
REMARK  Name = 
REMARK  8 active torsions:
REMARK  status: ('A' for Active; 'I' for Inactive)
REMARK    1  A    between atoms: C_2  and  C_3
REMARK    2  A    between atoms: C_3  and  C_4
REMARK    3  A    between atoms: C_7  and  N_8
REMARK    4  A    between atoms: C_9  and  C_11
REMARK    5  A    between atoms: C_16  and  S_17
REMARK    6  A    between atoms: S_17  and  C_18
REMARK    7  A    between atoms: C_22  and  C_23
REMARK    8  A    between atoms: C_24  and  C_25
REMARK                            x       y       z     vdW  Elec       q    Type
REMARK                         _______ _______ _______ _____ _____    ______ ____
ROOT
ATOM      1  C   UNL     1       2.344   4.569  19.967  0.00  0.00    +0.000 A 
ATOM      2  C   UNL     1       2.122   4.165  21.306  0.00  0.00    +0.000 A 
ATOM      3  C   UNL     1       2.362   2.864  21.728  0.00  0.00    +0.000 A 
ATOM      4  C   UNL     1       2.812   1.928  20.810  0.00  0.00    +0.000 A 
ATOM      5  C   UNL     1       3.008   2.301  19.475  0.00  0.00    +0.000 A 
ATOM      6  C   UNL     1       2.793   3.623  19.034  0.00  0.00    +0.000 A 
ENDROOT
BRANCH   1   8
ATOM      7  N   UNL     1       1.706   6.855  20.790  0.00  0.00    +0.000 N 
ATOM      8  C   UNL     1       2.139   6.032  19.765  0.00  0.00    +0.000 C 
ATOM      9  O   UNL     1       2.330   6.438  18.614  0.00  0.00    +0.000 OA
ATOM     10  H   UNL     1       1.348   6.434  21.635  0.00  0.00    +0.000 HD
BRANCH   7  14
ATOM     11  C   UNL     1       0.849  10.957  20.145  0.00  0.00    +0.000 A 
ATOM     12  C   UNL     1       0.799  10.399  21.433  0.00  0.00    +0.000 A 
ATOM     13  C   UNL     1       1.134   9.055  21.644  0.00  0.00    +0.000 A 
ATOM     14  C   UNL     1       1.445   8.233  20.562  0.00  0.00    +0.000 A 
ATOM     15  C   UNL     1       1.455   8.786  19.272  0.00  0.00    +0.000 A 
ATOM     16  C   UNL     1       1.150  10.130  19.061  0.00  0.00    +0.000 A 
BRANCH  11  17
ATOM     17  C   UNL     1       0.763  12.451  19.945  0.00  0.00    +0.000 C 
BRANCH  17  19
ATOM     18  N   UNL     1      -0.806  13.017  17.904  0.00  0.00    +0.000 NA
ATOM     19  C   UNL     1      -0.119  12.756  18.803  0.00  0.00    +0.000 C 
ENDBRANCH  17  19
ENDBRANCH  11  17
ENDBRANCH   7  14
ENDBRANCH   1   8
BRANCH   6  20
ATOM     20  S   UNL     1       2.959   3.927  17.294  0.00  0.00    +0.000 S 
BRANCH  20  21
ATOM     21  C   UNL     1       4.628   4.537  17.058  0.00  0.00    +0.000 A 
ATOM     22  C   UNL     1       4.862   5.539  16.113  0.00  0.00    +0.000 A 
ATOM     23  C   UNL     1       5.961   6.403  16.236  0.00  0.00    +0.000 A 
ATOM     24  C   UNL     1       6.763   6.342  17.395  0.00  0.00    +0.000 A 
ATOM     25  C   UNL     1       7.727   7.174  18.079  0.00  0.00    +0.000 A 
ATOM     26  N   UNL     1       8.205   6.538  19.164  0.00  0.00    +0.000 NA
ATOM     27  N   UNL     1       7.585   5.345  19.158  0.00  0.00    +0.000 N 
ATOM     28  C   UNL     1       6.605   5.225  18.213  0.00  0.00    +0.000 A 
ATOM     29  C   UNL     1       5.588   4.270  18.043  0.00  0.00    +0.000 A 
ATOM     30  H   UNL     1       7.835   4.671  19.872  0.00  0.00    +0.000 HD
BRANCH  25  31
ATOM     31  C   UNL     1       8.169   8.518  17.756  0.00  0.00    +0.000 C 
ATOM     32  C   UNL     1       8.836   9.335  18.589  0.00  0.00    +0.000 C 
BRANCH  32  33
ATOM     33  C   UNL     1       9.147  10.768  18.534  0.00  0.00    +0.000 A 
ATOM     34  C   UNL     1       8.500  11.744  17.800  0.00  0.00    +0.000 A 
ATOM     35  C   UNL     1       9.033  13.047  17.804  0.00  0.00    +0.000 A 
ATOM     36  C   UNL     1      10.188  13.318  18.539  0.00  0.00    +0.000 A 
ATOM     37  C   UNL     1      10.765  12.282  19.238  0.00  0.00    +0.000 A 
ATOM     38  N   UNL     1      10.278  11.026  19.239  0.00  0.00    +0.000 NA
ENDBRANCH  32  33
ENDBRANCH  25  31
ENDBRANCH  20  21
ENDBRANCH   6  20
TORSDOF 8
ENDMDL
MODEL 3
REMARK VINA RESULT:      -8.9      1.510      1.870
REMARK  Name = 
REMARK  8 active torsions:
REMARK  status: ('A' for Active; 'I' for Inactive)
REMARK    1  A    between atoms: C_2  and  C_3
REMARK    2  A    between atoms: C_3  and  C_4
REMARK    3  A    between atoms: C_7  and  N_8
REMARK    4  A    between atoms: C_9  and  C_11
REMARK    5  A    between atoms: C_16  and  S_17
REMARK    6  A    between atoms: S_17  and  C_18
REMARK    7  A    between atoms: C_22  and  C_23
REMARK    8  A    between atoms: C_24  and  C_25
REMARK                            x       y       z     vdW  Elec       q    Type
REMARK                         _______ _______ _______ _____ _____    ______ ____
ROOT
ATOM      1  C   UNL     1       2.158   4.353  20.313  0.00  0.00    +0.000 A 
ATOM      2  C   UNL     1       2.118   3.710  21.574  0.00  0.00    +0.000 A 
ATOM      3  C   UNL     1       2.736   2.486  21.792  0.00  0.00    +0.000 A 
ATOM      4  C   UNL     1       3.395   1.865  20.743  0.00  0.00    +0.000 A 
ATOM      5  C   UNL     1       3.420   2.470  19.481  0.00  0.00    +0.000 A 
ATOM      6  C   UNL     1       2.818   3.724  19.247  0.00  0.00    +0.000 A 
ENDROOT
BRANCH   1   8
ATOM      7  N   UNL     1       2.292   6.859  20.210  0.00  0.00    +0.000 N 
ATOM      8  C   UNL     1       1.535   5.707  20.336  0.00  0.00    +0.000 C 
ATOM      9  O   UNL     1       0.315   5.724  20.527  0.00  0.00    +0.000 OA
ATOM     10  H   UNL     1       3.296   6.793  20.287  0.00  0.00    +0.000 HD
BRANCH   7  14
ATOM     11  C   UNL     1       0.575  10.727  20.466  0.00  0.00    +0.000 A 
ATOM     12  C   UNL     1       1.019  10.210  19.238  0.00  0.00    +0.000 A 
ATOM     13  C   UNL     1       1.538   8.911  19.155  0.00  0.00    +0.000 A 
ATOM     14  C   UNL     1       1.693   8.143  20.307  0.00  0.00    +0.000 A 
ATOM     15  C   UNL     1       1.283   8.680  21.538  0.00  0.00    +0.000 A 
ATOM     16  C   UNL     1       0.740   9.961  21.622  0.00  0.00    +0.000 A 
BRANCH  11  17
ATOM     17  C   UNL     1      -0.232  12.002  20.523  0.00  0.00    +0.000 C 
BRANCH  17  19
ATOM     18  N   UNL     1      -2.368  11.763  18.998  0.00  0.00    +0.000 NA
ATOM     19  C   UNL     1      -1.433  11.877  19.677  0.00  0.00    +0.000 C 
ENDBRANCH  17  19
ENDBRANCH  11  17
ENDBRANCH   7  14
ENDBRANCH   1   8
BRANCH   6  20
ATOM     20  S   UNL     1       2.817   4.315  17.573  0.00  0.00    +0.000 S 
BRANCH  20  21
ATOM     21  C   UNL     1       4.495   4.848  17.238  0.00  0.00    +0.000 A 
ATOM     22  C   UNL     1       4.715   5.862  16.303  0.00  0.00    +0.000 A 
ATOM     23  C   UNL     1       5.863   6.668  16.370  0.00  0.00    +0.000 A 
ATOM     24  C   UNL     1       6.736   6.537  17.471  0.00  0.00    +0.000 A 
ATOM     25  C   UNL     1       7.784   7.303  18.106  0.00  0.00    +0.000 A 
ATOM     26  N   UNL     1       8.301   6.616  19.141  0.00  0.00    +0.000 NA
ATOM     27  N   UNL     1       7.623   5.456  19.150  0.00  0.00    +0.000 N 
ATOM     28  C   UNL     1       6.577   5.408  18.272  0.00  0.00    +0.000 A 
ATOM     29  C   UNL     1       5.504   4.508  18.149  0.00  0.00    +0.000 A 
ATOM     30  H   UNL     1       7.886   4.751  19.830  0.00  0.00    +0.000 HD
BRANCH  25  31
ATOM     31  C   UNL     1       8.271   8.632  17.785  0.00  0.00    +0.000 C 
ATOM     32  C   UNL     1       8.872   9.466  18.650  0.00  0.00    +0.000 C 
BRANCH  32  33
ATOM     33  C   UNL     1       9.205  10.894  18.581  0.00  0.00    +0.000 A 
ATOM     34  C   UNL     1       8.566  11.875  17.848  0.00  0.00    +0.000 A 
ATOM     35  C   UNL     1       9.119  13.169  17.836  0.00  0.00    +0.000 A 
ATOM     36  C   UNL     1      10.288  13.427  18.555  0.00  0.00    +0.000 A 
ATOM     37  C   UNL     1      10.857  12.387  19.254  0.00  0.00    +0.000 A 
ATOM     38  N   UNL     1      10.349  11.138  19.270  0.00  0.00    +0.000 NA
ENDBRANCH  32  33
ENDBRANCH  25  31
ENDBRANCH  20  21
ENDBRANCH   6  20
TORSDOF 8
ENDMDL
MODEL 4
REMARK VINA RESULT:      -8.6      1.265      1.662
REMARK  Name = 
REMARK  8 active torsions:
REMARK  status: ('A' for Active; 'I' for Inactive)
REMARK    1  A    between atoms: C_2  and  C_3
REMARK    2  A    between atoms: C_3  and  C_4
REMARK    3  A    between atoms: C_7  and  N_8
REMARK    4  A    between atoms: C_9  and  C_11
REMARK    5  A    between atoms: C_16  and  S_17
REMARK    6  A    between atoms: S_17  and  C_18
REMARK    7  A    between atoms: C_22  and  C_23
REMARK    8  A    between atoms: C_24  and  C_25
REMARK                            x       y       z     vdW  Elec       q    Type
REMARK                         _______ _______ _______ _____ _____    ______ ____
ROOT
ATOM      1  C   UNL     1       2.782   4.157  19.568  0.00  0.00    +0.000 A 
ATOM      2  C   UNL     1       2.527   3.782  20.910  0.00  0.00    +0.000 A 
ATOM      3  C   UNL     1       3.067   2.629  21.463  0.00  0.00    +0.000 A 
ATOM      4  C   UNL     1       3.862   1.811  20.677  0.00  0.00    +0.000 A 
ATOM      5  C   UNL     1       4.100   2.148  19.340  0.00  0.00    +0.000 A 
ATOM      6  C   UNL     1       3.580   3.327  18.767  0.00  0.00    +0.000 A 
ENDROOT
BRANCH   1   8
ATOM      7  N   UNL     1       2.557   6.636  19.907  0.00  0.00    +0.000 N 
ATOM      8  C   UNL     1       2.203   5.487  19.221  0.00  0.00    +0.000 C 
ATOM      9  O   UNL     1       1.356   5.476  18.322  0.00  0.00    +0.000 OA
ATOM     10  H   UNL     1       3.071   6.548  20.771  0.00  0.00    +0.000 HD
BRANCH   7  14
ATOM     11  C   UNL     1       0.802  10.391  19.017  0.00  0.00    +0.000 A 
ATOM     12  C   UNL     1       1.659   9.756  18.103  0.00  0.00    +0.000 A 
ATOM     13  C   UNL     1       2.193   8.492  18.385  0.00  0.00    +0.000 A 
ATOM     14  C   UNL     1       1.943   7.882  19.613  0.00  0.00    +0.000 A 
ATOM     15  C   UNL     1       1.116   8.540  20.538  0.00  0.00    +0.000 A 
ATOM     16  C   UNL     1       0.560   9.785  20.251  0.00  0.00    +0.000 A 
BRANCH  11  17
ATOM     17  C   UNL     1       0.008  11.611  18.614  0.00  0.00    +0.000 C 
BRANCH  17  19
ATOM     18  N   UNL     1      -1.739  12.233  20.487  0.00  0.00    +0.000 NA
ATOM     19  C   UNL     1      -0.967  11.948  19.667  0.00  0.00    +0.000 C 
ENDBRANCH  17  19
ENDBRANCH  11  17
ENDBRANCH   7  14
ENDBRANCH   1   8
BRANCH   6  20
ATOM     20  S   UNL     1       3.856   3.567  17.031  0.00  0.00    +0.000 S 
BRANCH  20  21
ATOM     21  C   UNL     1       5.386   4.491  16.898  0.00  0.00    +0.000 A 
ATOM     22  C   UNL     1       5.452   5.584  16.032  0.00  0.00    +0.000 A 
ATOM     23  C   UNL     1       6.367   6.625  16.253  0.00  0.00    +0.000 A 
ATOM     24  C   UNL     1       7.138   6.629  17.435  0.00  0.00    +0.000 A 
ATOM     25  C   UNL     1       7.912   7.573  18.208  0.00  0.00    +0.000 A 
ATOM     26  N   UNL     1       8.474   6.959  19.265  0.00  0.00    +0.000 NA
ATOM     27  N   UNL     1       8.088   5.676  19.157  0.00  0.00    +0.000 N 
ATOM     28  C   UNL     1       7.171   5.446  18.170  0.00  0.00    +0.000 A 
ATOM     29  C   UNL     1       6.355   4.334  17.898  0.00  0.00    +0.000 A 
ATOM     30  H   UNL     1       8.443   5.010  19.833  0.00  0.00    +0.000 HD
BRANCH  25  31
ATOM     31  C   UNL     1       8.103   8.995  17.992  0.00  0.00    +0.000 C 
ATOM     32  C   UNL     1       9.118   9.724  18.487  0.00  0.00    +0.000 C 
BRANCH  32  33
ATOM     33  C   UNL     1       9.347  11.170  18.580  0.00  0.00    +0.000 A 
ATOM     34  C   UNL     1       9.915  11.997  17.630  0.00  0.00    +0.000 A 
ATOM     35  C   UNL     1      10.146  13.345  17.967  0.00  0.00    +0.000 A 
ATOM     36  C   UNL     1       9.801  13.807  19.238  0.00  0.00    +0.000 A 
ATOM     37  C   UNL     1       9.242  12.910  20.120  0.00  0.00    +0.000 A 
ATOM     38  N   UNL     1       9.023  11.614  19.821  0.00  0.00    +0.000 NA
ENDBRANCH  32  33
ENDBRANCH  25  31
ENDBRANCH  20  21
ENDBRANCH   6  20
TORSDOF 8
ENDMDL
MODEL 5
REMARK VINA RESULT:      -8.5      1.350      1.645
REMARK  Name = 
REMARK  8 active torsions:
REMARK  status: ('A' for Active; 'I' for Inactive)
REMARK    1  A    between atoms: C_2  and  C_3
REMARK    2  A    between atoms: C_3  and  C_4
REMARK    3  A    between atoms: C_7  and  N_8
REMARK    4  A    between atoms: C_9  and  C_11
REMARK    5  A    between atoms: C_16  and  S_17
REMARK    6  A    between atoms: S_17  and  C_18
REMARK    7  A    between atoms: C_22  and  C_23
REMARK    8  A    between atoms: C_24  and  C_25
REMARK                            x       y       z     vdW  Elec       q    Type
REMARK                         _______ _______ _______ _____ _____    ______ ____
ROOT
ATOM      1  C   UNL     1       2.105   4.653  20.252  0.00  0.00    +0.000 A 
ATOM      2  C   UNL     1       1.984   4.063  21.534  0.00  0.00    +0.000 A 
ATOM      3  C   UNL     1       2.053   2.689  21.717  0.00  0.00    +0.000 A 
ATOM      4  C   UNL     1       2.224   1.868  20.615  0.00  0.00    +0.000 A 
ATOM      5  C   UNL     1       2.315   2.429  19.336  0.00  0.00    +0.000 A 
ATOM      6  C   UNL     1       2.272   3.824  19.133  0.00  0.00    +0.000 A 
ENDROOT
BRANCH   1   8
ATOM      7  N   UNL     1       1.006   6.874  20.663  0.00  0.00    +0.000 N 
ATOM      8  C   UNL     1       2.124   6.143  20.302  0.00  0.00    +0.000 C 
ATOM      9  O   UNL     1       3.185   6.669  19.948  0.00  0.00    +0.000 OA
ATOM     10  H   UNL     1       0.114   6.405  20.716  0.00  0.00    +0.000 HD
BRANCH   7  14
ATOM     11  C   UNL     1       0.964  11.113  20.610  0.00  0.00    +0.000 A 
ATOM     12  C   UNL     1       0.728  10.400  21.797  0.00  0.00    +0.000 A 
ATOM     13  C   UNL     1       0.795   9.000  21.815  0.00  0.00    +0.000 A 
ATOM     14  C   UNL     1       1.019   8.294  20.635  0.00  0.00    +0.000 A 
ATOM     15  C   UNL     1       1.216   9.011  19.444  0.00  0.00    +0.000 A 
ATOM     16  C   UNL     1       1.179  10.404  19.426  0.00  0.00    +0.000 A 
BRANCH  11  17
ATOM     17  C   UNL     1       1.168  12.609  20.634  0.00  0.00    +0.000 C 
BRANCH  17  19
ATOM     18  N   UNL     1      -0.381  13.769  18.844  0.00  0.00    +0.000 NA
ATOM     19  C   UNL     1       0.307  13.251  19.624  0.00  0.00    +0.000 C 
ENDBRANCH  17  19
ENDBRANCH  11  17
ENDBRANCH   7  14
ENDBRANCH   1   8
BRANCH   6  20
ATOM     20  S   UNL     1       2.272   4.392  17.451  0.00  0.00    +0.000 S 
BRANCH  20  21
ATOM     21  C   UNL     1       3.935   4.981  17.131  0.00  0.00    +0.000 A 
ATOM     22  C   UNL     1       4.156   6.350  16.978  0.00  0.00    +0.000 A 
ATOM     23  C   UNL     1       5.413   6.913  17.250  0.00  0.00    +0.000 A 
ATOM     24  C   UNL     1       6.425   6.104  17.811  0.00  0.00    +0.000 A 
ATOM     25  C   UNL     1       7.674   6.282  18.515  0.00  0.00    +0.000 A 
ATOM     26  N   UNL     1       8.238   5.088  18.772  0.00  0.00    +0.000 NA
ATOM     27  N   UNL     1       7.393   4.192  18.235  0.00  0.00    +0.000 N 
ATOM     28  C   UNL     1       6.222   4.726  17.778  0.00  0.00    +0.000 A 
ATOM     29  C   UNL     1       5.013   4.124  17.388  0.00  0.00    +0.000 A 
ATOM     30  H   UNL     1       7.649   3.211  18.269  0.00  0.00    +0.000 HD
BRANCH  25  31
ATOM     31  C   UNL     1       8.308   7.510  18.960  0.00  0.00    +0.000 C 
ATOM     32  C   UNL     1       8.246   8.689  18.318  0.00  0.00    +0.000 C 
BRANCH  32  33
ATOM     33  C   UNL     1       8.993   9.943  18.473  0.00  0.00    +0.000 A 
ATOM     34  C   UNL     1       9.463  10.773  17.474  0.00  0.00    +0.000 A 
ATOM     35  C   UNL     1      10.259  11.876  17.839  0.00  0.00    +0.000 A 
ATOM     36  C   UNL     1      10.552  12.100  19.185  0.00  0.00    +0.000 A 
ATOM     37  C   UNL     1      10.042  11.218  20.111  0.00  0.00    +0.000 A 
ATOM     38  N   UNL     1       9.287  10.150  19.782  0.00  0.00    +0.000 NA
ENDBRANCH  32  33
ENDBRANCH  25  31
ENDBRANCH  20  21
ENDBRANCH   6  20
TORSDOF 8
ENDMDL
MODEL 6
REMARK VINA RESULT:      -8.3      2.709      7.549
REMARK  Name = 
REMARK  8 active torsions:
REMARK  status: ('A' for Active; 'I' for Inactive)
REMARK    1  A    between atoms: C_2  and  C_3
REMARK    2  A    between atoms: C_3  and  C_4
REMARK    3  A    between atoms: C_7  and  N_8
REMARK    4  A    between atoms: C_9  and  C_11
REMARK    5  A    between atoms: C_16  and  S_17
REMARK    6  A    between atoms: S_17  and  C_18
REMARK    7  A    between atoms: C_22  and  C_23
REMARK    8  A    between atoms: C_24  and  C_25
REMARK                            x       y       z     vdW  Elec       q    Type
REMARK                         _______ _______ _______ _____ _____    ______ ____
ROOT
ATOM      1  C   UNL     1       6.875   5.796  17.049  0.00  0.00    +0.000 A 
ATOM      2  C   UNL     1       7.401   5.612  15.747  0.00  0.00    +0.000 A 
ATOM      3  C   UNL     1       6.883   4.664  14.875  0.00  0.00    +0.000 A 
ATOM      4  C   UNL     1       5.836   3.860  15.296  0.00  0.00    +0.000 A 
ATOM      5  C   UNL     1       5.323   4.005  16.590  0.00  0.00    +0.000 A 
ATOM      6  C   UNL     1       5.820   4.979  17.480  0.00  0.00    +0.000 A 
ENDROOT
BRANCH   1   8
ATOM      7  N   UNL     1       7.466   8.230  17.250  0.00  0.00    +0.000 N 
ATOM      8  C   UNL     1       7.499   6.945  17.766  0.00  0.00    +0.000 C 
ATOM      9  O   UNL     1       8.085   6.658  18.814  0.00  0.00    +0.000 OA
ATOM     10  H   UNL     1       7.179   8.362  16.292  0.00  0.00    +0.000 HD
BRANCH   7  14
ATOM     11  C   UNL     1       9.483  11.442  19.143  0.00  0.00    +0.000 A 
ATOM     12  C   UNL     1       8.690  11.654  18.003  0.00  0.00    +0.000 A 
ATOM     13  C   UNL     1       7.987  10.595  17.415  0.00  0.00    +0.000 A 
ATOM     14  C   UNL     1       8.128   9.300  17.909  0.00  0.00    +0.000 A 
ATOM     15  C   UNL     1       8.952   9.087  19.026  0.00  0.00    +0.000 A 
ATOM     16  C   UNL     1       9.632  10.143  19.632  0.00  0.00    +0.000 A 
BRANCH  11  17
ATOM     17  C   UNL     1      10.017  12.607  19.942  0.00  0.00    +0.000 C 
BRANCH  17  19
ATOM     18  N   UNL     1       9.039  12.571  22.390  0.00  0.00    +0.000 NA
ATOM     19  C   UNL     1       9.463  12.578  21.308  0.00  0.00    +0.000 C 
ENDBRANCH  17  19
ENDBRANCH  11  17
ENDBRANCH   7  14
ENDBRANCH   1   8
BRANCH   6  20
ATOM     20  S   UNL     1       5.163   4.970  19.129  0.00  0.00    +0.000 S 
BRANCH  20  21
ATOM     21  C   UNL     1       3.586   5.818  19.036  0.00  0.00    +0.000 A 
ATOM     22  C   UNL     1       2.743   5.814  20.149  0.00  0.00    +0.000 A 
ATOM     23  C   UNL     1       1.801   6.838  20.343  0.00  0.00    +0.000 A 
ATOM     24  C   UNL     1       1.798   7.949  19.473  0.00  0.00    +0.000 A 
ATOM     25  C   UNL     1       1.285   9.299  19.459  0.00  0.00    +0.000 A 
ATOM     26  N   UNL     1       1.578   9.897  18.290  0.00  0.00    +0.000 NA
ATOM     27  N   UNL     1       2.232   8.958  17.584  0.00  0.00    +0.000 N 
ATOM     28  C   UNL     1       2.524   7.825  18.290  0.00  0.00    +0.000 A 
ATOM     29  C   UNL     1       3.382   6.748  18.008  0.00  0.00    +0.000 A 
ATOM     30  H   UNL     1       2.509   9.178  16.634  0.00  0.00    +0.000 HD
BRANCH  25  31
ATOM     31  C   UNL     1       0.575  10.020  20.500  0.00  0.00    +0.000 C 
ATOM     32  C   UNL     1       0.102  11.273  20.388  0.00  0.00    +0.000 C 
BRANCH  32  33
ATOM     33  C   UNL     1      -0.412  12.230  21.375  0.00  0.00    +0.000 A 
ATOM     34  C   UNL     1       0.074  13.492  21.658  0.00  0.00    +0.000 A 
ATOM     35  C   UNL     1      -0.501  14.206  22.727  0.00  0.00    +0.000 A 
ATOM     36  C   UNL     1      -1.533  13.628  23.467  0.00  0.00    +0.000 A 
ATOM     37  C   UNL     1      -1.950  12.365  23.114  0.00  0.00    +0.000 A 
ATOM     38  N   UNL     1      -1.407  11.660  22.102  0.00  0.00    +0.000 NA
ENDBRANCH  32  33
ENDBRANCH  25  31
ENDBRANCH  20  21
ENDBRANCH   6  20
TORSDOF 8
ENDMDL
MODEL 7
REMARK VINA RESULT:      -8.3      1.614      1.969
REMARK  Name = 
REMARK  8 active torsions:
REMARK  status: ('A' for Active; 'I' for Inactive)
REMARK    1  A    between atoms: C_2  and  C_3
REMARK    2  A    between atoms: C_3  and  C_4
REMARK    3  A    between atoms: C_7  and  N_8
REMARK    4  A    between atoms: C_9  and  C_11
REMARK    5  A    between atoms: C_16  and  S_17
REMARK    6  A    between atoms: S_17  and  C_18
REMARK    7  A    between atoms: C_22  and  C_23
REMARK    8  A    between atoms: C_24  and  C_25
REMARK                            x       y       z     vdW  Elec       q    Type
REMARK                         _______ _______ _______ _____ _____    ______ ____
ROOT
ATOM      1  C   UNL     1       2.041   4.719  20.291  0.00  0.00    +0.000 A 
ATOM      2  C   UNL     1       1.983   4.094  21.560  0.00  0.00    +0.000 A 
ATOM      3  C   UNL     1       2.094   2.717  21.704  0.00  0.00    +0.000 A 
ATOM      4  C   UNL     1       2.245   1.929  20.575  0.00  0.00    +0.000 A 
ATOM      5  C   UNL     1       2.273   2.526  19.309  0.00  0.00    +0.000 A 
ATOM      6  C   UNL     1       2.186   3.924  19.144  0.00  0.00    +0.000 A 
ENDROOT
BRANCH   1   8
ATOM      7  N   UNL     1       0.914   6.897  20.837  0.00  0.00    +0.000 N 
ATOM      8  C   UNL     1       2.023   6.207  20.380  0.00  0.00    +0.000 C 
ATOM      9  O   UNL     1       3.042   6.772  19.968  0.00  0.00    +0.000 OA
ATOM     10  H   UNL     1       0.041   6.401  20.939  0.00  0.00    +0.000 HD
BRANCH   7  14
ATOM     11  C   UNL     1       0.911  11.136  20.825  0.00  0.00    +0.000 A 
ATOM     12  C   UNL     1       1.012  10.407  19.629  0.00  0.00    +0.000 A 
ATOM     13  C   UNL     1       0.960   9.007  19.638  0.00  0.00    +0.000 A 
ATOM     14  C   UNL     1       0.887   8.317  20.846  0.00  0.00    +0.000 A 
ATOM     15  C   UNL     1       0.825   9.050  22.042  0.00  0.00    +0.000 A 
ATOM     16  C   UNL     1       0.848  10.443  22.036  0.00  0.00    +0.000 A 
BRANCH  11  17
ATOM     17  C   UNL     1       0.688  12.630  20.805  0.00  0.00    +0.000 C 
BRANCH  17  19
ATOM     18  N   UNL     1      -0.933  13.319  22.767  0.00  0.00    +0.000 NA
ATOM     19  C   UNL     1      -0.228  13.017  21.894  0.00  0.00    +0.000 C 
ENDBRANCH  17  19
ENDBRANCH  11  17
ENDBRANCH   7  14
ENDBRANCH   1   8
BRANCH   6  20
ATOM     20  S   UNL     1       2.109   4.534  17.480  0.00  0.00    +0.000 S 
BRANCH  20  21
ATOM     21  C   UNL     1       3.766   5.090  17.081  0.00  0.00    +0.000 A 
ATOM     22  C   UNL     1       4.023   6.459  16.988  0.00  0.00    +0.000 A 
ATOM     23  C   UNL     1       5.313   6.967  17.206  0.00  0.00    +0.000 A 
ATOM     24  C   UNL     1       6.331   6.099  17.654  0.00  0.00    +0.000 A 
ATOM     25  C   UNL     1       7.628   6.200  18.283  0.00  0.00    +0.000 A 
ATOM     26  N   UNL     1       8.168   4.978  18.437  0.00  0.00    +0.000 NA
ATOM     27  N   UNL     1       7.260   4.138  17.910  0.00  0.00    +0.000 N 
ATOM     28  C   UNL     1       6.080   4.731  17.560  0.00  0.00    +0.000 A 
ATOM     29  C   UNL     1       4.829   4.188  17.220  0.00  0.00    +0.000 A 
ATOM     30  H   UNL     1       7.485   3.150  17.874  0.00  0.00    +0.000 HD
BRANCH  25  31
ATOM     31  C   UNL     1       8.331   7.382  18.749  0.00  0.00    +0.000 C 
ATOM     32  C   UNL     1       8.051   8.644  18.381  0.00  0.00    +0.000 C 
BRANCH  32  33
ATOM     33  C   UNL     1       8.776   9.909  18.548  0.00  0.00    +0.000 A 
ATOM     34  C   UNL     1       9.676  10.240  19.542  0.00  0.00    +0.000 A 
ATOM     35  C   UNL     1      10.176  11.556  19.581  0.00  0.00    +0.000 A 
ATOM     36  C   UNL     1       9.755  12.483  18.626  0.00  0.00    +0.000 A 
ATOM     37  C   UNL     1       8.853  12.063  17.674  0.00  0.00    +0.000 A 
ATOM     38  N   UNL     1       8.354  10.812  17.626  0.00  0.00    +0.000 NA
ENDBRANCH  32  33
ENDBRANCH  25  31
ENDBRANCH  20  21
ENDBRANCH   6  20
TORSDOF 8
ENDMDL
MODEL 8
REMARK VINA RESULT:      -8.2      1.271      1.738
REMARK  Name = 
REMARK  8 active torsions:
REMARK  status: ('A' for Active; 'I' for Inactive)
REMARK    1  A    between atoms: C_2  and  C_3
REMARK    2  A    between atoms: C_3  and  C_4
REMARK    3  A    between atoms: C_7  and  N_8
REMARK    4  A    between atoms: C_9  and  C_11
REMARK    5  A    between atoms: C_16  and  S_17
REMARK    6  A    between atoms: S_17  and  C_18
REMARK    7  A    between atoms: C_22  and  C_23
REMARK    8  A    between atoms: C_24  and  C_25
REMARK                            x       y       z     vdW  Elec       q    Type
REMARK                         _______ _______ _______ _____ _____    ______ ____
ROOT
ATOM      1  C   UNL     1       2.237   4.012  20.152  0.00  0.00    +0.000 A 
ATOM      2  C   UNL     1       2.360   3.419  21.432  0.00  0.00    +0.000 A 
ATOM      3  C   UNL     1       3.006   2.205  21.618  0.00  0.00    +0.000 A 
ATOM      4  C   UNL     1       3.528   1.542  20.519  0.00  0.00    +0.000 A 
ATOM      5  C   UNL     1       3.390   2.097  19.241  0.00  0.00    +0.000 A 
ATOM      6  C   UNL     1       2.758   3.341  19.036  0.00  0.00    +0.000 A 
ENDROOT
BRANCH   1   8
ATOM      7  N   UNL     1       2.369   6.519  20.047  0.00  0.00    +0.000 N 
ATOM      8  C   UNL     1       1.616   5.367  20.201  0.00  0.00    +0.000 C 
ATOM      9  O   UNL     1       0.404   5.384  20.441  0.00  0.00    +0.000 OA
ATOM     10  H   UNL     1       3.375   6.451  20.084  0.00  0.00    +0.000 HD
BRANCH   7  14
ATOM     11  C   UNL     1       0.668  10.388  20.379  0.00  0.00    +0.000 A 
ATOM     12  C   UNL     1       1.113   9.894  19.141  0.00  0.00    +0.000 A 
ATOM     13  C   UNL     1       1.626   8.595  19.032  0.00  0.00    +0.000 A 
ATOM     14  C   UNL     1       1.775   7.803  20.169  0.00  0.00    +0.000 A 
ATOM     15  C   UNL     1       1.365   8.316  21.410  0.00  0.00    +0.000 A 
ATOM     16  C   UNL     1       0.828   9.597  21.519  0.00  0.00    +0.000 A 
BRANCH  11  17
ATOM     17  C   UNL     1      -0.133  11.665  20.460  0.00  0.00    +0.000 C 
BRANCH  17  19
ATOM     18  N   UNL     1       0.552  13.306  18.515  0.00  0.00    +0.000 NA
ATOM     19  C   UNL     1       0.255  12.574  19.365  0.00  0.00    +0.000 C 
ENDBRANCH  17  19
ENDBRANCH  11  17
ENDBRANCH   7  14
ENDBRANCH   1   8
BRANCH   6  20
ATOM     20  S   UNL     1       2.541   3.865  17.355  0.00  0.00    +0.000 S 
BRANCH  20  21
ATOM     21  C   UNL     1       3.982   4.853  16.957  0.00  0.00    +0.000 A 
ATOM     22  C   UNL     1       3.922   6.240  17.108  0.00  0.00    +0.000 A 
ATOM     23  C   UNL     1       5.086   6.993  17.330  0.00  0.00    +0.000 A 
ATOM     24  C   UNL     1       6.312   6.325  17.534  0.00  0.00    +0.000 A 
ATOM     25  C   UNL     1       7.617   6.620  18.081  0.00  0.00    +0.000 A 
ATOM     26  N   UNL     1       8.424   5.551  17.963  0.00  0.00    +0.000 NA
ATOM     27  N   UNL     1       7.670   4.623  17.350  0.00  0.00    +0.000 N 
ATOM     28  C   UNL     1       6.358   4.973  17.200  0.00  0.00    +0.000 A 
ATOM     29  C   UNL     1       5.226   4.217  16.850  0.00  0.00    +0.000 A 
ATOM     30  H   UNL     1       8.099   3.736  17.111  0.00  0.00    +0.000 HD
BRANCH  25  31
ATOM     31  C   UNL     1       8.091   7.838  18.714  0.00  0.00    +0.000 C 
ATOM     32  C   UNL     1       8.430   8.965  18.067  0.00  0.00    +0.000 C 
BRANCH  32  33
ATOM     33  C   UNL     1       9.137  10.178  18.493  0.00  0.00    +0.000 A 
ATOM     34  C   UNL     1       9.767  11.112  17.693  0.00  0.00    +0.000 A 
ATOM     35  C   UNL     1      10.487  12.150  18.315  0.00  0.00    +0.000 A 
ATOM     36  C   UNL     1      10.548  12.208  19.708  0.00  0.00    +0.000 A 
ATOM     37  C   UNL     1       9.892  11.232  20.424  0.00  0.00    +0.000 A 
ATOM     38  N   UNL     1       9.207  10.225  19.848  0.00  0.00    +0.000 NA
ENDBRANCH  32  33
ENDBRANCH  25  31
ENDBRANCH  20  21
ENDBRANCH   6  20
TORSDOF 8
ENDMDL
MODEL 9
REMARK VINA RESULT:      -8.1      4.800      9.081
REMARK  Name = 
REMARK  8 active torsions:
REMARK  status: ('A' for Active; 'I' for Inactive)
REMARK    1  A    between atoms: C_2  and  C_3
REMARK    2  A    between atoms: C_3  and  C_4
REMARK    3  A    between atoms: C_7  and  N_8
REMARK    4  A    between atoms: C_9  and  C_11
REMARK    5  A    between atoms: C_16  and  S_17
REMARK    6  A    between atoms: S_17  and  C_18
REMARK    7  A    between atoms: C_22  and  C_23
REMARK    8  A    between atoms: C_24  and  C_25
REMARK                            x       y       z     vdW  Elec       q    Type
REMARK                         _______ _______ _______ _____ _____    ______ ____
ROOT
ATOM      1  C   UNL     1      -2.710  13.660  21.472  0.00  0.00    +0.000 A 
ATOM      2  C   UNL     1      -2.885  15.050  21.262  0.00  0.00    +0.000 A 
ATOM      3  C   UNL     1      -2.454  15.991  22.188  0.00  0.00    +0.000 A 
ATOM      4  C   UNL     1      -1.855  15.559  23.361  0.00  0.00    +0.000 A 
ATOM      5  C   UNL     1      -1.701  14.189  23.601  0.00  0.00    +0.000 A 
ATOM      6  C   UNL     1      -2.110  13.220  22.661  0.00  0.00    +0.000 A 
ENDROOT
BRANCH   1   8
ATOM      7  N   UNL     1      -2.233  12.432  19.333  0.00  0.00    +0.000 N 
ATOM      8  C   UNL     1      -3.135  12.842  20.300  0.00  0.00    +0.000 C 
ATOM      9  O   UNL     1      -4.346  12.608  20.231  0.00  0.00    +0.000 OA
ATOM     10  H   UNL     1      -1.312  12.843  19.322  0.00  0.00    +0.000 HD
BRANCH   7  14
ATOM     11  C   UNL     1      -3.460  10.330  15.863  0.00  0.00    +0.000 A 
ATOM     12  C   UNL     1      -2.161  10.184  16.378  0.00  0.00    +0.000 A 
ATOM     13  C   UNL     1      -1.782  10.843  17.555  0.00  0.00    +0.000 A 
ATOM     14  C   UNL     1      -2.666  11.716  18.186  0.00  0.00    +0.000 A 
ATOM     15  C   UNL     1      -3.950  11.888  17.644  0.00  0.00    +0.000 A 
ATOM     16  C   UNL     1      -4.341  11.213  16.490  0.00  0.00    +0.000 A 
BRANCH  11  17
ATOM     17  C   UNL     1      -3.964   9.421  14.767  0.00  0.00    +0.000 C 
BRANCH  17  19
ATOM     18  N   UNL     1      -2.392   9.619  12.661  0.00  0.00    +0.000 NA
ATOM     19  C   UNL     1      -3.094   9.530  13.582  0.00  0.00    +0.000 C 
ENDBRANCH  17  19
ENDBRANCH  11  17
ENDBRANCH   7  14
ENDBRANCH   1   8
BRANCH   6  20
ATOM     20  S   UNL     1      -1.971  11.519  23.148  0.00  0.00    +0.000 S 
BRANCH  20  21
ATOM     21  C   UNL     1      -0.493  10.897  22.346  0.00  0.00    +0.000 A 
ATOM     22  C   UNL     1      -0.219   9.529  22.386  0.00  0.00    +0.000 A 
ATOM     23  C   UNL     1       0.566   8.921  21.393  0.00  0.00    +0.000 A 
ATOM     24  C   UNL     1       0.971   9.677  20.273  0.00  0.00    +0.000 A 
ATOM     25  C   UNL     1       1.468   9.435  18.938  0.00  0.00    +0.000 A 
ATOM     26  N   UNL     1       1.726  10.602  18.318  0.00  0.00    +0.000 NA
ATOM     27  N   UNL     1       1.425  11.543  19.229  0.00  0.00    +0.000 N 
ATOM     28  C   UNL     1       0.831  11.061  20.361  0.00  0.00    +0.000 A 
ATOM     29  C   UNL     1       0.158  11.712  21.410  0.00  0.00    +0.000 A 
ATOM     30  H   UNL     1       1.594  12.513  18.990  0.00  0.00    +0.000 HD
BRANCH  25  31
ATOM     31  C   UNL     1       1.669   8.173  18.250  0.00  0.00    +0.000 C 
ATOM     32  C   UNL     1       2.463   7.177  18.678  0.00  0.00    +0.000 C 
BRANCH  32  33
ATOM     33  C   UNL     1       2.971   5.964  18.026  0.00  0.00    +0.000 A 
ATOM     34  C   UNL     1       2.288   4.787  17.785  0.00  0.00    +0.000 A 
ATOM     35  C   UNL     1       2.999   3.699  17.244  0.00  0.00    +0.000 A 
ATOM     36  C   UNL     1       4.361   3.834  16.970  0.00  0.00    +0.000 A 
ATOM     37  C   UNL     1       4.958   5.043  17.245  0.00  0.00    +0.000 A 
ATOM     38  N   UNL     1       4.298   6.093  17.773  0.00  0.00    +0.000 NA
ENDBRANCH  32  33
ENDBRANCH  25  31
ENDBRANCH  20  21
ENDBRANCH   6  20
TORSDOF 8
ENDMDL
