MODEL 1
REMARK VINA RESULT:      -5.9      0.000      0.000
REMARK  Name = 
REMARK  5 active torsions:
REMARK  status: ('A' for Active; 'I' for Inactive)
REMARK    1  A    between atoms: P_2  and  N_3
REMARK    2  A    between atoms: N_3  and  C_4
REMARK    3  A    between atoms: N_3  and  C_7
REMARK    4  A    between atoms: C_4  and  C_5
REMARK    5  A    between atoms: C_7  and  C_8
REMARK                            x       y       z     vdW  Elec       q    Type
REMARK                         _______ _______ _______ _____ _____    ______ ____
ROOT
ATOM      1  O   UNL     1       5.909   4.122  19.268  0.00  0.00    +0.000 OA
ATOM      2  P   UNL     1       4.874   4.512  18.266  0.00  0.00    +0.000 P 
ATOM      3  N   UNL     1       3.935   3.248  17.833  0.00  0.00    +0.000 NA
ATOM      4  C   UNL     1       2.619   3.510  17.272  0.00  0.00    +0.000 C 
ATOM      5  C   UNL     1       1.794   4.425  18.164  0.00  0.00    +0.000 C 
ATOM      6 BR   UNL     1       1.414   3.523  19.869  0.00  0.00    +0.000 Br
ATOM      7  C   UNL     1       2.525   5.740  18.415  0.00  0.00    +0.000 C 
ATOM      8  O   UNL     1       3.847   5.577  18.909  0.00  0.00    +0.000 OA
ATOM      9  H   UNL     1       3.822   2.660  18.656  0.00  0.00    +0.000 HD
ENDROOT
BRANCH   2  10
ATOM     10  N   UNL     1       5.510   5.186  16.876  0.00  0.00    +0.000 NA
BRANCH  10  11
ATOM     11  C   UNL     1       5.990   6.580  17.149  0.00  0.00    +0.000 C 
BRANCH  11  12
ATOM     12  C   UNL     1       7.382   6.751  17.782  0.00  0.00    +0.000 C 
ATOM     13 CL   UNL     1       7.916   8.451  17.681  0.00  0.00    +0.000 Cl
ENDBRANCH  11  12
ENDBRANCH  10  11
BRANCH  10  14
ATOM     14  C   UNL     1       6.622   4.407  16.259  0.00  0.00    +0.000 C 
BRANCH  14  15
ATOM     15  C   UNL     1       6.985   4.789  14.818  0.00  0.00    +0.000 C 
ATOM     16 CL   UNL     1       6.072   3.775  13.662  0.00  0.00    +0.000 Cl
ENDBRANCH  14  15
ENDBRANCH  10  14
ENDBRANCH   2  10
TORSDOF 5
ENDMDL
MODEL 2
REMARK VINA RESULT:      -5.6      1.349      2.862
REMARK  Name = 
REMARK  5 active torsions:
REMARK  status: ('A' for Active; 'I' for Inactive)
REMARK    1  A    between atoms: P_2  and  N_3
REMARK    2  A    between atoms: N_3  and  C_4
REMARK    3  A    between atoms: N_3  and  C_7
REMARK    4  A    between atoms: C_4  and  C_5
REMARK    5  A    between atoms: C_7  and  C_8
REMARK                            x       y       z     vdW  Elec       q    Type
REMARK                         _______ _______ _______ _____ _____    ______ ____
ROOT
ATOM      1  O   UNL     1       5.201   5.246  19.723  0.00  0.00    +0.000 OA
ATOM      2  P   UNL     1       4.753   4.321  18.641  0.00  0.00    +0.000 P 
ATOM      3  N   UNL     1       4.510   2.804  19.195  0.00  0.00    +0.000 NA
ATOM      4  C   UNL     1       3.640   1.913  18.445  0.00  0.00    +0.000 C 
ATOM      5  C   UNL     1       2.280   2.539  18.179  0.00  0.00    +0.000 C 
ATOM      6 BR   UNL     1       1.331   2.812  19.880  0.00  0.00    +0.000 Br
ATOM      7  C   UNL     1       2.429   3.866  17.441  0.00  0.00    +0.000 C 
ATOM      8  O   UNL     1       3.314   4.779  18.075  0.00  0.00    +0.000 OA
ATOM      9  H   UNL     1       4.149   2.884  20.144  0.00  0.00    +0.000 HD
ENDROOT
BRANCH   2  10
ATOM     10  N   UNL     1       5.811   4.240  17.352  0.00  0.00    +0.000 NA
BRANCH  10  11
ATOM     11  C   UNL     1       5.224   4.926  16.155  0.00  0.00    +0.000 C 
BRANCH  11  12
ATOM     12  C   UNL     1       5.423   4.268  14.779  0.00  0.00    +0.000 C 
ATOM     13 CL   UNL     1       6.933   4.840  14.019  0.00  0.00    +0.000 Cl
ENDBRANCH  11  12
ENDBRANCH  10  11
BRANCH  10  14
ATOM     14  C   UNL     1       7.163   4.811  17.618  0.00  0.00    +0.000 C 
BRANCH  14  15
ATOM     15  C   UNL     1       7.341   6.295  17.274  0.00  0.00    +0.000 C 
ATOM     16 CL   UNL     1       8.168   7.144  18.612  0.00  0.00    +0.000 Cl
ENDBRANCH  14  15
ENDBRANCH  10  14
ENDBRANCH   2  10
TORSDOF 5
ENDMDL
MODEL 3
REMARK VINA RESULT:      -5.4      1.688      3.398
REMARK  Name = 
REMARK  5 active torsions:
REMARK  status: ('A' for Active; 'I' for Inactive)
REMARK    1  A    between atoms: P_2  and  N_3
REMARK    2  A    between atoms: N_3  and  C_4
REMARK    3  A    between atoms: N_3  and  C_7
REMARK    4  A    between atoms: C_4  and  C_5
REMARK    5  A    between atoms: C_7  and  C_8
REMARK                            x       y       z     vdW  Elec       q    Type
REMARK                         _______ _______ _______ _____ _____    ______ ____
ROOT
ATOM      1  O   UNL     1       4.271   6.317  17.650  0.00  0.00    +0.000 OA
ATOM      2  P   UNL     1       4.406   4.840  17.823  0.00  0.00    +0.000 P 
ATOM      3  N   UNL     1       4.383   4.405  19.397  0.00  0.00    +0.000 NA
ATOM      4  C   UNL     1       4.021   3.040  19.743  0.00  0.00    +0.000 C 
ATOM      5  C   UNL     1       2.693   2.631  19.124  0.00  0.00    +0.000 C 
ATOM      6 BR   UNL     1       1.243   3.718  19.886  0.00  0.00    +0.000 Br
ATOM      7  C   UNL     1       2.730   2.792  17.607  0.00  0.00    +0.000 C 
ATOM      8  O   UNL     1       3.137   4.084  17.176  0.00  0.00    +0.000 OA
ATOM      9  H   UNL     1       3.747   5.039  19.876  0.00  0.00    +0.000 HD
ENDROOT
BRANCH   2  10
ATOM     10  N   UNL     1       5.788   4.210  17.129  0.00  0.00    +0.000 NA
BRANCH  10  11
ATOM     11  C   UNL     1       5.503   3.750  15.732  0.00  0.00    +0.000 C 
BRANCH  11  12
ATOM     12  C   UNL     1       6.015   4.619  14.570  0.00  0.00    +0.000 C 
ATOM     13 CL   UNL     1       6.209   3.641  13.089  0.00  0.00    +0.000 Cl
ENDBRANCH  11  12
ENDBRANCH  10  11
BRANCH  10  14
ATOM     14  C   UNL     1       6.952   5.143  17.101  0.00  0.00    +0.000 C 
BRANCH  14  15
ATOM     15  C   UNL     1       7.640   5.392  18.449  0.00  0.00    +0.000 C 
ATOM     16 CL   UNL     1       8.130   7.106  18.584  0.00  0.00    +0.000 Cl
ENDBRANCH  14  15
ENDBRANCH  10  14
ENDBRANCH   2  10
TORSDOF 5
ENDMDL
MODEL 4
REMARK VINA RESULT:      -5.4      1.104      1.180
REMARK  Name = 
REMARK  5 active torsions:
REMARK  status: ('A' for Active; 'I' for Inactive)
REMARK    1  A    between atoms: P_2  and  N_3
REMARK    2  A    between atoms: N_3  and  C_4
REMARK    3  A    between atoms: N_3  and  C_7
REMARK    4  A    between atoms: C_4  and  C_5
REMARK    5  A    between atoms: C_7  and  C_8
REMARK                            x       y       z     vdW  Elec       q    Type
REMARK                         _______ _______ _______ _____ _____    ______ ____
ROOT
ATOM      1  O   UNL     1       4.729   5.669  19.656  0.00  0.00    +0.000 OA
ATOM      2  P   UNL     1       4.158   4.933  18.490  0.00  0.00    +0.000 P 
ATOM      3  N   UNL     1       4.137   3.319  18.736  0.00  0.00    +0.000 NA
ATOM      4  C   UNL     1       3.212   2.503  17.967  0.00  0.00    +0.000 C 
ATOM      5  C   UNL     1       1.783   3.012  18.073  0.00  0.00    +0.000 C 
ATOM      6 BR   UNL     1       1.151   2.833  19.926  0.00  0.00    +0.000 Br
ATOM      7  C   UNL     1       1.691   4.467  17.625  0.00  0.00    +0.000 C 
ATOM      8  O   UNL     1       2.608   5.330  18.284  0.00  0.00    +0.000 OA
ATOM      9  H   UNL     1       3.955   3.167  19.727  0.00  0.00    +0.000 HD
ENDROOT
BRANCH   2  10
ATOM     10  N   UNL     1       4.960   5.230  17.055  0.00  0.00    +0.000 NA
BRANCH  10  11
ATOM     11  C   UNL     1       5.630   6.570  17.104  0.00  0.00    +0.000 C 
BRANCH  11  12
ATOM     12  C   UNL     1       7.156   6.605  17.294  0.00  0.00    +0.000 C 
ATOM     13 CL   UNL     1       7.720   8.277  17.562  0.00  0.00    +0.000 Cl
ENDBRANCH  11  12
ENDBRANCH  10  11
BRANCH  10  14
ATOM     14  C   UNL     1       5.972   4.199  16.683  0.00  0.00    +0.000 C 
BRANCH  14  15
ATOM     15  C   UNL     1       5.947   3.738  15.220  0.00  0.00    +0.000 C 
ATOM     16 CL   UNL     1       6.901   4.857  14.204  0.00  0.00    +0.000 Cl
ENDBRANCH  14  15
ENDBRANCH  10  14
ENDBRANCH   2  10
TORSDOF 5
ENDMDL
MODEL 5
REMARK VINA RESULT:      -5.4      1.243      1.260
REMARK  Name = 
REMARK  5 active torsions:
REMARK  status: ('A' for Active; 'I' for Inactive)
REMARK    1  A    between atoms: P_2  and  N_3
REMARK    2  A    between atoms: N_3  and  C_4
REMARK    3  A    between atoms: N_3  and  C_7
REMARK    4  A    between atoms: C_4  and  C_5
REMARK    5  A    between atoms: C_7  and  C_8
REMARK                            x       y       z     vdW  Elec       q    Type
REMARK                         _______ _______ _______ _____ _____    ______ ____
ROOT
ATOM      1  O   UNL     1       5.530   3.358  19.302  0.00  0.00    +0.000 OA
ATOM      2  P   UNL     1       4.300   3.961  18.710  0.00  0.00    +0.000 P 
ATOM      3  N   UNL     1       3.136   2.845  18.451  0.00  0.00    +0.000 NA
ATOM      4  C   UNL     1       1.754   3.284  18.347  0.00  0.00    +0.000 C 
ATOM      5  C   UNL     1       1.336   4.130  19.540  0.00  0.00    +0.000 C 
ATOM      6 BR   UNL     1       1.368   3.037  21.173  0.00  0.00    +0.000 Br
ATOM      7  C   UNL     1       2.255   5.338  19.696  0.00  0.00    +0.000 C 
ATOM      8  O   UNL     1       3.636   5.006  19.744  0.00  0.00    +0.000 OA
ATOM      9  H   UNL     1       3.202   2.161  19.202  0.00  0.00    +0.000 HD
ENDROOT
BRANCH   2  10
ATOM     10  N   UNL     1       4.577   4.766  17.272  0.00  0.00    +0.000 NA
BRANCH  10  11
ATOM     11  C   UNL     1       5.133   6.132  17.542  0.00  0.00    +0.000 C 
BRANCH  11  12
ATOM     12  C   UNL     1       6.537   6.228  18.163  0.00  0.00    +0.000 C 
ATOM     13 CL   UNL     1       7.583   7.302  17.195  0.00  0.00    +0.000 Cl
ENDBRANCH  11  12
ENDBRANCH  10  11
BRANCH  10  14
ATOM     14  C   UNL     1       5.484   4.055  16.326  0.00  0.00    +0.000 C 
BRANCH  14  15
ATOM     15  C   UNL     1       5.500   4.589  14.888  0.00  0.00    +0.000 C 
ATOM     16 CL   UNL     1       7.170   5.004  14.402  0.00  0.00    +0.000 Cl
ENDBRANCH  14  15
ENDBRANCH  10  14
ENDBRANCH   2  10
TORSDOF 5
ENDMDL
MODEL 6
REMARK VINA RESULT:      -5.2      4.029      5.289
REMARK  Name = 
REMARK  5 active torsions:
REMARK  status: ('A' for Active; 'I' for Inactive)
REMARK    1  A    between atoms: P_2  and  N_3
REMARK    2  A    between atoms: N_3  and  C_4
REMARK    3  A    between atoms: N_3  and  C_7
REMARK    4  A    between atoms: C_4  and  C_5
REMARK    5  A    between atoms: C_7  and  C_8
REMARK                            x       y       z     vdW  Elec       q    Type
REMARK                         _______ _______ _______ _____ _____    ______ ____
ROOT
ATOM      1  O   UNL     1       3.000   3.523  16.978  0.00  0.00    +0.000 OA
ATOM      2  P   UNL     1       3.971   4.437  17.647  0.00  0.00    +0.000 P 
ATOM      3  N   UNL     1       5.447   3.756  17.800  0.00  0.00    +0.000 NA
ATOM      4  C   UNL     1       6.605   4.619  17.968  0.00  0.00    +0.000 C 
ATOM      5  C   UNL     1       6.687   5.678  16.879  0.00  0.00    +0.000 C 
ATOM      6 BR   UNL     1       6.983   4.816  15.137  0.00  0.00    +0.000 Br
ATOM      7  C   UNL     1       5.412   6.516  16.842  0.00  0.00    +0.000 C 
ATOM      8  O   UNL     1       4.222   5.747  16.740  0.00  0.00    +0.000 OA
ATOM      9  H   UNL     1       5.596   3.173  16.979  0.00  0.00    +0.000 HD
ENDROOT
BRANCH   2  10
ATOM     10  N   UNL     1       3.475   4.946  19.159  0.00  0.00    +0.000 NA
BRANCH  10  11
ATOM     11  C   UNL     1       2.277   5.839  19.038  0.00  0.00    +0.000 C 
BRANCH  11  12
ATOM     12  C   UNL     1       2.417   7.299  19.502  0.00  0.00    +0.000 C 
ATOM     13 CL   UNL     1       1.371   7.615  20.913  0.00  0.00    +0.000 Cl
ENDBRANCH  11  12
ENDBRANCH  10  11
BRANCH  10  14
ATOM     14  C   UNL     1       3.160   3.845  20.114  0.00  0.00    +0.000 C 
BRANCH  14  15
ATOM     15  C   UNL     1       1.670   3.549  20.324  0.00  0.00    +0.000 C 
ATOM     16 CL   UNL     1       1.437   2.566  21.799  0.00  0.00    +0.000 Cl
ENDBRANCH  14  15
ENDBRANCH  10  14
ENDBRANCH   2  10
TORSDOF 5
ENDMDL
MODEL 7
REMARK VINA RESULT:      -5.2      1.599      3.279
REMARK  Name = 
REMARK  5 active torsions:
REMARK  status: ('A' for Active; 'I' for Inactive)
REMARK    1  A    between atoms: P_2  and  N_3
REMARK    2  A    between atoms: N_3  and  C_4
REMARK    3  A    between atoms: N_3  and  C_7
REMARK    4  A    between atoms: C_4  and  C_5
REMARK    5  A    between atoms: C_7  and  C_8
REMARK                            x       y       z     vdW  Elec       q    Type
REMARK                         _______ _______ _______ _____ _____    ______ ____
ROOT
ATOM      1  O   UNL     1       3.581   6.241  19.106  0.00  0.00    +0.000 OA
ATOM      2  P   UNL     1       3.963   4.883  18.619  0.00  0.00    +0.000 P 
ATOM      3  N   UNL     1       3.900   3.766  19.809  0.00  0.00    +0.000 NA
ATOM      4  C   UNL     1       3.761   2.364  19.450  0.00  0.00    +0.000 C 
ATOM      5  C   UNL     1       2.578   2.130  18.524  0.00  0.00    +0.000 C 
ATOM      6 BR   UNL     1       0.904   2.550  19.466  0.00  0.00    +0.000 Br
ATOM      7  C   UNL     1       2.700   2.981  17.263  0.00  0.00    +0.000 C 
ATOM      8  O   UNL     1       2.901   4.364  17.522  0.00  0.00    +0.000 OA
ATOM      9  H   UNL     1       3.126   4.021  20.421  0.00  0.00    +0.000 HD
ENDROOT
BRANCH   2  10
ATOM     10  N   UNL     1       5.484   4.824  17.931  0.00  0.00    +0.000 NA
BRANCH  10  11
ATOM     11  C   UNL     1       5.386   4.975  16.443  0.00  0.00    +0.000 C 
BRANCH  11  12
ATOM     12  C   UNL     1       5.897   3.819  15.567  0.00  0.00    +0.000 C 
ATOM     13 CL   UNL     1       5.447   4.075  13.859  0.00  0.00    +0.000 Cl
ENDBRANCH  11  12
ENDBRANCH  10  11
BRANCH  10  14
ATOM     14  C   UNL     1       6.444   5.837  18.456  0.00  0.00    +0.000 C 
BRANCH  14  15
ATOM     15  C   UNL     1       7.353   6.498  17.412  0.00  0.00    +0.000 C 
ATOM     16 CL   UNL     1       8.008   8.035  18.049  0.00  0.00    +0.000 Cl
ENDBRANCH  14  15
ENDBRANCH  10  14
ENDBRANCH   2  10
TORSDOF 5
ENDMDL
MODEL 8
REMARK VINA RESULT:      -5.2      1.846      2.048
REMARK  Name = 
REMARK  5 active torsions:
REMARK  status: ('A' for Active; 'I' for Inactive)
REMARK    1  A    between atoms: P_2  and  N_3
REMARK    2  A    between atoms: N_3  and  C_4
REMARK    3  A    between atoms: N_3  and  C_7
REMARK    4  A    between atoms: C_4  and  C_5
REMARK    5  A    between atoms: C_7  and  C_8
REMARK                            x       y       z     vdW  Elec       q    Type
REMARK                         _______ _______ _______ _____ _____    ______ ____
ROOT
ATOM      1  O   UNL     1       3.092   6.448  19.509  0.00  0.00    +0.000 OA
ATOM      2  P   UNL     1       3.649   5.254  18.809  0.00  0.00    +0.000 P 
ATOM      3  N   UNL     1       3.736   3.954  19.793  0.00  0.00    +0.000 NA
ATOM      4  C   UNL     1       3.782   2.626  19.201  0.00  0.00    +0.000 C 
ATOM      5  C   UNL     1       2.639   2.400  18.224  0.00  0.00    +0.000 C 
ATOM      6 BR   UNL     1       0.926   2.433  19.189  0.00  0.00    +0.000 Br
ATOM      7  C   UNL     1       2.645   3.461  17.127  0.00  0.00    +0.000 C 
ATOM      8  O   UNL     1       2.663   4.794  17.618  0.00  0.00    +0.000 OA
ATOM      9  H   UNL     1       2.936   3.998  20.422  0.00  0.00    +0.000 HD
ENDROOT
BRANCH   2  10
ATOM     10  N   UNL     1       5.163   5.510  18.152  0.00  0.00    +0.000 NA
BRANCH  10  11
ATOM     11  C   UNL     1       6.220   5.321  19.197  0.00  0.00    +0.000 C 
BRANCH  11  12
ATOM     12  C   UNL     1       7.671   5.670  18.825  0.00  0.00    +0.000 C 
ATOM     13 CL   UNL     1       7.745   7.240  17.979  0.00  0.00    +0.000 Cl
ENDBRANCH  11  12
ENDBRANCH  10  11
BRANCH  10  14
ATOM     14  C   UNL     1       5.487   4.649  16.978  0.00  0.00    +0.000 C 
BRANCH  14  15
ATOM     15  C   UNL     1       5.591   5.370  15.629  0.00  0.00    +0.000 C 
ATOM     16 CL   UNL     1       7.054   4.833  14.753  0.00  0.00    +0.000 Cl
ENDBRANCH  14  15
ENDBRANCH  10  14
ENDBRANCH   2  10
TORSDOF 5
ENDMDL
MODEL 9
REMARK VINA RESULT:      -5.1      3.735      5.436
REMARK  Name = 
REMARK  5 active torsions:
REMARK  status: ('A' for Active; 'I' for Inactive)
REMARK    1  A    between atoms: P_2  and  N_3
REMARK    2  A    between atoms: N_3  and  C_4
REMARK    3  A    between atoms: N_3  and  C_7
REMARK    4  A    between atoms: C_4  and  C_5
REMARK    5  A    between atoms: C_7  and  C_8
REMARK                            x       y       z     vdW  Elec       q    Type
REMARK                         _______ _______ _______ _____ _____    ______ ____
ROOT
ATOM      1  O   UNL     1       4.402   3.071  19.953  0.00  0.00    +0.000 OA
ATOM      2  P   UNL     1       4.154   4.146  18.947  0.00  0.00    +0.000 P 
ATOM      3  N   UNL     1       5.211   5.381  19.100  0.00  0.00    +0.000 NA
ATOM      4  C   UNL     1       5.442   6.253  17.959  0.00  0.00    +0.000 C 
ATOM      5  C   UNL     1       5.816   5.467  16.711  0.00  0.00    +0.000 C 
ATOM      6 BR   UNL     1       7.544   4.570  16.985  0.00  0.00    +0.000 Br
ATOM      7  C   UNL     1       4.738   4.442  16.374  0.00  0.00    +0.000 C 
ATOM      8  O   UNL     1       4.403   3.584  17.456  0.00  0.00    +0.000 OA
ATOM      9  H   UNL     1       6.103   4.982  19.387  0.00  0.00    +0.000 HD
ENDROOT
BRANCH   2  10
ATOM     10  N   UNL     1       2.608   4.774  19.009  0.00  0.00    +0.000 NA
BRANCH  10  11
ATOM     11  C   UNL     1       1.601   3.666  19.090  0.00  0.00    +0.000 C 
BRANCH  11  12
ATOM     12  C   UNL     1       0.714   3.591  20.344  0.00  0.00    +0.000 C 
ATOM     13 CL   UNL     1       1.473   2.568  21.594  0.00  0.00    +0.000 Cl
ENDBRANCH  11  12
ENDBRANCH  10  11
BRANCH  10  14
ATOM     14  C   UNL     1       2.367   5.727  20.130  0.00  0.00    +0.000 C 
BRANCH  14  15
ATOM     15  C   UNL     1       2.248   7.204  19.737  0.00  0.00    +0.000 C 
ATOM     16 CL   UNL     1       2.165   7.365  17.958  0.00  0.00    +0.000 Cl
ENDBRANCH  14  15
ENDBRANCH  10  14
ENDBRANCH   2  10
TORSDOF 5
ENDMDL
