MODEL 1
REMARK VINA RESULT:      -7.2      0.000      0.000
REMARK  Name = 
REMARK  3 active torsions:
REMARK  status: ('A' for Active; 'I' for Inactive)
REMARK    1  A    between atoms: C_1  and  C_2
REMARK    2  A    between atoms: C_4  and  C_5
REMARK    3  A    between atoms: C_9  and  N_10
REMARK                            x       y       z     vdW  Elec       q    Type
REMARK                         _______ _______ _______ _____ _____    ______ ____
ROOT
ATOM      1  C   UNL     1       5.050   2.568  11.470  0.00  0.00    +0.000 C 
ATOM      2  C   UNL     1       5.895   3.451  12.309  0.00  0.00    +0.000 A 
ATOM      3  C   UNL     1       7.053   4.154  11.932  0.00  0.00    +0.000 A 
ATOM      4  C   UNL     1       7.459   4.830  13.064  0.00  0.00    +0.000 A 
ATOM      5  C   UNL     1       8.649   5.695  13.264  0.00  0.00    +0.000 C 
ATOM      6  N   UNL     1       6.524   4.538  14.050  0.00  0.00    +0.000 N 
ATOM      7  C   UNL     1       6.459   5.044  15.391  0.00  0.00    +0.000 A 
ATOM      8  C   UNL     1       5.519   4.508  16.256  0.00  0.00    +0.000 A 
ATOM      9  C   UNL     1       5.503   4.965  17.561  0.00  0.00    +0.000 A 
ATOM     10  N   UNL     1       6.359   5.931  17.944  0.00  0.00    +0.000 NA
ATOM     11  C   UNL     1       7.215   6.411  17.036  0.00  0.00    +0.000 A 
ATOM     12  N   UNL     1       7.322   6.010  15.768  0.00  0.00    +0.000 NA
ATOM     13  N   UNL     1       5.588   3.655  13.592  0.00  0.00    +0.000 NA
ENDROOT
BRANCH   9  14
ATOM     14  N   UNL     1       4.665   4.429  18.508  0.00  0.00    +0.000 N 
ATOM     15  C   UNL     1       4.146   3.058  18.472  0.00  0.00    +0.000 C 
ATOM     16  C   UNL     1       2.607   3.076  18.438  0.00  0.00    +0.000 C 
ATOM     17  O   UNL     1       2.053   3.861  19.506  0.00  0.00    +0.000 OA
ATOM     18  C   UNL     1       2.514   5.220  19.412  0.00  0.00    +0.000 C 
ATOM     19  C   UNL     1       4.041   5.297  19.517  0.00  0.00    +0.000 C 
ENDBRANCH   9  14
TORSDOF 1
ENDMDL
MODEL 2
REMARK VINA RESULT:      -7.0      1.041      1.400
REMARK  Name = 
REMARK  3 active torsions:
REMARK  status: ('A' for Active; 'I' for Inactive)
REMARK    1  A    between atoms: C_1  and  C_2
REMARK    2  A    between atoms: C_4  and  C_5
REMARK    3  A    between atoms: C_9  and  N_10
REMARK                            x       y       z     vdW  Elec       q    Type
REMARK                         _______ _______ _______ _____ _____    ______ ____
ROOT
ATOM      1  C   UNL     1       5.539   1.959  11.316  0.00  0.00    +0.000 C 
ATOM      2  C   UNL     1       6.120   3.024  12.169  0.00  0.00    +0.000 A 
ATOM      3  C   UNL     1       7.186   3.890  11.868  0.00  0.00    +0.000 A 
ATOM      4  C   UNL     1       7.333   4.694  12.978  0.00  0.00    +0.000 A 
ATOM      5  C   UNL     1       8.333   5.760  13.238  0.00  0.00    +0.000 C 
ATOM      6  N   UNL     1       6.343   4.309  13.875  0.00  0.00    +0.000 N 
ATOM      7  C   UNL     1       6.032   4.878  15.153  0.00  0.00    +0.000 A 
ATOM      8  C   UNL     1       5.092   4.245  15.950  0.00  0.00    +0.000 A 
ATOM      9  C   UNL     1       4.841   4.773  17.202  0.00  0.00    +0.000 A 
ATOM     10  N   UNL     1       5.475   5.893  17.599  0.00  0.00    +0.000 NA
ATOM     11  C   UNL     1       6.347   6.454  16.755  0.00  0.00    +0.000 A 
ATOM     12  N   UNL     1       6.673   5.999  15.544  0.00  0.00    +0.000 NA
ATOM     13  N   UNL     1       5.627   3.252  13.389  0.00  0.00    +0.000 NA
ENDROOT
BRANCH   9  14
ATOM     14  N   UNL     1       3.990   4.161  18.091  0.00  0.00    +0.000 N 
ATOM     15  C   UNL     1       4.340   3.830  19.476  0.00  0.00    +0.000 C 
ATOM     16  C   UNL     1       4.205   2.314  19.708  0.00  0.00    +0.000 C 
ATOM     17  O   UNL     1       2.911   1.823  19.320  0.00  0.00    +0.000 OA
ATOM     18  C   UNL     1       2.682   2.080  17.923  0.00  0.00    +0.000 C 
ATOM     19  C   UNL     1       2.723   3.581  17.621  0.00  0.00    +0.000 C 
ENDBRANCH   9  14
TORSDOF 1
ENDMDL
MODEL 3
REMARK VINA RESULT:      -6.8      4.362      7.539
REMARK  Name = 
REMARK  3 active torsions:
REMARK  status: ('A' for Active; 'I' for Inactive)
REMARK    1  A    between atoms: C_1  and  C_2
REMARK    2  A    between atoms: C_4  and  C_5
REMARK    3  A    between atoms: C_9  and  N_10
REMARK                            x       y       z     vdW  Elec       q    Type
REMARK                         _______ _______ _______ _____ _____    ______ ____
ROOT
ATOM      1  C   UNL     1      -0.343   9.332  23.073  0.00  0.00    +0.000 C 
ATOM      2  C   UNL     1       0.277   9.351  21.726  0.00  0.00    +0.000 A 
ATOM      3  C   UNL     1       0.298  10.406  20.797  0.00  0.00    +0.000 A 
ATOM      4  C   UNL     1       1.000   9.928  19.711  0.00  0.00    +0.000 A 
ATOM      5  C   UNL     1       1.295  10.593  18.417  0.00  0.00    +0.000 C 
ATOM      6  N   UNL     1       1.398   8.637  20.041  0.00  0.00    +0.000 N 
ATOM      7  C   UNL     1       2.208   7.734  19.275  0.00  0.00    +0.000 A 
ATOM      8  C   UNL     1       2.365   6.435  19.731  0.00  0.00    +0.000 A 
ATOM      9  C   UNL     1       3.102   5.560  18.956  0.00  0.00    +0.000 A 
ATOM     10  N   UNL     1       3.674   5.991  17.815  0.00  0.00    +0.000 NA
ATOM     11  C   UNL     1       3.493   7.268  17.464  0.00  0.00    +0.000 A 
ATOM     12  N   UNL     1       2.775   8.172  18.131  0.00  0.00    +0.000 NA
ATOM     13  N   UNL     1       0.914   8.272  21.264  0.00  0.00    +0.000 NA
ENDROOT
BRANCH   9  14
ATOM     14  N   UNL     1       3.237   4.233  19.287  0.00  0.00    +0.000 N 
ATOM     15  C   UNL     1       4.288   3.354  18.767  0.00  0.00    +0.000 C 
ATOM     16  C   UNL     1       3.660   2.164  18.019  0.00  0.00    +0.000 C 
ATOM     17  O   UNL     1       2.694   1.470  18.825  0.00  0.00    +0.000 OA
ATOM     18  C   UNL     1       1.633   2.365  19.204  0.00  0.00    +0.000 C 
ATOM     19  C   UNL     1       2.167   3.544  20.023  0.00  0.00    +0.000 C 
ENDBRANCH   9  14
TORSDOF 1
ENDMDL
MODEL 4
REMARK VINA RESULT:      -6.7      0.816      1.394
REMARK  Name = 
REMARK  3 active torsions:
REMARK  status: ('A' for Active; 'I' for Inactive)
REMARK    1  A    between atoms: C_1  and  C_2
REMARK    2  A    between atoms: C_4  and  C_5
REMARK    3  A    between atoms: C_9  and  N_10
REMARK                            x       y       z     vdW  Elec       q    Type
REMARK                         _______ _______ _______ _____ _____    ______ ____
ROOT
ATOM      1  C   UNL     1       5.268   2.218  11.237  0.00  0.00    +0.000 C 
ATOM      2  C   UNL     1       5.914   3.194  12.148  0.00  0.00    +0.000 A 
ATOM      3  C   UNL     1       7.059   3.974  11.910  0.00  0.00    +0.000 A 
ATOM      4  C   UNL     1       7.244   4.717  13.056  0.00  0.00    +0.000 A 
ATOM      5  C   UNL     1       8.324   5.681  13.386  0.00  0.00    +0.000 C 
ATOM      6  N   UNL     1       6.199   4.385  13.911  0.00  0.00    +0.000 N 
ATOM      7  C   UNL     1       5.902   4.929  15.205  0.00  0.00    +0.000 A 
ATOM      8  C   UNL     1       4.889   4.348  15.950  0.00  0.00    +0.000 A 
ATOM      9  C   UNL     1       4.649   4.847  17.217  0.00  0.00    +0.000 A 
ATOM     10  N   UNL     1       5.365   5.890  17.675  0.00  0.00    +0.000 NA
ATOM     11  C   UNL     1       6.306   6.406  16.878  0.00  0.00    +0.000 A 
ATOM     12  N   UNL     1       6.626   5.973  15.658  0.00  0.00    +0.000 NA
ATOM     13  N   UNL     1       5.408   3.415  13.364  0.00  0.00    +0.000 NA
ENDROOT
BRANCH   9  14
ATOM     14  N   UNL     1       3.723   4.277  18.058  0.00  0.00    +0.000 N 
ATOM     15  C   UNL     1       2.733   5.033  18.830  0.00  0.00    +0.000 C 
ATOM     16  C   UNL     1       2.918   4.764  20.335  0.00  0.00    +0.000 C 
ATOM     17  O   UNL     1       2.913   3.358  20.635  0.00  0.00    +0.000 OA
ATOM     18  C   UNL     1       3.982   2.699  19.933  0.00  0.00    +0.000 C 
ATOM     19  C   UNL     1       3.828   2.855  18.416  0.00  0.00    +0.000 C 
ENDBRANCH   9  14
TORSDOF 1
ENDMDL
MODEL 5
REMARK VINA RESULT:      -6.5      4.948      7.551
REMARK  Name = 
REMARK  3 active torsions:
REMARK  status: ('A' for Active; 'I' for Inactive)
REMARK    1  A    between atoms: C_1  and  C_2
REMARK    2  A    between atoms: C_4  and  C_5
REMARK    3  A    between atoms: C_9  and  N_10
REMARK                            x       y       z     vdW  Elec       q    Type
REMARK                         _______ _______ _______ _____ _____    ______ ____
ROOT
ATOM      1  C   UNL     1       2.027   2.696  21.778  0.00  0.00    +0.000 C 
ATOM      2  C   UNL     1       2.329   3.658  20.691  0.00  0.00    +0.000 A 
ATOM      3  C   UNL     1       2.948   3.402  19.455  0.00  0.00    +0.000 A 
ATOM      4  C   UNL     1       2.990   4.616  18.803  0.00  0.00    +0.000 A 
ATOM      5  C   UNL     1       3.573   4.952  17.481  0.00  0.00    +0.000 C 
ATOM      6  N   UNL     1       2.371   5.533  19.646  0.00  0.00    +0.000 N 
ATOM      7  C   UNL     1       2.103   6.921  19.404  0.00  0.00    +0.000 A 
ATOM      8  C   UNL     1       1.602   7.689  20.443  0.00  0.00    +0.000 A 
ATOM      9  C   UNL     1       1.399   9.037  20.214  0.00  0.00    +0.000 A 
ATOM     10  N   UNL     1       1.652   9.557  18.997  0.00  0.00    +0.000 NA
ATOM     11  C   UNL     1       2.108   8.738  18.045  0.00  0.00    +0.000 A 
ATOM     12  N   UNL     1       2.361   7.435  18.184  0.00  0.00    +0.000 NA
ATOM     13  N   UNL     1       2.005   4.947  20.824  0.00  0.00    +0.000 NA
ENDROOT
BRANCH   9  14
ATOM     14  N   UNL     1       0.988   9.890  21.210  0.00  0.00    +0.000 N 
ATOM     15  C   UNL     1       0.770   9.489  22.603  0.00  0.00    +0.000 C 
ATOM     16  C   UNL     1      -0.687   9.772  23.012  0.00  0.00    +0.000 C 
ATOM     17  O   UNL     1      -1.065  11.134  22.751  0.00  0.00    +0.000 OA
ATOM     18  C   UNL     1      -0.935  11.424  21.348  0.00  0.00    +0.000 C 
ATOM     19  C   UNL     1       0.511  11.240  20.876  0.00  0.00    +0.000 C 
ENDBRANCH   9  14
TORSDOF 1
ENDMDL
MODEL 6
REMARK VINA RESULT:      -6.5      3.517      5.787
REMARK  Name = 
REMARK  3 active torsions:
REMARK  status: ('A' for Active; 'I' for Inactive)
REMARK    1  A    between atoms: C_1  and  C_2
REMARK    2  A    between atoms: C_4  and  C_5
REMARK    3  A    between atoms: C_9  and  N_10
REMARK                            x       y       z     vdW  Elec       q    Type
REMARK                         _______ _______ _______ _____ _____    ______ ____
ROOT
ATOM      1  C   UNL     1       6.011   5.489  15.010  0.00  0.00    +0.000 C 
ATOM      2  C   UNL     1       5.165   4.945  16.100  0.00  0.00    +0.000 A 
ATOM      3  C   UNL     1       4.986   3.600  16.468  0.00  0.00    +0.000 A 
ATOM      4  C   UNL     1       4.116   3.622  17.537  0.00  0.00    +0.000 A 
ATOM      5  C   UNL     1       3.539   2.488  18.301  0.00  0.00    +0.000 C 
ATOM      6  N   UNL     1       3.838   4.961  17.787  0.00  0.00    +0.000 N 
ATOM      7  C   UNL     1       3.034   5.521  18.835  0.00  0.00    +0.000 A 
ATOM      8  C   UNL     1       2.772   6.882  18.813  0.00  0.00    +0.000 A 
ATOM      9  C   UNL     1       1.952   7.400  19.798  0.00  0.00    +0.000 A 
ATOM     10  N   UNL     1       1.466   6.593  20.760  0.00  0.00    +0.000 NA
ATOM     11  C   UNL     1       1.791   5.298  20.719  0.00  0.00    +0.000 A 
ATOM     12  N   UNL     1       2.549   4.706  19.794  0.00  0.00    +0.000 NA
ATOM     13  N   UNL     1       4.452   5.768  16.872  0.00  0.00    +0.000 NA
ENDROOT
BRANCH   9  14
ATOM     14  N   UNL     1       1.569   8.720  19.804  0.00  0.00    +0.000 N 
ATOM     15  C   UNL     1       0.993   9.408  20.964  0.00  0.00    +0.000 C 
ATOM     16  C   UNL     1      -0.405   9.949  20.616  0.00  0.00    +0.000 C 
ATOM     17  O   UNL     1      -0.390  10.760  19.430  0.00  0.00    +0.000 OA
ATOM     18  C   UNL     1       0.077   9.988  18.309  0.00  0.00    +0.000 C 
ATOM     19  C   UNL     1       1.502   9.474  18.545  0.00  0.00    +0.000 C 
ENDBRANCH   9  14
TORSDOF 1
ENDMDL
MODEL 7
REMARK VINA RESULT:      -6.4      4.835      7.281
REMARK  Name = 
REMARK  3 active torsions:
REMARK  status: ('A' for Active; 'I' for Inactive)
REMARK    1  A    between atoms: C_1  and  C_2
REMARK    2  A    between atoms: C_4  and  C_5
REMARK    3  A    between atoms: C_9  and  N_10
REMARK                            x       y       z     vdW  Elec       q    Type
REMARK                         _______ _______ _______ _____ _____    ______ ____
ROOT
ATOM      1  C   UNL     1       2.982   3.064  20.598  0.00  0.00    +0.000 C 
ATOM      2  C   UNL     1       3.222   4.288  19.795  0.00  0.00    +0.000 A 
ATOM      3  C   UNL     1       4.167   4.480  18.772  0.00  0.00    +0.000 A 
ATOM      4  C   UNL     1       3.985   5.776  18.340  0.00  0.00    +0.000 A 
ATOM      5  C   UNL     1       4.736   6.536  17.308  0.00  0.00    +0.000 C 
ATOM      6  N   UNL     1       2.931   6.292  19.084  0.00  0.00    +0.000 N 
ATOM      7  C   UNL     1       2.312   7.582  18.973  0.00  0.00    +0.000 A 
ATOM      8  C   UNL     1       1.364   7.944  19.917  0.00  0.00    +0.000 A 
ATOM      9  C   UNL     1       0.815   9.210  19.831  0.00  0.00    +0.000 A 
ATOM     10  N   UNL     1       1.178  10.033  18.828  0.00  0.00    +0.000 NA
ATOM     11  C   UNL     1       2.080   9.591  17.947  0.00  0.00    +0.000 A 
ATOM     12  N   UNL     1       2.682   8.401  17.968  0.00  0.00    +0.000 NA
ATOM     13  N   UNL     1       2.493   5.386  20.008  0.00  0.00    +0.000 NA
ENDROOT
BRANCH   9  14
ATOM     14  N   UNL     1      -0.066   9.685  20.772  0.00  0.00    +0.000 N 
ATOM     15  C   UNL     1      -0.589  11.055  20.798  0.00  0.00    +0.000 C 
ATOM     16  C   UNL     1      -0.217  11.738  22.127  0.00  0.00    +0.000 C 
ATOM     17  O   UNL     1      -0.621  10.958  23.265  0.00  0.00    +0.000 OA
ATOM     18  C   UNL     1       0.019   9.670  23.234  0.00  0.00    +0.000 C 
ATOM     19  C   UNL     1      -0.364   8.890  21.972  0.00  0.00    +0.000 C 
ENDBRANCH   9  14
TORSDOF 1
ENDMDL
MODEL 8
REMARK VINA RESULT:      -6.4      2.441      6.186
REMARK  Name = 
REMARK  3 active torsions:
REMARK  status: ('A' for Active; 'I' for Inactive)
REMARK    1  A    between atoms: C_1  and  C_2
REMARK    2  A    between atoms: C_4  and  C_5
REMARK    3  A    between atoms: C_9  and  N_10
REMARK                            x       y       z     vdW  Elec       q    Type
REMARK                         _______ _______ _______ _____ _____    ______ ____
ROOT
ATOM      1  C   UNL     1       1.072   2.076  18.573  0.00  0.00    +0.000 C 
ATOM      2  C   UNL     1       1.760   3.390  18.538  0.00  0.00    +0.000 A 
ATOM      3  C   UNL     1       1.452   4.548  19.273  0.00  0.00    +0.000 A 
ATOM      4  C   UNL     1       2.385   5.488  18.889  0.00  0.00    +0.000 A 
ATOM      5  C   UNL     1       2.516   6.906  19.307  0.00  0.00    +0.000 C 
ATOM      6  N   UNL     1       3.224   4.856  17.978  0.00  0.00    +0.000 N 
ATOM      7  C   UNL     1       4.392   5.383  17.332  0.00  0.00    +0.000 A 
ATOM      8  C   UNL     1       5.002   4.625  16.346  0.00  0.00    +0.000 A 
ATOM      9  C   UNL     1       6.093   5.166  15.693  0.00  0.00    +0.000 A 
ATOM     10  N   UNL     1       6.555   6.380  16.050  0.00  0.00    +0.000 NA
ATOM     11  C   UNL     1       5.921   7.031  17.031  0.00  0.00    +0.000 A 
ATOM     12  N   UNL     1       4.847   6.601  17.693  0.00  0.00    +0.000 NA
ATOM     13  N   UNL     1       2.809   3.578  17.733  0.00  0.00    +0.000 NA
ENDROOT
BRANCH   9  14
ATOM     14  N   UNL     1       6.706   4.523  14.645  0.00  0.00    +0.000 N 
ATOM     15  C   UNL     1       7.856   5.054  13.908  0.00  0.00    +0.000 C 
ATOM     16  C   UNL     1       7.504   5.209  12.417  0.00  0.00    +0.000 C 
ATOM     17  O   UNL     1       6.989   3.990  11.856  0.00  0.00    +0.000 OA
ATOM     18  C   UNL     1       5.797   3.589  12.554  0.00  0.00    +0.000 C 
ATOM     19  C   UNL     1       6.080   3.339  14.039  0.00  0.00    +0.000 C 
ENDBRANCH   9  14
TORSDOF 1
ENDMDL
MODEL 9
REMARK VINA RESULT:      -6.4      4.651      7.793
REMARK  Name = 
REMARK  3 active torsions:
REMARK  status: ('A' for Active; 'I' for Inactive)
REMARK    1  A    between atoms: C_1  and  C_2
REMARK    2  A    between atoms: C_4  and  C_5
REMARK    3  A    between atoms: C_9  and  N_10
REMARK                            x       y       z     vdW  Elec       q    Type
REMARK                         _______ _______ _______ _____ _____    ______ ____
ROOT
ATOM      1  C   UNL     1      -0.297   9.587  23.303  0.00  0.00    +0.000 C 
ATOM      2  C   UNL     1       0.296   9.595  21.944  0.00  0.00    +0.000 A 
ATOM      3  C   UNL     1       0.405  10.678  21.053  0.00  0.00    +0.000 A 
ATOM      4  C   UNL     1       1.035  10.173  19.935  0.00  0.00    +0.000 A 
ATOM      5  C   UNL     1       1.371  10.855  18.660  0.00  0.00    +0.000 C 
ATOM      6  N   UNL     1       1.307   8.837  20.209  0.00  0.00    +0.000 N 
ATOM      7  C   UNL     1       2.007   7.888  19.392  0.00  0.00    +0.000 A 
ATOM      8  C   UNL     1       2.040   6.564  19.798  0.00  0.00    +0.000 A 
ATOM      9  C   UNL     1       2.671   5.649  18.975  0.00  0.00    +0.000 A 
ATOM     10  N   UNL     1       3.261   6.064  17.837  0.00  0.00    +0.000 NA
ATOM     11  C   UNL     1       3.203   7.365  17.537  0.00  0.00    +0.000 A 
ATOM     12  N   UNL     1       2.593   8.311  18.253  0.00  0.00    +0.000 NA
ATOM     13  N   UNL     1       0.812   8.476  21.429  0.00  0.00    +0.000 NA
ENDROOT
BRANCH   9  14
ATOM     14  N   UNL     1       2.677   4.304  19.254  0.00  0.00    +0.000 N 
ATOM     15  C   UNL     1       1.807   3.661  20.243  0.00  0.00    +0.000 C 
ATOM     16  C   UNL     1       2.656   2.961  21.320  0.00  0.00    +0.000 C 
ATOM     17  O   UNL     1       3.618   2.061  20.746  0.00  0.00    +0.000 OA
ATOM     18  C   UNL     1       4.510   2.780  19.876  0.00  0.00    +0.000 C 
ATOM     19  C   UNL     1       3.747   3.445  18.726  0.00  0.00    +0.000 C 
ENDBRANCH   9  14
TORSDOF 1
ENDMDL
