MODEL 1
REMARK VINA RESULT:      -9.9      0.000      0.000
REMARK  Name = 
REMARK  3 active torsions:
REMARK  status: ('A' for Active; 'I' for Inactive)
REMARK    1  A    between atoms: C_2  and  O_3
REMARK    2  A    between atoms: C_2  and  C_4
REMARK    3  A    between atoms: C_18  and  C_19
REMARK                            x       y       z     vdW  Elec       q    Type
REMARK                         _______ _______ _______ _____ _____    ______ ____
ROOT
ATOM      1  C   UNL     1       3.704   4.021  17.942  0.00  0.00    +0.000 A 
ATOM      2  C   UNL     1       2.987   4.934  18.729  0.00  0.00    +0.000 A 
ATOM      3  C   UNL     1       3.057   6.281  18.381  0.00  0.00    +0.000 A 
ATOM      4  N   UNL     1       3.834   6.728  17.366  0.00  0.00    +0.000 NA
ATOM      5  C   UNL     1       4.541   5.860  16.638  0.00  0.00    +0.000 A 
ATOM      6  C   UNL     1       5.331   6.382  15.621  0.00  0.00    +0.000 A 
ATOM      7  C   UNL     1       6.106   5.568  14.797  0.00  0.00    +0.000 A 
ATOM      8  C   UNL     1       6.063   4.200  14.981  0.00  0.00    +0.000 A 
ATOM      9  F   UNL     1       6.808   3.402  14.208  0.00  0.00    +0.000 F 
ATOM     10  C   UNL     1       5.262   3.642  15.972  0.00  0.00    +0.000 A 
ATOM     11  C   UNL     1       4.508   4.466  16.853  0.00  0.00    +0.000 A 
ATOM     12  C   UNL     1       2.272   7.301  19.104  0.00  0.00    +0.000 A 
ATOM     13  C   UNL     1       2.057   8.585  18.594  0.00  0.00    +0.000 A 
ATOM     14  C   UNL     1       1.309   9.531  19.304  0.00  0.00    +0.000 A 
ATOM     15  C   UNL     1       0.738   9.238  20.554  0.00  0.00    +0.000 A 
ATOM     16  C   UNL     1       0.952   7.944  21.063  0.00  0.00    +0.000 A 
ATOM     17  C   UNL     1       1.702   6.987  20.352  0.00  0.00    +0.000 A 
ATOM     18  C   UNL     1       1.981   5.631  20.952  0.00  0.00    +0.000 C 
ATOM     19  C   UNL     1       2.076   4.540  19.875  0.00  0.00    +0.000 C 
ENDROOT
BRANCH  15  20
ATOM     20  C   UNL     1      -0.026  10.266  21.304  0.00  0.00    +0.000 A 
ATOM     21  C   UNL     1      -0.539  10.003  22.589  0.00  0.00    +0.000 A 
ATOM     22  C   UNL     1      -1.329  10.936  23.269  0.00  0.00    +0.000 A 
ATOM     23  C   UNL     1      -1.605  12.168  22.689  0.00  0.00    +0.000 A 
ATOM     24  C   UNL     1      -1.083  12.471  21.436  0.00  0.00    +0.000 A 
ATOM     25  C   UNL     1      -0.306  11.530  20.752  0.00  0.00    +0.000 A 
ENDBRANCH  15  20
BRANCH   1  27
ATOM     26  O   UNL     1       2.664   1.886  17.771  0.00  0.00    +0.000 OA
ATOM     27  C   UNL     1       3.561   2.568  18.237  0.00  0.00    +0.000 C 
BRANCH  27  28
ATOM     28  O   UNL     1       4.464   2.088  19.116  0.00  0.00    +0.000 OA
ATOM     29  H   UNL     1       4.917   1.265  18.855  0.00  0.00    +0.000 HD
ENDBRANCH  27  28
ENDBRANCH   1  27
TORSDOF 3
ENDMDL
MODEL 2
REMARK VINA RESULT:      -9.8      0.206      1.099
REMARK  Name = 
REMARK  3 active torsions:
REMARK  status: ('A' for Active; 'I' for Inactive)
REMARK    1  A    between atoms: C_2  and  O_3
REMARK    2  A    between atoms: C_2  and  C_4
REMARK    3  A    between atoms: C_18  and  C_19
REMARK                            x       y       z     vdW  Elec       q    Type
REMARK                         _______ _______ _______ _____ _____    ______ ____
ROOT
ATOM      1  C   UNL     1       3.581   3.984  17.984  0.00  0.00    +0.000 A 
ATOM      2  C   UNL     1       2.884   4.917  18.767  0.00  0.00    +0.000 A 
ATOM      3  C   UNL     1       3.001   6.262  18.424  0.00  0.00    +0.000 A 
ATOM      4  N   UNL     1       3.803   6.688  17.420  0.00  0.00    +0.000 NA
ATOM      5  C   UNL     1       4.490   5.801  16.696  0.00  0.00    +0.000 A 
ATOM      6  C   UNL     1       5.307   6.302  15.690  0.00  0.00    +0.000 A 
ATOM      7  C   UNL     1       6.065   5.467  14.871  0.00  0.00    +0.000 A 
ATOM      8  C   UNL     1       5.977   4.101  15.049  0.00  0.00    +0.000 A 
ATOM      9  F   UNL     1       6.705   3.282  14.281  0.00  0.00    +0.000 F 
ATOM     10  C   UNL     1       5.148   3.565  16.029  0.00  0.00    +0.000 A 
ATOM     11  C   UNL     1       4.411   4.408  16.905  0.00  0.00    +0.000 A 
ATOM     12  C   UNL     1       2.241   7.303  19.143  0.00  0.00    +0.000 A 
ATOM     13  C   UNL     1       2.071   8.595  18.636  0.00  0.00    +0.000 A 
ATOM     14  C   UNL     1       1.346   9.562  19.343  0.00  0.00    +0.000 A 
ATOM     15  C   UNL     1       0.752   9.282  20.585  0.00  0.00    +0.000 A 
ATOM     16  C   UNL     1       0.919   7.981  21.090  0.00  0.00    +0.000 A 
ATOM     17  C   UNL     1       1.647   7.003  20.384  0.00  0.00    +0.000 A 
ATOM     18  C   UNL     1       1.876   5.637  20.982  0.00  0.00    +0.000 C 
ATOM     19  C   UNL     1       1.949   4.547  19.901  0.00  0.00    +0.000 C 
ENDROOT
BRANCH  15  20
ATOM     20  C   UNL     1       0.013  10.332  21.330  0.00  0.00    +0.000 A 
ATOM     21  C   UNL     1       0.009  11.672  20.896  0.00  0.00    +0.000 A 
ATOM     22  C   UNL     1      -0.616  12.681  21.635  0.00  0.00    +0.000 A 
ATOM     23  C   UNL     1      -1.276  12.370  22.817  0.00  0.00    +0.000 A 
ATOM     24  C   UNL     1      -1.321  11.050  23.254  0.00  0.00    +0.000 A 
ATOM     25  C   UNL     1      -0.682  10.045  22.520  0.00  0.00    +0.000 A 
ENDBRANCH  15  20
BRANCH   1  27
ATOM     26  O   UNL     1       4.108   1.914  19.035  0.00  0.00    +0.000 OA
ATOM     27  C   UNL     1       3.389   2.536  18.271  0.00  0.00    +0.000 C 
BRANCH  27  28
ATOM     28  O   UNL     1       2.399   1.956  17.562  0.00  0.00    +0.000 OA
ATOM     29  H   UNL     1       1.680   2.548  17.272  0.00  0.00    +0.000 HD
ENDBRANCH  27  28
ENDBRANCH   1  27
TORSDOF 3
ENDMDL
MODEL 3
REMARK VINA RESULT:      -9.1      0.850      1.129
REMARK  Name = 
REMARK  3 active torsions:
REMARK  status: ('A' for Active; 'I' for Inactive)
REMARK    1  A    between atoms: C_2  and  O_3
REMARK    2  A    between atoms: C_2  and  C_4
REMARK    3  A    between atoms: C_18  and  C_19
REMARK                            x       y       z     vdW  Elec       q    Type
REMARK                         _______ _______ _______ _____ _____    ______ ____
ROOT
ATOM      1  C   UNL     1       3.485   4.560  18.438  0.00  0.00    +0.000 A 
ATOM      2  C   UNL     1       2.732   5.565  19.064  0.00  0.00    +0.000 A 
ATOM      3  C   UNL     1       2.793   6.847  18.526  0.00  0.00    +0.000 A 
ATOM      4  N   UNL     1       3.593   7.158  17.479  0.00  0.00    +0.000 NA
ATOM      5  C   UNL     1       4.334   6.207  16.904  0.00  0.00    +0.000 A 
ATOM      6  C   UNL     1       5.146   6.592  15.844  0.00  0.00    +0.000 A 
ATOM      7  C   UNL     1       5.957   5.681  15.168  0.00  0.00    +0.000 A 
ATOM      8  C   UNL     1       5.928   4.354  15.547  0.00  0.00    +0.000 A 
ATOM      9  F   UNL     1       6.708   3.466  14.920  0.00  0.00    +0.000 F 
ATOM     10  C   UNL     1       5.106   3.930  16.587  0.00  0.00    +0.000 A 
ATOM     11  C   UNL     1       4.315   4.858  17.318  0.00  0.00    +0.000 A 
ATOM     12  C   UNL     1       1.973   7.947  19.072  0.00  0.00    +0.000 A 
ATOM     13  C   UNL     1       1.754   9.139  18.375  0.00  0.00    +0.000 A 
ATOM     14  C   UNL     1       0.972  10.164  18.921  0.00  0.00    +0.000 A 
ATOM     15  C   UNL     1       0.368  10.044  20.184  0.00  0.00    +0.000 A 
ATOM     16  C   UNL     1       0.585   8.842  20.880  0.00  0.00    +0.000 A 
ATOM     17  C   UNL     1       1.370   7.806  20.337  0.00  0.00    +0.000 A 
ATOM     18  C   UNL     1       1.650   6.557  21.135  0.00  0.00    +0.000 C 
ATOM     19  C   UNL     1       1.793   5.323  20.230  0.00  0.00    +0.000 C 
ENDROOT
BRANCH  15  20
ATOM     20  C   UNL     1      -0.433  11.156  20.755  0.00  0.00    +0.000 A 
ATOM     21  C   UNL     1      -0.291  11.542  22.102  0.00  0.00    +0.000 A 
ATOM     22  C   UNL     1      -1.098  12.532  22.671  0.00  0.00    +0.000 A 
ATOM     23  C   UNL     1      -2.052  13.181  21.898  0.00  0.00    +0.000 A 
ATOM     24  C   UNL     1      -2.192  12.846  20.554  0.00  0.00    +0.000 A 
ATOM     25  C   UNL     1      -1.394  11.845  19.992  0.00  0.00    +0.000 A 
ENDBRANCH  15  20
BRANCH   1  27
ATOM     26  O   UNL     1       4.096   2.693  19.782  0.00  0.00    +0.000 OA
ATOM     27  C   UNL     1       3.355   3.163  18.936  0.00  0.00    +0.000 C 
BRANCH  27  28
ATOM     28  O   UNL     1       2.394   2.443  18.324  0.00  0.00    +0.000 OA
ATOM     29  H   UNL     1       2.704   1.701  17.771  0.00  0.00    +0.000 HD
ENDBRANCH  27  28
ENDBRANCH   1  27
TORSDOF 3
ENDMDL
MODEL 4
REMARK VINA RESULT:      -9.0      2.268      3.794
REMARK  Name = 
REMARK  3 active torsions:
REMARK  status: ('A' for Active; 'I' for Inactive)
REMARK    1  A    between atoms: C_2  and  O_3
REMARK    2  A    between atoms: C_2  and  C_4
REMARK    3  A    between atoms: C_18  and  C_19
REMARK                            x       y       z     vdW  Elec       q    Type
REMARK                         _______ _______ _______ _____ _____    ______ ____
ROOT
ATOM      1  C   UNL     1       3.682   5.871  18.515  0.00  0.00    +0.000 A 
ATOM      2  C   UNL     1       2.911   7.018  18.753  0.00  0.00    +0.000 A 
ATOM      3  C   UNL     1       2.062   7.007  19.857  0.00  0.00    +0.000 A 
ATOM      4  N   UNL     1       1.914   5.919  20.649  0.00  0.00    +0.000 NA
ATOM      5  C   UNL     1       2.626   4.816  20.402  0.00  0.00    +0.000 A 
ATOM      6  C   UNL     1       2.419   3.728  21.241  0.00  0.00    +0.000 A 
ATOM      7  C   UNL     1       3.111   2.529  21.077  0.00  0.00    +0.000 A 
ATOM      8  C   UNL     1       4.049   2.433  20.069  0.00  0.00    +0.000 A 
ATOM      9  F   UNL     1       4.715   1.287  19.888  0.00  0.00    +0.000 F 
ATOM     10  C   UNL     1       4.300   3.512  19.228  0.00  0.00    +0.000 A 
ATOM     11  C   UNL     1       3.563   4.722  19.351  0.00  0.00    +0.000 A 
ATOM     12  C   UNL     1       1.274   8.199  20.228  0.00  0.00    +0.000 A 
ATOM     13  C   UNL     1       0.677   8.344  21.484  0.00  0.00    +0.000 A 
ATOM     14  C   UNL     1      -0.067   9.486  21.806  0.00  0.00    +0.000 A 
ATOM     15  C   UNL     1      -0.243  10.538  20.891  0.00  0.00    +0.000 A 
ATOM     16  C   UNL     1       0.362  10.392  19.630  0.00  0.00    +0.000 A 
ATOM     17  C   UNL     1       1.112   9.246  19.300  0.00  0.00    +0.000 A 
ATOM     18  C   UNL     1       1.689   9.078  17.916  0.00  0.00    +0.000 C 
ATOM     19  C   UNL     1       3.010   8.294  17.940  0.00  0.00    +0.000 C 
ENDROOT
BRANCH  15  20
ATOM     20  C   UNL     1      -1.060  11.726  21.243  0.00  0.00    +0.000 A 
ATOM     21  C   UNL     1      -1.113  12.211  22.564  0.00  0.00    +0.000 A 
ATOM     22  C   UNL     1      -1.943  13.279  22.922  0.00  0.00    +0.000 A 
ATOM     23  C   UNL     1      -2.723  13.906  21.959  0.00  0.00    +0.000 A 
ATOM     24  C   UNL     1      -2.665  13.473  20.638  0.00  0.00    +0.000 A 
ATOM     25  C   UNL     1      -1.846  12.395  20.286  0.00  0.00    +0.000 A 
ENDBRANCH  15  20
BRANCH   1  27
ATOM     26  O   UNL     1       4.446   5.409  16.308  0.00  0.00    +0.000 OA
ATOM     27  C   UNL     1       4.670   5.900  17.401  0.00  0.00    +0.000 C 
BRANCH  27  28
ATOM     28  O   UNL     1       5.856   6.454  17.725  0.00  0.00    +0.000 OA
ATOM     29  H   UNL     1       6.236   6.176  18.580  0.00  0.00    +0.000 HD
ENDBRANCH  27  28
ENDBRANCH   1  27
TORSDOF 3
ENDMDL
MODEL 5
REMARK VINA RESULT:      -8.9      1.085      1.387
REMARK  Name = 
REMARK  3 active torsions:
REMARK  status: ('A' for Active; 'I' for Inactive)
REMARK    1  A    between atoms: C_2  and  O_3
REMARK    2  A    between atoms: C_2  and  C_4
REMARK    3  A    between atoms: C_18  and  C_19
REMARK                            x       y       z     vdW  Elec       q    Type
REMARK                         _______ _______ _______ _____ _____    ______ ____
ROOT
ATOM      1  C   UNL     1       3.419   4.649  18.479  0.00  0.00    +0.000 A 
ATOM      2  C   UNL     1       2.695   5.702  19.057  0.00  0.00    +0.000 A 
ATOM      3  C   UNL     1       2.791   6.956  18.459  0.00  0.00    +0.000 A 
ATOM      4  N   UNL     1       3.598   7.194  17.399  0.00  0.00    +0.000 NA
ATOM      5  C   UNL     1       4.311   6.197  16.868  0.00  0.00    +0.000 A 
ATOM      6  C   UNL     1       5.132   6.509  15.792  0.00  0.00    +0.000 A 
ATOM      7  C   UNL     1       5.917   5.545  15.160  0.00  0.00    +0.000 A 
ATOM      8  C   UNL     1       5.852   4.239  15.601  0.00  0.00    +0.000 A 
ATOM      9  F   UNL     1       6.605   3.301  15.015  0.00  0.00    +0.000 F 
ATOM     10  C   UNL     1       5.020   3.888  16.659  0.00  0.00    +0.000 A 
ATOM     11  C   UNL     1       4.255   4.871  17.346  0.00  0.00    +0.000 A 
ATOM     12  C   UNL     1       2.002   8.101  18.953  0.00  0.00    +0.000 A 
ATOM     13  C   UNL     1       1.815   9.266  18.201  0.00  0.00    +0.000 A 
ATOM     14  C   UNL     1       1.062  10.336  18.697  0.00  0.00    +0.000 A 
ATOM     15  C   UNL     1       0.457  10.292  19.965  0.00  0.00    +0.000 A 
ATOM     16  C   UNL     1       0.642   9.119  20.717  0.00  0.00    +0.000 A 
ATOM     17  C   UNL     1       1.397   8.037  20.222  0.00  0.00    +0.000 A 
ATOM     18  C   UNL     1       1.644   6.819  21.078  0.00  0.00    +0.000 C 
ATOM     19  C   UNL     1       1.751   5.541  20.233  0.00  0.00    +0.000 C 
ENDROOT
BRANCH  15  20
ATOM     20  C   UNL     1      -0.312  11.452  20.483  0.00  0.00    +0.000 A 
ATOM     21  C   UNL     1      -1.503  11.876  19.861  0.00  0.00    +0.000 A 
ATOM     22  C   UNL     1      -2.190  13.015  20.292  0.00  0.00    +0.000 A 
ATOM     23  C   UNL     1      -1.716  13.745  21.374  0.00  0.00    +0.000 A 
ATOM     24  C   UNL     1      -0.562  13.331  22.032  0.00  0.00    +0.000 A 
ATOM     25  C   UNL     1       0.132  12.200  21.589  0.00  0.00    +0.000 A 
ENDBRANCH  15  20
BRANCH   1  27
ATOM     26  O   UNL     1       2.341   2.539  18.711  0.00  0.00    +0.000 OA
ATOM     27  C   UNL     1       3.251   3.281  19.042  0.00  0.00    +0.000 C 
BRANCH  27  28
ATOM     28  O   UNL     1       4.146   2.960  19.997  0.00  0.00    +0.000 OA
ATOM     29  H   UNL     1       5.070   2.858  19.700  0.00  0.00    +0.000 HD
ENDBRANCH  27  28
ENDBRANCH   1  27
TORSDOF 3
ENDMDL
MODEL 6
REMARK VINA RESULT:      -8.8      2.259      3.908
REMARK  Name = 
REMARK  3 active torsions:
REMARK  status: ('A' for Active; 'I' for Inactive)
REMARK    1  A    between atoms: C_2  and  O_3
REMARK    2  A    between atoms: C_2  and  C_4
REMARK    3  A    between atoms: C_18  and  C_19
REMARK                            x       y       z     vdW  Elec       q    Type
REMARK                         _______ _______ _______ _____ _____    ______ ____
ROOT
ATOM      1  C   UNL     1       3.744   5.836  18.561  0.00  0.00    +0.000 A 
ATOM      2  C   UNL     1       2.961   6.977  18.793  0.00  0.00    +0.000 A 
ATOM      3  C   UNL     1       2.093   6.954  19.881  0.00  0.00    +0.000 A 
ATOM      4  N   UNL     1       1.939   5.860  20.664  0.00  0.00    +0.000 NA
ATOM      5  C   UNL     1       2.662   4.763  20.423  0.00  0.00    +0.000 A 
ATOM      6  C   UNL     1       2.448   3.668  21.251  0.00  0.00    +0.000 A 
ATOM      7  C   UNL     1       3.150   2.475  21.093  0.00  0.00    +0.000 A 
ATOM      8  C   UNL     1       4.106   2.391  20.101  0.00  0.00    +0.000 A 
ATOM      9  F   UNL     1       4.783   1.250  19.924  0.00  0.00    +0.000 F 
ATOM     10  C   UNL     1       4.365   3.477  19.271  0.00  0.00    +0.000 A 
ATOM     11  C   UNL     1       3.618   4.682  19.388  0.00  0.00    +0.000 A 
ATOM     12  C   UNL     1       1.291   8.138  20.246  0.00  0.00    +0.000 A 
ATOM     13  C   UNL     1       0.671   8.272  21.492  0.00  0.00    +0.000 A 
ATOM     14  C   UNL     1      -0.085   9.407  21.808  0.00  0.00    +0.000 A 
ATOM     15  C   UNL     1      -0.253  10.463  20.896  0.00  0.00    +0.000 A 
ATOM     16  C   UNL     1       0.375  10.328  19.645  0.00  0.00    +0.000 A 
ATOM     17  C   UNL     1       1.138   9.189  19.322  0.00  0.00    +0.000 A 
ATOM     18  C   UNL     1       1.740   9.034  17.947  0.00  0.00    +0.000 C 
ATOM     19  C   UNL     1       3.065   8.258  17.989  0.00  0.00    +0.000 C 
ENDROOT
BRANCH  15  20
ATOM     20  C   UNL     1      -1.084  11.644  21.241  0.00  0.00    +0.000 A 
ATOM     21  C   UNL     1      -1.787  12.357  20.251  0.00  0.00    +0.000 A 
ATOM     22  C   UNL     1      -2.506  13.518  20.553  0.00  0.00    +0.000 A 
ATOM     23  C   UNL     1      -2.560  13.981  21.862  0.00  0.00    +0.000 A 
ATOM     24  C   UNL     1      -1.904  13.278  22.868  0.00  0.00    +0.000 A 
ATOM     25  C   UNL     1      -1.174  12.126  22.560  0.00  0.00    +0.000 A 
ENDBRANCH  15  20
BRANCH   1  27
ATOM     26  O   UNL     1       5.804   6.485  17.560  0.00  0.00    +0.000 OA
ATOM     27  C   UNL     1       4.750   5.878  17.465  0.00  0.00    +0.000 C 
BRANCH  27  28
ATOM     28  O   UNL     1       4.368   5.250  16.335  0.00  0.00    +0.000 OA
ATOM     29  H   UNL     1       4.016   5.822  15.627  0.00  0.00    +0.000 HD
ENDBRANCH  27  28
ENDBRANCH   1  27
TORSDOF 3
ENDMDL
MODEL 7
REMARK VINA RESULT:      -8.5      2.093      3.581
REMARK  Name = 
REMARK  3 active torsions:
REMARK  status: ('A' for Active; 'I' for Inactive)
REMARK    1  A    between atoms: C_2  and  O_3
REMARK    2  A    between atoms: C_2  and  C_4
REMARK    3  A    between atoms: C_18  and  C_19
REMARK                            x       y       z     vdW  Elec       q    Type
REMARK                         _______ _______ _______ _____ _____    ______ ____
ROOT
ATOM      1  C   UNL     1       3.756   5.523  17.923  0.00  0.00    +0.000 A 
ATOM      2  C   UNL     1       3.130   6.713  18.322  0.00  0.00    +0.000 A 
ATOM      3  C   UNL     1       2.230   6.645  19.382  0.00  0.00    +0.000 A 
ATOM      4  N   UNL     1       1.901   5.476  19.980  0.00  0.00    +0.000 NA
ATOM      5  C   UNL     1       2.475   4.338  19.578  0.00  0.00    +0.000 A 
ATOM      6  C   UNL     1       2.085   3.170  20.221  0.00  0.00    +0.000 A 
ATOM      7  C   UNL     1       2.622   1.929  19.884  0.00  0.00    +0.000 A 
ATOM      8  C   UNL     1       3.591   1.866  18.903  0.00  0.00    +0.000 A 
ATOM      9  F   UNL     1       4.111   0.683  18.557  0.00  0.00    +0.000 F 
ATOM     10  C   UNL     1       4.024   3.020  18.258  0.00  0.00    +0.000 A 
ATOM     11  C   UNL     1       3.445   4.285  18.555  0.00  0.00    +0.000 A 
ATOM     12  C   UNL     1       1.585   7.859  19.919  0.00  0.00    +0.000 A 
ATOM     13  C   UNL     1       0.947   7.884  21.163  0.00  0.00    +0.000 A 
ATOM     14  C   UNL     1       0.343   9.052  21.645  0.00  0.00    +0.000 A 
ATOM     15  C   UNL     1       0.353  10.249  20.909  0.00  0.00    +0.000 A 
ATOM     16  C   UNL     1       0.999  10.223  19.661  0.00  0.00    +0.000 A 
ATOM     17  C   UNL     1       1.610   9.051  19.171  0.00  0.00    +0.000 A 
ATOM     18  C   UNL     1       2.231   9.028  17.796  0.00  0.00    +0.000 C 
ATOM     19  C   UNL     1       3.435   8.076  17.731  0.00  0.00    +0.000 C 
ENDROOT
BRANCH  15  20
ATOM     20  C   UNL     1      -0.320  11.467  21.427  0.00  0.00    +0.000 A 
ATOM     21  C   UNL     1      -0.309  12.673  20.698  0.00  0.00    +0.000 A 
ATOM     22  C   UNL     1      -0.868  13.847  21.213  0.00  0.00    +0.000 A 
ATOM     23  C   UNL     1      -1.477  13.837  22.462  0.00  0.00    +0.000 A 
ATOM     24  C   UNL     1      -1.535  12.653  23.191  0.00  0.00    +0.000 A 
ATOM     25  C   UNL     1      -0.961  11.484  22.679  0.00  0.00    +0.000 A 
ENDBRANCH  15  20
BRANCH   1  27
ATOM     26  O   UNL     1       4.562   5.334  15.691  0.00  0.00    +0.000 OA
ATOM     27  C   UNL     1       4.796   5.593  16.859  0.00  0.00    +0.000 C 
BRANCH  27  28
ATOM     28  O   UNL     1       6.030   5.898  17.308  0.00  0.00    +0.000 OA
ATOM     29  H   UNL     1       6.093   6.689  17.877  0.00  0.00    +0.000 HD
ENDBRANCH  27  28
ENDBRANCH   1  27
TORSDOF 3
ENDMDL
MODEL 8
REMARK VINA RESULT:      -8.2      2.246      3.352
REMARK  Name = 
REMARK  3 active torsions:
REMARK  status: ('A' for Active; 'I' for Inactive)
REMARK    1  A    between atoms: C_2  and  O_3
REMARK    2  A    between atoms: C_2  and  C_4
REMARK    3  A    between atoms: C_18  and  C_19
REMARK                            x       y       z     vdW  Elec       q    Type
REMARK                         _______ _______ _______ _____ _____    ______ ____
ROOT
ATOM      1  C   UNL     1       2.133   4.689  19.984  0.00  0.00    +0.000 A 
ATOM      2  C   UNL     1       1.837   6.059  20.056  0.00  0.00    +0.000 A 
ATOM      3  C   UNL     1       2.297   6.874  19.025  0.00  0.00    +0.000 A 
ATOM      4  N   UNL     1       3.061   6.401  18.012  0.00  0.00    +0.000 NA
ATOM      5  C   UNL     1       3.368   5.102  17.961  0.00  0.00    +0.000 A 
ATOM      6  C   UNL     1       4.168   4.682  16.905  0.00  0.00    +0.000 A 
ATOM      7  C   UNL     1       4.545   3.349  16.752  0.00  0.00    +0.000 A 
ATOM      8  C   UNL     1       4.087   2.417  17.662  0.00  0.00    +0.000 A 
ATOM      9  F   UNL     1       4.447   1.135  17.540  0.00  0.00    +0.000 F 
ATOM     10  C   UNL     1       3.263   2.800  18.715  0.00  0.00    +0.000 A 
ATOM     11  C   UNL     1       2.914   4.165  18.912  0.00  0.00    +0.000 A 
ATOM     12  C   UNL     1       1.965   8.311  18.980  0.00  0.00    +0.000 A 
ATOM     13  C   UNL     1       2.118   9.082  17.823  0.00  0.00    +0.000 A 
ATOM     14  C   UNL     1       1.795  10.444  17.812  0.00  0.00    +0.000 A 
ATOM     15  C   UNL     1       1.300  11.098  18.953  0.00  0.00    +0.000 A 
ATOM     16  C   UNL     1       1.142  10.320  20.113  0.00  0.00    +0.000 A 
ATOM     17  C   UNL     1       1.464   8.949  20.131  0.00  0.00    +0.000 A 
ATOM     18  C   UNL     1       1.357   8.152  21.408  0.00  0.00    +0.000 C 
ATOM     19  C   UNL     1       0.979   6.688  21.136  0.00  0.00    +0.000 C 
ENDROOT
BRANCH  15  20
ATOM     20  C   UNL     1       0.993  12.551  18.926  0.00  0.00    +0.000 A 
ATOM     21  C   UNL     1       1.985  13.502  18.618  0.00  0.00    +0.000 A 
ATOM     22  C   UNL     1       1.727  14.875  18.670  0.00  0.00    +0.000 A 
ATOM     23  C   UNL     1       0.458  15.332  19.008  0.00  0.00    +0.000 A 
ATOM     24  C   UNL     1      -0.552  14.416  19.284  0.00  0.00    +0.000 A 
ATOM     25  C   UNL     1      -0.286  13.043  19.245  0.00  0.00    +0.000 A 
ENDBRANCH  15  20
BRANCH   1  27
ATOM     26  O   UNL     1       2.132   3.556  22.077  0.00  0.00    +0.000 OA
ATOM     27  C   UNL     1       1.565   3.786  21.023  0.00  0.00    +0.000 C 
BRANCH  27  28
ATOM     28  O   UNL     1       0.408   3.192  20.669  0.00  0.00    +0.000 OA
ATOM     29  H   UNL     1       0.436   2.221  20.581  0.00  0.00    +0.000 HD
ENDBRANCH  27  28
ENDBRANCH   1  27
TORSDOF 3
ENDMDL
MODEL 9
REMARK VINA RESULT:      -8.1      4.938      9.229
REMARK  Name = 
REMARK  3 active torsions:
REMARK  status: ('A' for Active; 'I' for Inactive)
REMARK    1  A    between atoms: C_2  and  O_3
REMARK    2  A    between atoms: C_2  and  C_4
REMARK    3  A    between atoms: C_18  and  C_19
REMARK                            x       y       z     vdW  Elec       q    Type
REMARK                         _______ _______ _______ _____ _____    ______ ____
ROOT
ATOM      1  C   UNL     1       0.160  11.646  19.423  0.00  0.00    +0.000 A 
ATOM      2  C   UNL     1       0.763  10.413  19.132  0.00  0.00    +0.000 A 
ATOM      3  C   UNL     1       0.748   9.437  20.125  0.00  0.00    +0.000 A 
ATOM      4  N   UNL     1       0.238   9.664  21.358  0.00  0.00    +0.000 NA
ATOM      5  C   UNL     1      -0.309  10.849  21.644  0.00  0.00    +0.000 A 
ATOM      6  C   UNL     1      -0.801  11.026  22.931  0.00  0.00    +0.000 A 
ATOM      7  C   UNL     1      -1.395  12.220  23.335  0.00  0.00    +0.000 A 
ATOM      8  C   UNL     1      -1.521  13.245  22.420  0.00  0.00    +0.000 A 
ATOM      9  F   UNL     1      -2.077  14.404  22.791  0.00  0.00    +0.000 F 
ATOM     10  C   UNL     1      -1.062  13.092  21.115  0.00  0.00    +0.000 A 
ATOM     11  C   UNL     1      -0.407  11.898  20.706  0.00  0.00    +0.000 A 
ATOM     12  C   UNL     1       1.289   8.085  19.879  0.00  0.00    +0.000 A 
ATOM     13  C   UNL     1       1.003   6.998  20.710  0.00  0.00    +0.000 A 
ATOM     14  C   UNL     1       1.533   5.728  20.451  0.00  0.00    +0.000 A 
ATOM     15  C   UNL     1       2.367   5.484  19.347  0.00  0.00    +0.000 A 
ATOM     16  C   UNL     1       2.648   6.578  18.509  0.00  0.00    +0.000 A 
ATOM     17  C   UNL     1       2.118   7.858  18.764  0.00  0.00    +0.000 A 
ATOM     18  C   UNL     1       2.495   9.031  17.894  0.00  0.00    +0.000 C 
ATOM     19  C   UNL     1       1.350  10.049  17.782  0.00  0.00    +0.000 C 
ENDROOT
BRANCH  15  20
ATOM     20  C   UNL     1       2.941   4.136  19.108  0.00  0.00    +0.000 A 
ATOM     21  C   UNL     1       2.595   3.386  17.967  0.00  0.00    +0.000 A 
ATOM     22  C   UNL     1       3.066   2.083  17.774  0.00  0.00    +0.000 A 
ATOM     23  C   UNL     1       3.918   1.507  18.708  0.00  0.00    +0.000 A 
ATOM     24  C   UNL     1       4.307   2.236  19.828  0.00  0.00    +0.000 A 
ATOM     25  C   UNL     1       3.821   3.533  20.025  0.00  0.00    +0.000 A 
ENDBRANCH  15  20
BRANCH   1  27
ATOM     26  O   UNL     1       0.921  13.530  18.183  0.00  0.00    +0.000 OA
ATOM     27  C   UNL     1       0.077  12.665  18.341  0.00  0.00    +0.000 C 
BRANCH  27  28
ATOM     28  O   UNL     1      -1.045  12.594  17.596  0.00  0.00    +0.000 OA
ATOM     29  H   UNL     1      -0.927  12.710  16.635  0.00  0.00    +0.000 HD
ENDBRANCH  27  28
ENDBRANCH   1  27
TORSDOF 3
ENDMDL
