MODEL 1
REMARK VINA RESULT:      -8.5      0.000      0.000
REMARK  Name = 
REMARK  4 active torsions:
REMARK  status: ('A' for Active; 'I' for Inactive)
REMARK    1  A    between atoms: C_1  and  C_2
REMARK    2  A    between atoms: C_2  and  C_3
REMARK    3  A    between atoms: N_5  and  N_6
REMARK    4  A    between atoms: C_11  and  C_12
REMARK                            x       y       z     vdW  Elec       q    Type
REMARK                         _______ _______ _______ _____ _____    ______ ____
ROOT
ATOM      1  N   UNL     1       6.404   3.904  13.069  0.00  0.00    +0.000 N 
ATOM      2  C   UNL     1       6.374   4.493  14.345  0.00  0.00    +0.000 A 
ATOM      3  N   UNL     1       7.468   5.185  14.733  0.00  0.00    +0.000 NA
ATOM      4  N   UNL     1       7.537   5.710  15.981  0.00  0.00    +0.000 NA
ATOM      5  C   UNL     1       6.499   5.508  16.807  0.00  0.00    +0.000 A 
ATOM      6  C   UNL     1       5.377   4.812  16.397  0.00  0.00    +0.000 A 
ATOM      7  N   UNL     1       5.303   4.300  15.143  0.00  0.00    +0.000 NA
ATOM      8  H   UNL     1       7.165   4.341  12.539  0.00  0.00    +0.000 HD
ENDROOT
BRANCH   6   9
ATOM      9  C   UNL     1       4.224   4.543  17.285  0.00  0.00    +0.000 A 
ATOM     10  C   UNL     1       3.382   5.571  17.760  0.00  0.00    +0.000 A 
ATOM     11  C   UNL     1       2.313   5.302  18.625  0.00  0.00    +0.000 A 
ATOM     12  C   UNL     1       2.057   3.996  19.025  0.00  0.00    +0.000 A 
ATOM     13 CL   UNL     1       0.749   3.665  20.090  0.00  0.00    +0.000 Cl
ATOM     14  C   UNL     1       2.859   2.957  18.565  0.00  0.00    +0.000 A 
ATOM     15  C   UNL     1       3.927   3.231  17.704  0.00  0.00    +0.000 A 
ENDBRANCH   6   9
BRANCH   1  18
ATOM     16  C   UNL     1       4.867   2.849  11.608  0.00  0.00    +0.000 C 
ATOM     17  O   UNL     1       5.678   1.953  11.383  0.00  0.00    +0.000 OA
ATOM     18  N   UNL     1       5.177   3.954  12.382  0.00  0.00    +0.000 N 
ATOM     19  H   UNL     1       4.481   4.597  12.754  0.00  0.00    +0.000 HD
BRANCH  16  21
ATOM     20  C   UNL     1       3.296   3.949   9.984  0.00  0.00    +0.000 C 
ATOM     21  C   UNL     1       3.461   2.878  11.051  0.00  0.00    +0.000 C 
ENDBRANCH  16  21
ENDBRANCH   1  18
TORSDOF 3
ENDMDL
MODEL 2
REMARK VINA RESULT:      -8.5      0.149      1.100
REMARK  Name = 
REMARK  4 active torsions:
REMARK  status: ('A' for Active; 'I' for Inactive)
REMARK    1  A    between atoms: C_1  and  C_2
REMARK    2  A    between atoms: C_2  and  C_3
REMARK    3  A    between atoms: N_5  and  N_6
REMARK    4  A    between atoms: C_11  and  C_12
REMARK                            x       y       z     vdW  Elec       q    Type
REMARK                         _______ _______ _______ _____ _____    ______ ____
ROOT
ATOM      1  N   UNL     1       6.401   3.861  13.034  0.00  0.00    +0.000 N 
ATOM      2  C   UNL     1       6.379   4.469  14.301  0.00  0.00    +0.000 A 
ATOM      3  N   UNL     1       7.473   5.174  14.668  0.00  0.00    +0.000 NA
ATOM      4  N   UNL     1       7.550   5.718  15.907  0.00  0.00    +0.000 NA
ATOM      5  C   UNL     1       6.521   5.522  16.747  0.00  0.00    +0.000 A 
ATOM      6  C   UNL     1       5.400   4.814  16.358  0.00  0.00    +0.000 A 
ATOM      7  N   UNL     1       5.317   4.282  15.112  0.00  0.00    +0.000 NA
ATOM      8  H   UNL     1       7.153   4.295  12.490  0.00  0.00    +0.000 HD
ENDROOT
BRANCH   6   9
ATOM      9  C   UNL     1       4.257   4.551  17.261  0.00  0.00    +0.000 A 
ATOM     10  C   UNL     1       3.761   3.250  17.489  0.00  0.00    +0.000 A 
ATOM     11  C   UNL     1       2.659   3.021  18.324  0.00  0.00    +0.000 A 
ATOM     12  C   UNL     1       2.036   4.091  18.957  0.00  0.00    +0.000 A 
ATOM     13 CL   UNL     1       0.680   3.812  19.977  0.00  0.00    +0.000 Cl
ATOM     14  C   UNL     1       2.507   5.384  18.764  0.00  0.00    +0.000 A 
ATOM     15  C   UNL     1       3.606   5.608  17.928  0.00  0.00    +0.000 A 
ENDBRANCH   6   9
BRANCH   1  18
ATOM     16  C   UNL     1       4.876   2.794  11.569  0.00  0.00    +0.000 C 
ATOM     17  O   UNL     1       5.705   1.921  11.323  0.00  0.00    +0.000 OA
ATOM     18  N   UNL     1       5.167   3.894  12.358  0.00  0.00    +0.000 N 
ATOM     19  H   UNL     1       4.460   4.514  12.747  0.00  0.00    +0.000 HD
BRANCH  16  21
ATOM     20  C   UNL     1       3.247   3.924  10.025  0.00  0.00    +0.000 C 
ATOM     21  C   UNL     1       3.464   2.799  11.025  0.00  0.00    +0.000 C 
ENDBRANCH  16  21
ENDBRANCH   1  18
TORSDOF 3
ENDMDL
MODEL 3
REMARK VINA RESULT:      -8.2      1.283      1.500
REMARK  Name = 
REMARK  4 active torsions:
REMARK  status: ('A' for Active; 'I' for Inactive)
REMARK    1  A    between atoms: C_1  and  C_2
REMARK    2  A    between atoms: C_2  and  C_3
REMARK    3  A    between atoms: N_5  and  N_6
REMARK    4  A    between atoms: C_11  and  C_12
REMARK                            x       y       z     vdW  Elec       q    Type
REMARK                         _______ _______ _______ _____ _____    ______ ____
ROOT
ATOM      1  N   UNL     1       7.124   4.136  14.436  0.00  0.00    +0.000 N 
ATOM      2  C   UNL     1       6.662   4.881  15.535  0.00  0.00    +0.000 A 
ATOM      3  N   UNL     1       7.297   6.044  15.805  0.00  0.00    +0.000 NA
ATOM      4  N   UNL     1       6.955   6.771  16.897  0.00  0.00    +0.000 NA
ATOM      5  C   UNL     1       5.987   6.292  17.694  0.00  0.00    +0.000 A 
ATOM      6  C   UNL     1       5.332   5.111  17.402  0.00  0.00    +0.000 A 
ATOM      7  N   UNL     1       5.665   4.391  16.301  0.00  0.00    +0.000 NA
ATOM      8  H   UNL     1       7.701   4.754  13.857  0.00  0.00    +0.000 HD
ENDROOT
BRANCH   6   9
ATOM      9  C   UNL     1       4.280   4.535  18.270  0.00  0.00    +0.000 A 
ATOM     10  C   UNL     1       2.940   4.974  18.222  0.00  0.00    +0.000 A 
ATOM     11  C   UNL     1       1.963   4.440  19.071  0.00  0.00    +0.000 A 
ATOM     12  C   UNL     1       2.304   3.445  19.981  0.00  0.00    +0.000 A 
ATOM     13 CL   UNL     1       1.107   2.791  21.027  0.00  0.00    +0.000 Cl
ATOM     14  C   UNL     1       3.612   2.979  20.045  0.00  0.00    +0.000 A 
ATOM     15  C   UNL     1       4.586   3.519  19.197  0.00  0.00    +0.000 A 
ENDBRANCH   6   9
BRANCH   1  18
ATOM     16  C   UNL     1       6.310   3.422  12.330  0.00  0.00    +0.000 C 
ATOM     17  O   UNL     1       7.233   4.003  11.763  0.00  0.00    +0.000 OA
ATOM     18  N   UNL     1       6.103   3.510  13.695  0.00  0.00    +0.000 N 
ATOM     19  H   UNL     1       5.490   2.887  14.216  0.00  0.00    +0.000 HD
BRANCH  16  21
ATOM     20  C   UNL     1       4.014   3.362  11.311  0.00  0.00    +0.000 C 
ATOM     21  C   UNL     1       5.278   2.575  11.617  0.00  0.00    +0.000 C 
ENDBRANCH  16  21
ENDBRANCH   1  18
TORSDOF 3
ENDMDL
MODEL 4
REMARK VINA RESULT:      -8.0      1.550      2.102
REMARK  Name = 
REMARK  4 active torsions:
REMARK  status: ('A' for Active; 'I' for Inactive)
REMARK    1  A    between atoms: C_1  and  C_2
REMARK    2  A    between atoms: C_2  and  C_3
REMARK    3  A    between atoms: N_5  and  N_6
REMARK    4  A    between atoms: C_11  and  C_12
REMARK                            x       y       z     vdW  Elec       q    Type
REMARK                         _______ _______ _______ _____ _____    ______ ____
ROOT
ATOM      1  N   UNL     1       7.233   4.271  14.593  0.00  0.00    +0.000 N 
ATOM      2  C   UNL     1       6.784   5.003  15.706  0.00  0.00    +0.000 A 
ATOM      3  N   UNL     1       7.410   6.171  15.972  0.00  0.00    +0.000 NA
ATOM      4  N   UNL     1       7.082   6.886  17.075  0.00  0.00    +0.000 NA
ATOM      5  C   UNL     1       6.135   6.391  17.888  0.00  0.00    +0.000 A 
ATOM      6  C   UNL     1       5.489   5.204  17.600  0.00  0.00    +0.000 A 
ATOM      7  N   UNL     1       5.808   4.496  16.487  0.00  0.00    +0.000 NA
ATOM      8  H   UNL     1       7.791   4.900  14.007  0.00  0.00    +0.000 HD
ENDROOT
BRANCH   6   9
ATOM      9  C   UNL     1       4.460   4.609  18.484  0.00  0.00    +0.000 A 
ATOM     10  C   UNL     1       4.124   3.240  18.433  0.00  0.00    +0.000 A 
ATOM     11  C   UNL     1       3.127   2.699  19.255  0.00  0.00    +0.000 A 
ATOM     12  C   UNL     1       2.452   3.516  20.155  0.00  0.00    +0.000 A 
ATOM     13 CL   UNL     1       1.225   2.855  21.161  0.00  0.00    +0.000 Cl
ATOM     14  C   UNL     1       2.768   4.867  20.240  0.00  0.00    +0.000 A 
ATOM     15  C   UNL     1       3.762   5.404  19.415  0.00  0.00    +0.000 A 
ENDBRANCH   6   9
BRANCH   1  18
ATOM     16  C   UNL     1       6.363   3.606  12.493  0.00  0.00    +0.000 C 
ATOM     17  O   UNL     1       7.244   4.237  11.914  0.00  0.00    +0.000 OA
ATOM     18  N   UNL     1       6.206   3.638  13.867  0.00  0.00    +0.000 N 
ATOM     19  H   UNL     1       5.633   2.977  14.387  0.00  0.00    +0.000 HD
BRANCH  16  21
ATOM     20  C   UNL     1       5.927   1.445  11.285  0.00  0.00    +0.000 C 
ATOM     21  C   UNL     1       5.332   2.751  11.788  0.00  0.00    +0.000 C 
ENDBRANCH  16  21
ENDBRANCH   1  18
TORSDOF 3
ENDMDL
MODEL 5
REMARK VINA RESULT:      -7.6      4.603      6.256
REMARK  Name = 
REMARK  4 active torsions:
REMARK  status: ('A' for Active; 'I' for Inactive)
REMARK    1  A    between atoms: C_1  and  C_2
REMARK    2  A    between atoms: C_2  and  C_3
REMARK    3  A    between atoms: N_5  and  N_6
REMARK    4  A    between atoms: C_11  and  C_12
REMARK                            x       y       z     vdW  Elec       q    Type
REMARK                         _______ _______ _______ _____ _____    ______ ____
ROOT
ATOM      1  N   UNL     1       5.143   3.190  18.920  0.00  0.00    +0.000 N 
ATOM      2  C   UNL     1       4.058   3.725  19.636  0.00  0.00    +0.000 A 
ATOM      3  N   UNL     1       3.405   2.895  20.481  0.00  0.00    +0.000 NA
ATOM      4  N   UNL     1       2.301   3.323  21.140  0.00  0.00    +0.000 NA
ATOM      5  C   UNL     1       1.880   4.578  20.916  0.00  0.00    +0.000 A 
ATOM      6  C   UNL     1       2.562   5.424  20.063  0.00  0.00    +0.000 A 
ATOM      7  N   UNL     1       3.676   5.000  19.414  0.00  0.00    +0.000 NA
ATOM      8  H   UNL     1       5.422   2.317  19.379  0.00  0.00    +0.000 HD
ENDROOT
BRANCH   6   9
ATOM      9  C   UNL     1       2.116   6.804  19.765  0.00  0.00    +0.000 A 
ATOM     10  C   UNL     1       2.332   7.412  18.511  0.00  0.00    +0.000 A 
ATOM     11  C   UNL     1       1.930   8.730  18.256  0.00  0.00    +0.000 A 
ATOM     12  C   UNL     1       1.293   9.464  19.250  0.00  0.00    +0.000 A 
ATOM     13 CL   UNL     1       0.803  11.083  18.940  0.00  0.00    +0.000 Cl
ATOM     14  C   UNL     1       1.052   8.891  20.493  0.00  0.00    +0.000 A 
ATOM     15  C   UNL     1       1.458   7.576  20.744  0.00  0.00    +0.000 A 
ENDBRANCH   6   9
BRANCH   1  18
ATOM     16  C   UNL     1       6.418   4.578  17.487  0.00  0.00    +0.000 C 
ATOM     17  O   UNL     1       5.811   4.148  16.510  0.00  0.00    +0.000 OA
ATOM     18  N   UNL     1       6.223   4.079  18.763  0.00  0.00    +0.000 N 
ATOM     19  H   UNL     1       6.547   4.544  19.609  0.00  0.00    +0.000 HD
BRANCH  16  21
ATOM     20  C   UNL     1       7.813   6.206  18.800  0.00  0.00    +0.000 C 
ATOM     21  C   UNL     1       7.466   5.668  17.420  0.00  0.00    +0.000 C 
ENDBRANCH  16  21
ENDBRANCH   1  18
TORSDOF 3
ENDMDL
MODEL 6
REMARK VINA RESULT:      -7.6      4.440      6.083
REMARK  Name = 
REMARK  4 active torsions:
REMARK  status: ('A' for Active; 'I' for Inactive)
REMARK    1  A    between atoms: C_1  and  C_2
REMARK    2  A    between atoms: C_2  and  C_3
REMARK    3  A    between atoms: N_5  and  N_6
REMARK    4  A    between atoms: C_11  and  C_12
REMARK                            x       y       z     vdW  Elec       q    Type
REMARK                         _______ _______ _______ _____ _____    ______ ____
ROOT
ATOM      1  N   UNL     1       5.168   3.165  18.771  0.00  0.00    +0.000 N 
ATOM      2  C   UNL     1       4.134   3.728  19.539  0.00  0.00    +0.000 A 
ATOM      3  N   UNL     1       3.528   2.927  20.443  0.00  0.00    +0.000 NA
ATOM      4  N   UNL     1       2.471   3.382  21.159  0.00  0.00    +0.000 NA
ATOM      5  C   UNL     1       2.046   4.635  20.928  0.00  0.00    +0.000 A 
ATOM      6  C   UNL     1       2.681   5.452  20.013  0.00  0.00    +0.000 A 
ATOM      7  N   UNL     1       3.749   5.001  19.308  0.00  0.00    +0.000 NA
ATOM      8  H   UNL     1       5.469   2.302  19.234  0.00  0.00    +0.000 HD
ENDROOT
BRANCH   6   9
ATOM      9  C   UNL     1       2.228   6.829  19.708  0.00  0.00    +0.000 A 
ATOM     10  C   UNL     1       1.552   7.626  20.655  0.00  0.00    +0.000 A 
ATOM     11  C   UNL     1       1.102   8.915  20.341  0.00  0.00    +0.000 A 
ATOM     12  C   UNL     1       1.330   9.438  19.073  0.00  0.00    +0.000 A 
ATOM     13 CL   UNL     1       0.775  11.018  18.685  0.00  0.00    +0.000 Cl
ATOM     14  C   UNL     1       2.005   8.685  18.120  0.00  0.00    +0.000 A 
ATOM     15  C   UNL     1       2.449   7.396  18.438  0.00  0.00    +0.000 A 
ENDBRANCH   6   9
BRANCH   1  18
ATOM     16  C   UNL     1       6.349   4.523  17.231  0.00  0.00    +0.000 C 
ATOM     17  O   UNL     1       5.666   4.089  16.306  0.00  0.00    +0.000 OA
ATOM     18  N   UNL     1       6.243   4.040  18.524  0.00  0.00    +0.000 N 
ATOM     19  H   UNL     1       6.634   4.510  19.338  0.00  0.00    +0.000 HD
BRANCH  16  21
ATOM     20  C   UNL     1       7.556   6.429  18.340  0.00  0.00    +0.000 C 
ATOM     21  C   UNL     1       7.401   5.600  17.074  0.00  0.00    +0.000 C 
ENDBRANCH  16  21
ENDBRANCH   1  18
TORSDOF 3
ENDMDL
MODEL 7
REMARK VINA RESULT:      -7.6      5.125      6.453
REMARK  Name = 
REMARK  4 active torsions:
REMARK  status: ('A' for Active; 'I' for Inactive)
REMARK    1  A    between atoms: C_1  and  C_2
REMARK    2  A    between atoms: C_2  and  C_3
REMARK    3  A    between atoms: N_5  and  N_6
REMARK    4  A    between atoms: C_11  and  C_12
REMARK                            x       y       z     vdW  Elec       q    Type
REMARK                         _______ _______ _______ _____ _____    ______ ____
ROOT
ATOM      1  N   UNL     1       5.725   4.001  19.044  0.00  0.00    +0.000 N 
ATOM      2  C   UNL     1       4.429   4.322  19.484  0.00  0.00    +0.000 A 
ATOM      3  N   UNL     1       3.684   3.318  19.999  0.00  0.00    +0.000 NA
ATOM      4  N   UNL     1       2.399   3.540  20.366  0.00  0.00    +0.000 NA
ATOM      5  C   UNL     1       1.898   4.774  20.190  0.00  0.00    +0.000 A 
ATOM      6  C   UNL     1       2.671   5.798  19.677  0.00  0.00    +0.000 A 
ATOM      7  N   UNL     1       3.962   5.578  19.323  0.00  0.00    +0.000 NA
ATOM      8  H   UNL     1       5.979   3.095  19.450  0.00  0.00    +0.000 HD
ENDROOT
BRANCH   6   9
ATOM      9  C   UNL     1       2.149   7.163  19.440  0.00  0.00    +0.000 A 
ATOM     10  C   UNL     1       2.279   7.813  18.195  0.00  0.00    +0.000 A 
ATOM     11  C   UNL     1       1.806   9.117  17.996  0.00  0.00    +0.000 A 
ATOM     12  C   UNL     1       1.184   9.795  19.038  0.00  0.00    +0.000 A 
ATOM     13 CL   UNL     1       0.608  11.397  18.797  0.00  0.00    +0.000 Cl
ATOM     14  C   UNL     1       1.027   9.178  20.275  0.00  0.00    +0.000 A 
ATOM     15  C   UNL     1       1.504   7.877  20.469  0.00  0.00    +0.000 A 
ENDBRANCH   6   9
BRANCH   1  18
ATOM     16  C   UNL     1       7.240   5.616  18.206  0.00  0.00    +0.000 C 
ATOM     17  O   UNL     1       7.050   5.218  17.059  0.00  0.00    +0.000 OA
ATOM     18  N   UNL     1       6.686   4.994  19.311  0.00  0.00    +0.000 N 
ATOM     19  H   UNL     1       6.651   5.413  20.238  0.00  0.00    +0.000 HD
BRANCH  16  21
ATOM     20  C   UNL     1       7.822   8.004  17.678  0.00  0.00    +0.000 C 
ATOM     21  C   UNL     1       8.118   6.799  18.556  0.00  0.00    +0.000 C 
ENDBRANCH  16  21
ENDBRANCH   1  18
TORSDOF 3
ENDMDL
MODEL 8
REMARK VINA RESULT:      -7.2      1.835      2.350
REMARK  Name = 
REMARK  4 active torsions:
REMARK  status: ('A' for Active; 'I' for Inactive)
REMARK    1  A    between atoms: C_1  and  C_2
REMARK    2  A    between atoms: C_2  and  C_3
REMARK    3  A    between atoms: N_5  and  N_6
REMARK    4  A    between atoms: C_11  and  C_12
REMARK                            x       y       z     vdW  Elec       q    Type
REMARK                         _______ _______ _______ _____ _____    ______ ____
ROOT
ATOM      1  N   UNL     1       7.676   5.052  15.061  0.00  0.00    +0.000 N 
ATOM      2  C   UNL     1       6.757   5.603  15.971  0.00  0.00    +0.000 A 
ATOM      3  N   UNL     1       7.055   6.813  16.495  0.00  0.00    +0.000 NA
ATOM      4  N   UNL     1       6.254   7.365  17.439  0.00  0.00    +0.000 NA
ATOM      5  C   UNL     1       5.177   6.668  17.836  0.00  0.00    +0.000 A 
ATOM      6  C   UNL     1       4.871   5.439  17.284  0.00  0.00    +0.000 A 
ATOM      7  N   UNL     1       5.666   4.894  16.329  0.00  0.00    +0.000 NA
ATOM      8  H   UNL     1       8.294   5.805  14.743  0.00  0.00    +0.000 HD
ENDROOT
BRANCH   6   9
ATOM      9  C   UNL     1       3.711   4.626  17.714  0.00  0.00    +0.000 A 
ATOM     10  C   UNL     1       2.734   5.119  18.604  0.00  0.00    +0.000 A 
ATOM     11  C   UNL     1       1.658   4.327  19.025  0.00  0.00    +0.000 A 
ATOM     12  C   UNL     1       1.531   3.025  18.554  0.00  0.00    +0.000 A 
ATOM     13 CL   UNL     1       0.214   2.049  19.073  0.00  0.00    +0.000 Cl
ATOM     14  C   UNL     1       2.469   2.512  17.665  0.00  0.00    +0.000 A 
ATOM     15  C   UNL     1       3.543   3.306  17.250  0.00  0.00    +0.000 A 
ENDBRANCH   6   9
BRANCH   1  18
ATOM     16  C   UNL     1       7.475   4.751  12.721  0.00  0.00    +0.000 C 
ATOM     17  O   UNL     1       8.162   5.750  12.521  0.00  0.00    +0.000 OA
ATOM     18  N   UNL     1       7.081   4.361  13.989  0.00  0.00    +0.000 N 
ATOM     19  H   UNL     1       6.698   3.443  14.206  0.00  0.00    +0.000 HD
BRANCH  16  21
ATOM     20  C   UNL     1       5.668   3.144  12.034  0.00  0.00    +0.000 C 
ATOM     21  C   UNL     1       6.951   3.850  11.624  0.00  0.00    +0.000 C 
ENDBRANCH  16  21
ENDBRANCH   1  18
TORSDOF 3
ENDMDL
MODEL 9
REMARK VINA RESULT:      -7.2      4.574      6.046
REMARK  Name = 
REMARK  4 active torsions:
REMARK  status: ('A' for Active; 'I' for Inactive)
REMARK    1  A    between atoms: C_1  and  C_2
REMARK    2  A    between atoms: C_2  and  C_3
REMARK    3  A    between atoms: N_5  and  N_6
REMARK    4  A    between atoms: C_11  and  C_12
REMARK                            x       y       z     vdW  Elec       q    Type
REMARK                         _______ _______ _______ _____ _____    ______ ____
ROOT
ATOM      1  N   UNL     1       6.254   4.376  17.880  0.00  0.00    +0.000 N 
ATOM      2  C   UNL     1       4.948   4.428  18.400  0.00  0.00    +0.000 A 
ATOM      3  N   UNL     1       4.314   3.251  18.598  0.00  0.00    +0.000 NA
ATOM      4  N   UNL     1       3.026   3.233  19.021  0.00  0.00    +0.000 NA
ATOM      5  C   UNL     1       2.411   4.410  19.218  0.00  0.00    +0.000 A 
ATOM      6  C   UNL     1       3.072   5.608  19.028  0.00  0.00    +0.000 A 
ATOM      7  N   UNL     1       4.366   5.626  18.619  0.00  0.00    +0.000 NA
ATOM      8  H   UNL     1       6.601   3.419  17.999  0.00  0.00    +0.000 HD
ENDROOT
BRANCH   6   9
ATOM      9  C   UNL     1       2.423   6.927  19.207  0.00  0.00    +0.000 A 
ATOM     10  C   UNL     1       1.873   7.334  20.440  0.00  0.00    +0.000 A 
ATOM     11  C   UNL     1       1.234   8.573  20.585  0.00  0.00    +0.000 A 
ATOM     12  C   UNL     1       1.143   9.436  19.498  0.00  0.00    +0.000 A 
ATOM     13 CL   UNL     1       0.355  10.954  19.672  0.00  0.00    +0.000 Cl
ATOM     14  C   UNL     1       1.686   9.071  18.272  0.00  0.00    +0.000 A 
ATOM     15  C   UNL     1       2.320   7.832  18.131  0.00  0.00    +0.000 A 
ENDBRANCH   6   9
BRANCH   1  18
ATOM     16  C   UNL     1       7.374   6.448  17.641  0.00  0.00    +0.000 C 
ATOM     17  O   UNL     1       7.002   6.529  16.472  0.00  0.00    +0.000 OA
ATOM     18  N   UNL     1       7.129   5.334  18.424  0.00  0.00    +0.000 N 
ATOM     19  H   UNL     1       7.236   5.319  19.436  0.00  0.00    +0.000 HD
BRANCH  16  21
ATOM     20  C   UNL     1       8.011   8.879  17.680  0.00  0.00    +0.000 C 
ATOM     21  C   UNL     1       8.165   7.524  18.354  0.00  0.00    +0.000 C 
ENDBRANCH  16  21
ENDBRANCH   1  18
TORSDOF 3
ENDMDL
