MODEL 1
REMARK VINA RESULT:      -8.4      0.000      0.000
REMARK  Name = 
REMARK  4 active torsions:
REMARK  status: ('A' for Active; 'I' for Inactive)
REMARK    1  A    between atoms: C_1  and  C_2
REMARK    2  A    between atoms: N_5  and  C_6
REMARK    3  A    between atoms: C_7  and  C_8
REMARK    4  A    between atoms: N_12  and  C_13
REMARK                            x       y       z     vdW  Elec       q    Type
REMARK                         _______ _______ _______ _____ _____    ______ ____
ROOT
ATOM      1  C   UNL     1       4.191   3.892  19.354  0.00  0.00    +0.000 A 
ATOM      2  N   UNL     1       3.995   2.585  19.363  0.00  0.00    +0.000 NA
ATOM      3  N   UNL     1       2.702   2.389  19.770  0.00  0.00    +0.000 NA
ATOM      4  N   UNL     1       2.094   3.543  19.996  0.00  0.00    +0.000 NA
ATOM      5  N   UNL     1       2.967   4.504  19.610  0.00  0.00    +0.000 N 
ENDROOT
BRANCH   5   6
ATOM      6  C   UNL     1       2.539   5.842  19.425  0.00  0.00    +0.000 A 
ATOM      7  C   UNL     1       2.725   6.457  18.176  0.00  0.00    +0.000 A 
ATOM      8  C   UNL     1       2.366   7.795  18.003  0.00  0.00    +0.000 A 
ATOM      9  C   UNL     1       1.866   8.519  19.080  0.00  0.00    +0.000 A 
ATOM     10  F   UNL     1       1.569   9.816  18.923  0.00  0.00    +0.000 F 
ATOM     11  C   UNL     1       1.687   7.924  20.322  0.00  0.00    +0.000 A 
ATOM     12  C   UNL     1       2.009   6.576  20.499  0.00  0.00    +0.000 A 
ENDBRANCH   5   6
BRANCH   1  14
ATOM     13  C   UNL     1       6.130   4.690  18.141  0.00  0.00    +0.000 C 
ATOM     14  C   UNL     1       5.390   4.643  19.256  0.00  0.00    +0.000 C 
BRANCH  13  19
ATOM     15  C   UNL     1       7.200   4.321  12.138  0.00  0.00    +0.000 C 
ATOM     16  C   UNL     1       6.969   4.475  13.585  0.00  0.00    +0.000 A 
ATOM     17  C   UNL     1       6.190   3.830  14.514  0.00  0.00    +0.000 A 
ATOM     18  C   UNL     1       6.482   4.479  15.738  0.00  0.00    +0.000 A 
ATOM     19  N   UNL     1       5.916   4.102  16.915  0.00  0.00    +0.000 N 
ATOM     20  N   UNL     1       7.358   5.473  15.547  0.00  0.00    +0.000 NA
ATOM     21  O   UNL     1       7.666   5.465  14.200  0.00  0.00    +0.000 OA
ATOM     22  H   UNL     1       5.306   3.287  16.947  0.00  0.00    +0.000 HD
ENDBRANCH  13  19
ENDBRANCH   1  14
TORSDOF 3
ENDMDL
MODEL 2
REMARK VINA RESULT:      -8.2      0.624      1.248
REMARK  Name = 
REMARK  4 active torsions:
REMARK  status: ('A' for Active; 'I' for Inactive)
REMARK    1  A    between atoms: C_1  and  C_2
REMARK    2  A    between atoms: N_5  and  C_6
REMARK    3  A    between atoms: C_7  and  C_8
REMARK    4  A    between atoms: N_12  and  C_13
REMARK                            x       y       z     vdW  Elec       q    Type
REMARK                         _______ _______ _______ _____ _____    ______ ____
ROOT
ATOM      1  C   UNL     1       3.959   4.595  19.469  0.00  0.00    +0.000 A 
ATOM      2  N   UNL     1       3.706   3.302  19.565  0.00  0.00    +0.000 NA
ATOM      3  N   UNL     1       2.413   3.190  20.001  0.00  0.00    +0.000 NA
ATOM      4  N   UNL     1       1.860   4.382  20.160  0.00  0.00    +0.000 NA
ATOM      5  N   UNL     1       2.767   5.276  19.701  0.00  0.00    +0.000 N 
ENDROOT
BRANCH   5   6
ATOM      6  C   UNL     1       2.396   6.618  19.438  0.00  0.00    +0.000 A 
ATOM      7  C   UNL     1       1.824   7.387  20.465  0.00  0.00    +0.000 A 
ATOM      8  C   UNL     1       1.394   8.688  20.199  0.00  0.00    +0.000 A 
ATOM      9  C   UNL     1       1.499   9.198  18.909  0.00  0.00    +0.000 A 
ATOM     10  F   UNL     1       1.041  10.429  18.647  0.00  0.00    +0.000 F 
ATOM     11  C   UNL     1       2.054   8.443  17.883  0.00  0.00    +0.000 A 
ATOM     12  C   UNL     1       2.519   7.152  18.145  0.00  0.00    +0.000 A 
ENDBRANCH   5   6
BRANCH   1  14
ATOM     13  C   UNL     1       5.921   5.211  18.189  0.00  0.00    +0.000 C 
ATOM     14  C   UNL     1       5.188   5.284  19.307  0.00  0.00    +0.000 C 
BRANCH  13  19
ATOM     15  C   UNL     1       7.114   4.147  12.293  0.00  0.00    +0.000 C 
ATOM     16  C   UNL     1       6.860   4.464  13.709  0.00  0.00    +0.000 A 
ATOM     17  C   UNL     1       5.982   4.008  14.661  0.00  0.00    +0.000 A 
ATOM     18  C   UNL     1       6.314   4.731  15.831  0.00  0.00    +0.000 A 
ATOM     19  N   UNL     1       5.673   4.539  17.014  0.00  0.00    +0.000 N 
ATOM     20  N   UNL     1       7.311   5.591  15.586  0.00  0.00    +0.000 NA
ATOM     21  O   UNL     1       7.655   5.418  14.260  0.00  0.00    +0.000 OA
ATOM     22  H   UNL     1       4.967   3.808  17.095  0.00  0.00    +0.000 HD
ENDBRANCH  13  19
ENDBRANCH   1  14
TORSDOF 3
ENDMDL
MODEL 3
REMARK VINA RESULT:      -8.0      0.658      1.278
REMARK  Name = 
REMARK  4 active torsions:
REMARK  status: ('A' for Active; 'I' for Inactive)
REMARK    1  A    between atoms: C_1  and  C_2
REMARK    2  A    between atoms: N_5  and  C_6
REMARK    3  A    between atoms: C_7  and  C_8
REMARK    4  A    between atoms: N_12  and  C_13
REMARK                            x       y       z     vdW  Elec       q    Type
REMARK                         _______ _______ _______ _____ _____    ______ ____
ROOT
ATOM      1  C   UNL     1       3.416   3.339  19.299  0.00  0.00    +0.000 A 
ATOM      2  N   UNL     1       2.931   2.122  19.131  0.00  0.00    +0.000 NA
ATOM      3  N   UNL     1       1.579   2.212  19.327  0.00  0.00    +0.000 NA
ATOM      4  N   UNL     1       1.219   3.457  19.594  0.00  0.00    +0.000 NA
ATOM      5  N   UNL     1       2.337   4.206  19.448  0.00  0.00    +0.000 N 
ENDROOT
BRANCH   5   6
ATOM      6  C   UNL     1       2.259   5.618  19.359  0.00  0.00    +0.000 A 
ATOM      7  C   UNL     1       1.836   6.355  20.479  0.00  0.00    +0.000 A 
ATOM      8  C   UNL     1       1.693   7.740  20.383  0.00  0.00    +0.000 A 
ATOM      9  C   UNL     1       1.930   8.374  19.169  0.00  0.00    +0.000 A 
ATOM     10  F   UNL     1       1.745   9.697  19.068  0.00  0.00    +0.000 F 
ATOM     11  C   UNL     1       2.338   7.655  18.052  0.00  0.00    +0.000 A 
ATOM     12  C   UNL     1       2.519   6.274  18.145  0.00  0.00    +0.000 A 
ENDBRANCH   5   6
BRANCH   1  14
ATOM     13  C   UNL     1       5.585   3.972  18.425  0.00  0.00    +0.000 C 
ATOM     14  C   UNL     1       4.753   3.785  19.458  0.00  0.00    +0.000 C 
BRANCH  13  19
ATOM     15  C   UNL     1       7.239   4.863  12.613  0.00  0.00    +0.000 C 
ATOM     16  C   UNL     1       6.885   4.699  14.033  0.00  0.00    +0.000 A 
ATOM     17  C   UNL     1       5.842   4.115  14.709  0.00  0.00    +0.000 A 
ATOM     18  C   UNL     1       6.156   4.295  16.077  0.00  0.00    +0.000 A 
ATOM     19  N   UNL     1       5.362   3.824  17.075  0.00  0.00    +0.000 N 
ATOM     20  N   UNL     1       7.302   4.973  16.212  0.00  0.00    +0.000 NA
ATOM     21  O   UNL     1       7.760   5.219  14.932  0.00  0.00    +0.000 OA
ATOM     22  H   UNL     1       4.541   3.265  16.849  0.00  0.00    +0.000 HD
ENDBRANCH  13  19
ENDBRANCH   1  14
TORSDOF 3
ENDMDL
MODEL 4
REMARK VINA RESULT:      -8.0      2.685      3.606
REMARK  Name = 
REMARK  4 active torsions:
REMARK  status: ('A' for Active; 'I' for Inactive)
REMARK    1  A    between atoms: C_1  and  C_2
REMARK    2  A    between atoms: N_5  and  C_6
REMARK    3  A    between atoms: C_7  and  C_8
REMARK    4  A    between atoms: N_12  and  C_13
REMARK                            x       y       z     vdW  Elec       q    Type
REMARK                         _______ _______ _______ _____ _____    ______ ____
ROOT
ATOM      1  C   UNL     1       4.663   6.111  18.339  0.00  0.00    +0.000 A 
ATOM      2  N   UNL     1       4.606   7.233  17.645  0.00  0.00    +0.000 NA
ATOM      3  N   UNL     1       3.309   7.366  17.227  0.00  0.00    +0.000 NA
ATOM      4  N   UNL     1       2.563   6.362  17.660  0.00  0.00    +0.000 NA
ATOM      5  N   UNL     1       3.362   5.633  18.475  0.00  0.00    +0.000 N 
ENDROOT
BRANCH   5   6
ATOM      6  C   UNL     1       2.813   4.662  19.349  0.00  0.00    +0.000 A 
ATOM      7  C   UNL     1       2.522   5.019  20.676  0.00  0.00    +0.000 A 
ATOM      8  C   UNL     1       2.042   4.054  21.564  0.00  0.00    +0.000 A 
ATOM      9  C   UNL     1       1.897   2.738  21.137  0.00  0.00    +0.000 A 
ATOM     10  F   UNL     1       1.483   1.805  22.004  0.00  0.00    +0.000 F 
ATOM     11  C   UNL     1       2.191   2.372  19.829  0.00  0.00    +0.000 A 
ATOM     12  C   UNL     1       2.638   3.336  18.923  0.00  0.00    +0.000 A 
ENDBRANCH   5   6
BRANCH   1  14
ATOM     13  C   UNL     1       6.348   4.393  18.061  0.00  0.00    +0.000 C 
ATOM     14  C   UNL     1       5.779   5.361  18.791  0.00  0.00    +0.000 C 
BRANCH  13  19
ATOM     15  C   UNL     1       7.166   4.530  12.009  0.00  0.00    +0.000 C 
ATOM     16  C   UNL     1       7.000   4.560  13.473  0.00  0.00    +0.000 A 
ATOM     17  C   UNL     1       6.205   3.890  14.370  0.00  0.00    +0.000 A 
ATOM     18  C   UNL     1       6.593   4.391  15.636  0.00  0.00    +0.000 A 
ATOM     19  N   UNL     1       6.041   3.947  16.796  0.00  0.00    +0.000 N 
ATOM     20  N   UNL     1       7.541   5.327  15.501  0.00  0.00    +0.000 NA
ATOM     21  O   UNL     1       7.799   5.426  14.148  0.00  0.00    +0.000 OA
ATOM     22  H   UNL     1       5.368   3.183  16.777  0.00  0.00    +0.000 HD
ENDBRANCH  13  19
ENDBRANCH   1  14
TORSDOF 3
ENDMDL
MODEL 5
REMARK VINA RESULT:      -7.9      4.131      5.707
REMARK  Name = 
REMARK  4 active torsions:
REMARK  status: ('A' for Active; 'I' for Inactive)
REMARK    1  A    between atoms: C_1  and  C_2
REMARK    2  A    between atoms: N_5  and  C_6
REMARK    3  A    between atoms: C_7  and  C_8
REMARK    4  A    between atoms: N_12  and  C_13
REMARK                            x       y       z     vdW  Elec       q    Type
REMARK                         _______ _______ _______ _____ _____    ______ ____
ROOT
ATOM      1  C   UNL     1       6.922   5.455  16.420  0.00  0.00    +0.000 A 
ATOM      2  N   UNL     1       7.548   5.679  15.279  0.00  0.00    +0.000 NA
ATOM      3  N   UNL     1       6.798   5.083  14.301  0.00  0.00    +0.000 NA
ATOM      4  N   UNL     1       5.717   4.512  14.810  0.00  0.00    +0.000 NA
ATOM      5  N   UNL     1       5.704   4.850  16.121  0.00  0.00    +0.000 N 
ENDROOT
BRANCH   5   6
ATOM      6  C   UNL     1       4.537   4.669  16.905  0.00  0.00    +0.000 A 
ATOM      7  C   UNL     1       4.046   3.370  17.115  0.00  0.00    +0.000 A 
ATOM      8  C   UNL     1       2.862   3.184  17.831  0.00  0.00    +0.000 A 
ATOM      9  C   UNL     1       2.158   4.290  18.295  0.00  0.00    +0.000 A 
ATOM     10  F   UNL     1       0.997   4.110  18.940  0.00  0.00    +0.000 F 
ATOM     11  C   UNL     1       2.629   5.580  18.085  0.00  0.00    +0.000 A 
ATOM     12  C   UNL     1       3.830   5.776  17.401  0.00  0.00    +0.000 A 
ENDBRANCH   5   6
BRANCH   1  14
ATOM     13  C   UNL     1       7.705   6.811  18.268  0.00  0.00    +0.000 C 
ATOM     14  C   UNL     1       7.359   5.621  17.759  0.00  0.00    +0.000 C 
BRANCH  13  19
ATOM     15  C   UNL     1       9.471  12.657  18.134  0.00  0.00    +0.000 C 
ATOM     16  C   UNL     1       9.064  11.244  18.234  0.00  0.00    +0.000 A 
ATOM     17  C   UNL     1       8.263  10.413  17.490  0.00  0.00    +0.000 A 
ATOM     18  C   UNL     1       8.343   9.160  18.143  0.00  0.00    +0.000 A 
ATOM     19  N   UNL     1       7.695   8.057  17.685  0.00  0.00    +0.000 N 
ATOM     20  N   UNL     1       9.121   9.244  19.230  0.00  0.00    +0.000 NA
ATOM     21  O   UNL     1       9.577  10.547  19.281  0.00  0.00    +0.000 OA
ATOM     22  H   UNL     1       7.179   8.100  16.808  0.00  0.00    +0.000 HD
ENDBRANCH  13  19
ENDBRANCH   1  14
TORSDOF 3
ENDMDL
MODEL 6
REMARK VINA RESULT:      -7.9      2.703      3.493
REMARK  Name = 
REMARK  4 active torsions:
REMARK  status: ('A' for Active; 'I' for Inactive)
REMARK    1  A    between atoms: C_1  and  C_2
REMARK    2  A    between atoms: N_5  and  C_6
REMARK    3  A    between atoms: C_7  and  C_8
REMARK    4  A    between atoms: N_12  and  C_13
REMARK                            x       y       z     vdW  Elec       q    Type
REMARK                         _______ _______ _______ _____ _____    ______ ____
ROOT
ATOM      1  C   UNL     1       4.918   6.155  18.257  0.00  0.00    +0.000 A 
ATOM      2  N   UNL     1       4.792   7.245  17.521  0.00  0.00    +0.000 NA
ATOM      3  N   UNL     1       3.477   7.313  17.148  0.00  0.00    +0.000 NA
ATOM      4  N   UNL     1       2.787   6.300  17.648  0.00  0.00    +0.000 NA
ATOM      5  N   UNL     1       3.643   5.635  18.460  0.00  0.00    +0.000 N 
ENDROOT
BRANCH   5   6
ATOM      6  C   UNL     1       3.165   4.680  19.392  0.00  0.00    +0.000 A 
ATOM      7  C   UNL     1       3.164   3.320  19.043  0.00  0.00    +0.000 A 
ATOM      8  C   UNL     1       2.636   2.378  19.928  0.00  0.00    +0.000 A 
ATOM      9  C   UNL     1       2.077   2.799  21.130  0.00  0.00    +0.000 A 
ATOM     10  F   UNL     1       1.527   1.898  21.954  0.00  0.00    +0.000 F 
ATOM     11  C   UNL     1       2.063   4.143  21.481  0.00  0.00    +0.000 A 
ATOM     12  C   UNL     1       2.621   5.091  20.620  0.00  0.00    +0.000 A 
ENDBRANCH   5   6
BRANCH   1  14
ATOM     13  C   UNL     1       6.645   4.477  17.993  0.00  0.00    +0.000 C 
ATOM     14  C   UNL     1       6.078   5.468  18.695  0.00  0.00    +0.000 C 
BRANCH  13  19
ATOM     15  C   UNL     1       7.061   4.398  11.899  0.00  0.00    +0.000 C 
ATOM     16  C   UNL     1       6.988   4.482  13.368  0.00  0.00    +0.000 A 
ATOM     17  C   UNL     1       6.308   3.795  14.344  0.00  0.00    +0.000 A 
ATOM     18  C   UNL     1       6.735   4.382  15.559  0.00  0.00    +0.000 A 
ATOM     19  N   UNL     1       6.295   3.951  16.771  0.00  0.00    +0.000 N 
ATOM     20  N   UNL     1       7.594   5.382  15.322  0.00  0.00    +0.000 NA
ATOM     21  O   UNL     1       7.756   5.438  13.952  0.00  0.00    +0.000 OA
ATOM     22  H   UNL     1       5.686   3.137  16.829  0.00  0.00    +0.000 HD
ENDBRANCH  13  19
ENDBRANCH   1  14
TORSDOF 3
ENDMDL
MODEL 7
REMARK VINA RESULT:      -7.8      4.134      5.695
REMARK  Name = 
REMARK  4 active torsions:
REMARK  status: ('A' for Active; 'I' for Inactive)
REMARK    1  A    between atoms: C_1  and  C_2
REMARK    2  A    between atoms: N_5  and  C_6
REMARK    3  A    between atoms: C_7  and  C_8
REMARK    4  A    between atoms: N_12  and  C_13
REMARK                            x       y       z     vdW  Elec       q    Type
REMARK                         _______ _______ _______ _____ _____    ______ ____
ROOT
ATOM      1  C   UNL     1       6.914   5.556  16.463  0.00  0.00    +0.000 A 
ATOM      2  N   UNL     1       7.547   5.741  15.319  0.00  0.00    +0.000 NA
ATOM      3  N   UNL     1       6.775   5.158  14.349  0.00  0.00    +0.000 NA
ATOM      4  N   UNL     1       5.676   4.633  14.867  0.00  0.00    +0.000 NA
ATOM      5  N   UNL     1       5.675   4.990  16.173  0.00  0.00    +0.000 N 
ENDROOT
BRANCH   5   6
ATOM      6  C   UNL     1       4.504   4.861  16.960  0.00  0.00    +0.000 A 
ATOM      7  C   UNL     1       3.858   6.019  17.426  0.00  0.00    +0.000 A 
ATOM      8  C   UNL     1       2.741   5.903  18.255  0.00  0.00    +0.000 A 
ATOM      9  C   UNL     1       2.302   4.642  18.647  0.00  0.00    +0.000 A 
ATOM     10  F   UNL     1       1.260   4.536  19.483  0.00  0.00    +0.000 F 
ATOM     11  C   UNL     1       2.940   3.491  18.201  0.00  0.00    +0.000 A 
ATOM     12  C   UNL     1       4.036   3.594  17.343  0.00  0.00    +0.000 A 
ENDBRANCH   5   6
BRANCH   1  14
ATOM     13  C   UNL     1       7.736   6.912  18.295  0.00  0.00    +0.000 C 
ATOM     14  C   UNL     1       7.357   5.726  17.799  0.00  0.00    +0.000 C 
BRANCH  13  19
ATOM     15  C   UNL     1       9.532  12.749  18.172  0.00  0.00    +0.000 C 
ATOM     16  C   UNL     1       9.115  11.339  18.270  0.00  0.00    +0.000 A 
ATOM     17  C   UNL     1       8.344  10.503  17.501  0.00  0.00    +0.000 A 
ATOM     18  C   UNL     1       8.389   9.257  18.171  0.00  0.00    +0.000 A 
ATOM     19  N   UNL     1       7.757   8.151  17.697  0.00  0.00    +0.000 N 
ATOM     20  N   UNL     1       9.119   9.350  19.290  0.00  0.00    +0.000 NA
ATOM     21  O   UNL     1       9.577  10.652  19.346  0.00  0.00    +0.000 OA
ATOM     22  H   UNL     1       7.280   8.186  16.797  0.00  0.00    +0.000 HD
ENDBRANCH  13  19
ENDBRANCH   1  14
TORSDOF 3
ENDMDL
MODEL 8
REMARK VINA RESULT:      -7.8      3.471      7.009
REMARK  Name = 
REMARK  4 active torsions:
REMARK  status: ('A' for Active; 'I' for Inactive)
REMARK    1  A    between atoms: C_1  and  C_2
REMARK    2  A    between atoms: N_5  and  C_6
REMARK    3  A    between atoms: C_7  and  C_8
REMARK    4  A    between atoms: N_12  and  C_13
REMARK                            x       y       z     vdW  Elec       q    Type
REMARK                         _______ _______ _______ _____ _____    ______ ____
ROOT
ATOM      1  C   UNL     1       6.219   5.970  17.252  0.00  0.00    +0.000 A 
ATOM      2  N   UNL     1       6.765   6.055  18.452  0.00  0.00    +0.000 NA
ATOM      3  N   UNL     1       7.707   5.063  18.521  0.00  0.00    +0.000 NA
ATOM      4  N   UNL     1       7.764   4.381  17.388  0.00  0.00    +0.000 NA
ATOM      5  N   UNL     1       6.934   5.020  16.529  0.00  0.00    +0.000 N 
ENDROOT
BRANCH   5   6
ATOM      6  C   UNL     1       6.979   4.748  15.139  0.00  0.00    +0.000 A 
ATOM      7  C   UNL     1       7.867   5.471  14.326  0.00  0.00    +0.000 A 
ATOM      8  C   UNL     1       7.874   5.257  12.946  0.00  0.00    +0.000 A 
ATOM      9  C   UNL     1       6.972   4.359  12.384  0.00  0.00    +0.000 A 
ATOM     10  F   UNL     1       6.948   4.193  11.055  0.00  0.00    +0.000 F 
ATOM     11  C   UNL     1       6.082   3.646  13.178  0.00  0.00    +0.000 A 
ATOM     12  C   UNL     1       6.091   3.826  14.563  0.00  0.00    +0.000 A 
ENDBRANCH   5   6
BRANCH   1  14
ATOM     13  C   UNL     1       3.904   6.664  17.426  0.00  0.00    +0.000 C 
ATOM     14  C   UNL     1       5.045   6.571  16.730  0.00  0.00    +0.000 C 
BRANCH  13  19
ATOM     15  C   UNL     1       1.352   2.758  21.369  0.00  0.00    +0.000 C 
ATOM     16  C   UNL     1       1.927   3.673  20.368  0.00  0.00    +0.000 A 
ATOM     17  C   UNL     1       2.642   4.844  20.425  0.00  0.00    +0.000 A 
ATOM     18  C   UNL     1       2.904   5.170  19.073  0.00  0.00    +0.000 A 
ATOM     19  N   UNL     1       3.622   6.267  18.713  0.00  0.00    +0.000 N 
ATOM     20  N   UNL     1       2.352   4.265  18.255  0.00  0.00    +0.000 NA
ATOM     21  O   UNL     1       1.746   3.326  19.067  0.00  0.00    +0.000 OA
ATOM     22  H   UNL     1       4.047   6.852  19.430  0.00  0.00    +0.000 HD
ENDBRANCH  13  19
ENDBRANCH   1  14
TORSDOF 3
ENDMDL
MODEL 9
REMARK VINA RESULT:      -7.8      3.642      6.936
REMARK  Name = 
REMARK  4 active torsions:
REMARK  status: ('A' for Active; 'I' for Inactive)
REMARK    1  A    between atoms: C_1  and  C_2
REMARK    2  A    between atoms: N_5  and  C_6
REMARK    3  A    between atoms: C_7  and  C_8
REMARK    4  A    between atoms: N_12  and  C_13
REMARK                            x       y       z     vdW  Elec       q    Type
REMARK                         _______ _______ _______ _____ _____    ______ ____
ROOT
ATOM      1  C   UNL     1       6.483   5.948  17.667  0.00  0.00    +0.000 A 
ATOM      2  N   UNL     1       7.137   5.918  18.814  0.00  0.00    +0.000 NA
ATOM      3  N   UNL     1       7.992   4.851  18.745  0.00  0.00    +0.000 NA
ATOM      4  N   UNL     1       7.891   4.234  17.578  0.00  0.00    +0.000 NA
ATOM      5  N   UNL     1       7.048   4.987  16.833  0.00  0.00    +0.000 N 
ENDROOT
BRANCH   5   6
ATOM      6  C   UNL     1       6.947   4.793  15.433  0.00  0.00    +0.000 A 
ATOM      7  C   UNL     1       6.002   3.883  14.931  0.00  0.00    +0.000 A 
ATOM      8  C   UNL     1       5.938   3.637  13.559  0.00  0.00    +0.000 A 
ATOM      9  C   UNL     1       6.839   4.263  12.704  0.00  0.00    +0.000 A 
ATOM     10  F   UNL     1       6.807   3.987  11.394  0.00  0.00    +0.000 F 
ATOM     11  C   UNL     1       7.785   5.157  13.190  0.00  0.00    +0.000 A 
ATOM     12  C   UNL     1       7.835   5.439  14.557  0.00  0.00    +0.000 A 
ENDBRANCH   5   6
BRANCH   1  14
ATOM     13  C   UNL     1       4.089   6.156  17.360  0.00  0.00    +0.000 C 
ATOM     14  C   UNL     1       5.324   6.671  17.286  0.00  0.00    +0.000 C 
BRANCH  13  19
ATOM     15  C   UNL     1       1.574   2.620  21.659  0.00  0.00    +0.000 C 
ATOM     16  C   UNL     1       2.191   3.522  20.671  0.00  0.00    +0.000 A 
ATOM     17  C   UNL     1       2.729   3.362  19.418  0.00  0.00    +0.000 A 
ATOM     18  C   UNL     1       3.113   4.666  19.023  0.00  0.00    +0.000 A 
ATOM     19  N   UNL     1       3.672   4.926  17.811  0.00  0.00    +0.000 N 
ATOM     20  N   UNL     1       2.849   5.549  19.994  0.00  0.00    +0.000 NA
ATOM     21  O   UNL     1       2.267   4.832  21.022  0.00  0.00    +0.000 OA
ATOM     22  H   UNL     1       3.768   4.178  17.127  0.00  0.00    +0.000 HD
ENDBRANCH  13  19
ENDBRANCH   1  14
TORSDOF 3
ENDMDL
