MODEL 1
REMARK VINA RESULT:      -8.1      0.000      0.000
REMARK  Name = 
REMARK  7 active torsions:
REMARK  status: ('A' for Active; 'I' for Inactive)
REMARK    1  A    between atoms: C_1  and  C_2
REMARK    2  A    between atoms: C_8  and  C_9
REMARK    3  A    between atoms: C_10  and  C_11
REMARK    4  A    between atoms: C_11  and  C_12
REMARK    5  A    between atoms: C_11  and  O_13
REMARK    6  A    between atoms: C_11  and  C_14
REMARK    7  A    between atoms: C_24  and  C_25
REMARK                            x       y       z     vdW  Elec       q    Type
REMARK                         _______ _______ _______ _____ _____    ______ ____
ROOT
ATOM      1  C   UNL     1       3.511   1.715  17.641  0.00  0.00    +0.000 C 
ATOM      2  C   UNL     1       3.268   3.069  18.312  0.00  0.00    +0.000 C 
ATOM      3  C   UNL     1       3.427   2.938  19.830  0.00  0.00    +0.000 C 
ATOM      4  O   UNL     1       2.809   3.939  20.632  0.00  0.00    +0.000 OA
ATOM      5  C   UNL     1       2.575   5.223  20.242  0.00  0.00    +0.000 A 
ATOM      6  C   UNL     1       1.594   5.810  21.060  0.00  0.00    +0.000 A 
ATOM      7  C   UNL     1       1.149   7.113  20.847  0.00  0.00    +0.000 A 
ATOM      8  C   UNL     1       1.700   7.866  19.817  0.00  0.00    +0.000 A 
ATOM      9  C   UNL     1       2.709   7.312  19.019  0.00  0.00    +0.000 A 
ATOM     10  C   UNL     1       3.159   5.984  19.211  0.00  0.00    +0.000 A 
ATOM     11  C   UNL     1       4.176   5.476  18.291  0.00  0.00    +0.000 A 
ATOM     12  N   UNL     1       5.159   6.295  17.736  0.00  0.00    +0.000 NA
ATOM     13  C   UNL     1       5.928   5.574  16.934  0.00  0.00    +0.000 A 
ATOM     14  S   UNL     1       5.496   3.930  16.775  0.00  0.00    +0.000 S 
ATOM     15  C   UNL     1       4.197   4.161  17.864  0.00  0.00    +0.000 A 
ENDROOT
BRANCH  13  16
ATOM     16  C   UNL     1       7.084   6.091  16.209  0.00  0.00    +0.000 C 
ATOM     17  N   UNL     1       7.408   5.413  15.063  0.00  0.00    +0.000 N 
ATOM     18  O   UNL     1       7.766   7.063  16.534  0.00  0.00    +0.000 OA
ATOM     19  H   UNL     1       6.839   4.637  14.750  0.00  0.00    +0.000 HD
ATOM     20  H   UNL     1       8.178   5.753  14.505  0.00  0.00    +0.000 HD
ENDBRANCH  13  16
BRANCH   8  21
ATOM     21  C   UNL     1       1.202   9.190  19.590  0.00  0.00    +0.000 C 
ATOM     22  C   UNL     1       0.749  10.276  19.347  0.00  0.00    +0.000 C 
BRANCH  22  23
ATOM     23  C   UNL     1       0.184  11.617  19.059  0.00  0.00    +0.000 C 
ATOM     24  C   UNL     1       0.295  12.496  20.312  0.00  0.00    +0.000 C 
BRANCH  23  25
ATOM     25  C   UNL     1      -1.303  11.596  18.639  0.00  0.00    +0.000 A 
ATOM     26  N   UNL     1      -1.682  10.790  17.618  0.00  0.00    +0.000 NA
ATOM     27  C   UNL     1      -3.003  10.700  17.368  0.00  0.00    +0.000 A 
ATOM     28  C   UNL     1      -3.964  11.357  18.096  0.00  0.00    +0.000 A 
ATOM     29  C   UNL     1      -3.494  12.141  19.119  0.00  0.00    +0.000 A 
ATOM     30  N   UNL     1      -2.188  12.269  19.417  0.00  0.00    +0.000 NA
ENDBRANCH  23  25
BRANCH  23  31
ATOM     31  O   UNL     1       1.000  12.213  18.036  0.00  0.00    +0.000 OA
ATOM     32  H   UNL     1       0.968  11.618  17.272  0.00  0.00    +0.000 HD
ENDBRANCH  23  31
ENDBRANCH  22  23
ENDBRANCH   8  21
TORSDOF 5
ENDMDL
MODEL 2
REMARK VINA RESULT:      -8.0      0.667      1.096
REMARK  Name = 
REMARK  7 active torsions:
REMARK  status: ('A' for Active; 'I' for Inactive)
REMARK    1  A    between atoms: C_1  and  C_2
REMARK    2  A    between atoms: C_8  and  C_9
REMARK    3  A    between atoms: C_10  and  C_11
REMARK    4  A    between atoms: C_11  and  C_12
REMARK    5  A    between atoms: C_11  and  O_13
REMARK    6  A    between atoms: C_11  and  C_14
REMARK    7  A    between atoms: C_24  and  C_25
REMARK                            x       y       z     vdW  Elec       q    Type
REMARK                         _______ _______ _______ _____ _____    ______ ____
ROOT
ATOM      1  C   UNL     1       3.388   1.624  17.649  0.00  0.00    +0.000 C 
ATOM      2  C   UNL     1       3.180   2.987  18.316  0.00  0.00    +0.000 C 
ATOM      3  C   UNL     1       3.372   2.863  19.831  0.00  0.00    +0.000 C 
ATOM      4  O   UNL     1       2.786   3.879  20.640  0.00  0.00    +0.000 OA
ATOM      5  C   UNL     1       2.563   5.164  20.246  0.00  0.00    +0.000 A 
ATOM      6  C   UNL     1       1.610   5.772  21.081  0.00  0.00    +0.000 A 
ATOM      7  C   UNL     1       1.179   7.080  20.869  0.00  0.00    +0.000 A 
ATOM      8  C   UNL     1       1.718   7.817  19.821  0.00  0.00    +0.000 A 
ATOM      9  C   UNL     1       2.700   7.242  19.005  0.00  0.00    +0.000 A 
ATOM     10  C   UNL     1       3.134   5.909  19.195  0.00  0.00    +0.000 A 
ATOM     11  C   UNL     1       4.122   5.380  18.257  0.00  0.00    +0.000 A 
ATOM     12  N   UNL     1       5.105   6.180  17.674  0.00  0.00    +0.000 NA
ATOM     13  C   UNL     1       5.844   5.442  16.859  0.00  0.00    +0.000 A 
ATOM     14  S   UNL     1       5.385   3.803  16.722  0.00  0.00    +0.000 S 
ATOM     15  C   UNL     1       4.115   4.062  17.839  0.00  0.00    +0.000 A 
ENDROOT
BRANCH  13  16
ATOM     16  C   UNL     1       6.991   5.937  16.105  0.00  0.00    +0.000 C 
ATOM     17  N   UNL     1       7.631   7.018  16.653  0.00  0.00    +0.000 N 
ATOM     18  O   UNL     1       7.419   5.469  15.049  0.00  0.00    +0.000 OA
ATOM     19  H   UNL     1       7.326   7.396  17.542  0.00  0.00    +0.000 HD
ATOM     20  H   UNL     1       8.453   7.377  16.189  0.00  0.00    +0.000 HD
ENDBRANCH  13  16
BRANCH   8  21
ATOM     21  C   UNL     1       1.234   9.146  19.595  0.00  0.00    +0.000 C 
ATOM     22  C   UNL     1       0.766  10.238  19.414  0.00  0.00    +0.000 C 
BRANCH  22  23
ATOM     23  C   UNL     1       0.195  11.590  19.201  0.00  0.00    +0.000 C 
ATOM     24  C   UNL     1       0.593  12.501  20.369  0.00  0.00    +0.000 C 
BRANCH  23  25
ATOM     25  C   UNL     1      -1.348  11.613  19.101  0.00  0.00    +0.000 A 
ATOM     26  N   UNL     1      -2.049  12.342  20.002  0.00  0.00    +0.000 NA
ATOM     27  C   UNL     1      -3.378  12.443  19.804  0.00  0.00    +0.000 A 
ATOM     28  C   UNL     1      -4.037  11.871  18.743  0.00  0.00    +0.000 A 
ATOM     29  C   UNL     1      -3.249  11.163  17.873  0.00  0.00    +0.000 A 
ATOM     30  N   UNL     1      -1.918  11.028  18.018  0.00  0.00    +0.000 NA
ENDBRANCH  23  25
BRANCH  23  31
ATOM     31  O   UNL     1       0.796  12.124  18.008  0.00  0.00    +0.000 OA
ATOM     32  H   UNL     1       0.997  13.055  18.190  0.00  0.00    +0.000 HD
ENDBRANCH  23  31
ENDBRANCH  22  23
ENDBRANCH   8  21
TORSDOF 5
ENDMDL
MODEL 3
REMARK VINA RESULT:      -7.9      1.527      1.908
REMARK  Name = 
REMARK  7 active torsions:
REMARK  status: ('A' for Active; 'I' for Inactive)
REMARK    1  A    between atoms: C_1  and  C_2
REMARK    2  A    between atoms: C_8  and  C_9
REMARK    3  A    between atoms: C_10  and  C_11
REMARK    4  A    between atoms: C_11  and  C_12
REMARK    5  A    between atoms: C_11  and  O_13
REMARK    6  A    between atoms: C_11  and  C_14
REMARK    7  A    between atoms: C_24  and  C_25
REMARK                            x       y       z     vdW  Elec       q    Type
REMARK                         _______ _______ _______ _____ _____    ______ ____
ROOT
ATOM      1  C   UNL     1       2.905   1.878  17.516  0.00  0.00    +0.000 C 
ATOM      2  C   UNL     1       2.800   3.238  18.213  0.00  0.00    +0.000 C 
ATOM      3  C   UNL     1       2.954   3.063  19.727  0.00  0.00    +0.000 C 
ATOM      4  O   UNL     1       2.442   4.105  20.552  0.00  0.00    +0.000 OA
ATOM      5  C   UNL     1       2.333   5.413  20.186  0.00  0.00    +0.000 A 
ATOM      6  C   UNL     1       1.420   6.079  21.022  0.00  0.00    +0.000 A 
ATOM      7  C   UNL     1       1.104   7.423  20.835  0.00  0.00    +0.000 A 
ATOM      8  C   UNL     1       1.721   8.137  19.815  0.00  0.00    +0.000 A 
ATOM      9  C   UNL     1       2.665   7.501  19.000  0.00  0.00    +0.000 A 
ATOM     10  C   UNL     1       2.983   6.132  19.164  0.00  0.00    +0.000 A 
ATOM     11  C   UNL     1       3.940   5.544  18.228  0.00  0.00    +0.000 A 
ATOM     12  N   UNL     1       4.996   6.272  17.680  0.00  0.00    +0.000 NA
ATOM     13  C   UNL     1       5.685   5.494  16.859  0.00  0.00    +0.000 A 
ATOM     14  S   UNL     1       5.093   3.903  16.675  0.00  0.00    +0.000 S 
ATOM     15  C   UNL     1       3.830   4.241  17.777  0.00  0.00    +0.000 A 
ENDROOT
BRANCH  13  16
ATOM     16  C   UNL     1       6.882   5.908  16.135  0.00  0.00    +0.000 C 
ATOM     17  N   UNL     1       7.571   6.955  16.691  0.00  0.00    +0.000 N 
ATOM     18  O   UNL     1       7.313   5.402  15.098  0.00  0.00    +0.000 OA
ATOM     19  H   UNL     1       7.263   7.362  17.565  0.00  0.00    +0.000 HD
ATOM     20  H   UNL     1       8.427   7.257  16.249  0.00  0.00    +0.000 HD
ENDBRANCH  13  16
BRANCH   8  21
ATOM     21  C   UNL     1       1.354   9.507  19.614  0.00  0.00    +0.000 C 
ATOM     22  C   UNL     1       1.006  10.652  19.500  0.00  0.00    +0.000 C 
BRANCH  22  23
ATOM     23  C   UNL     1       0.589  12.069  19.360  0.00  0.00    +0.000 C 
ATOM     24  C   UNL     1       1.823  12.975  19.460  0.00  0.00    +0.000 C 
BRANCH  23  25
ATOM     25  C   UNL     1      -0.418  12.537  20.435  0.00  0.00    +0.000 A 
ATOM     26  N   UNL     1      -1.691  12.813  20.061  0.00  0.00    +0.000 NA
ATOM     27  C   UNL     1      -2.569  13.090  21.044  0.00  0.00    +0.000 A 
ATOM     28  C   UNL     1      -2.247  13.086  22.379  0.00  0.00    +0.000 A 
ATOM     29  C   UNL     1      -0.941  12.784  22.669  0.00  0.00    +0.000 A 
ATOM     30  N   UNL     1      -0.020  12.498  21.732  0.00  0.00    +0.000 NA
ENDBRANCH  23  25
BRANCH  23  31
ATOM     31  O   UNL     1       0.042  12.224  18.039  0.00  0.00    +0.000 OA
ATOM     32  H   UNL     1       0.430  13.032  17.670  0.00  0.00    +0.000 HD
ENDBRANCH  23  31
ENDBRANCH  22  23
ENDBRANCH   8  21
TORSDOF 5
ENDMDL
MODEL 4
REMARK VINA RESULT:      -7.9      1.923      2.505
REMARK  Name = 
REMARK  7 active torsions:
REMARK  status: ('A' for Active; 'I' for Inactive)
REMARK    1  A    between atoms: C_1  and  C_2
REMARK    2  A    between atoms: C_8  and  C_9
REMARK    3  A    between atoms: C_10  and  C_11
REMARK    4  A    between atoms: C_11  and  C_12
REMARK    5  A    between atoms: C_11  and  O_13
REMARK    6  A    between atoms: C_11  and  C_14
REMARK    7  A    between atoms: C_24  and  C_25
REMARK                            x       y       z     vdW  Elec       q    Type
REMARK                         _______ _______ _______ _____ _____    ______ ____
ROOT
ATOM      1  C   UNL     1       2.415   2.065  17.920  0.00  0.00    +0.000 C 
ATOM      2  C   UNL     1       2.401   3.493  18.471  0.00  0.00    +0.000 C 
ATOM      3  C   UNL     1       2.655   3.473  19.982  0.00  0.00    +0.000 C 
ATOM      4  O   UNL     1       2.234   4.614  20.722  0.00  0.00    +0.000 OA
ATOM      5  C   UNL     1       2.141   5.880  20.227  0.00  0.00    +0.000 A 
ATOM      6  C   UNL     1       1.309   6.664  21.044  0.00  0.00    +0.000 A 
ATOM      7  C   UNL     1       1.023   7.992  20.736  0.00  0.00    +0.000 A 
ATOM      8  C   UNL     1       1.588   8.571  19.606  0.00  0.00    +0.000 A 
ATOM      9  C   UNL     1       2.453   7.818  18.803  0.00  0.00    +0.000 A 
ATOM     10  C   UNL     1       2.740   6.462  19.092  0.00  0.00    +0.000 A 
ATOM     11  C   UNL     1       3.610   5.743  18.164  0.00  0.00    +0.000 A 
ATOM     12  N   UNL     1       4.647   6.369  17.472  0.00  0.00    +0.000 NA
ATOM     13  C   UNL     1       5.253   5.483  16.695  0.00  0.00    +0.000 A 
ATOM     14  S   UNL     1       4.601   3.905  16.722  0.00  0.00    +0.000 S 
ATOM     15  C   UNL     1       3.428   4.405  17.863  0.00  0.00    +0.000 A 
ENDROOT
BRANCH  13  16
ATOM     16  C   UNL     1       6.409   5.772  15.853  0.00  0.00    +0.000 C 
ATOM     17  N   UNL     1       7.469   6.360  16.494  0.00  0.00    +0.000 N 
ATOM     18  O   UNL     1       6.506   5.532  14.650  0.00  0.00    +0.000 OA
ATOM     19  H   UNL     1       7.432   6.530  17.492  0.00  0.00    +0.000 HD
ATOM     20  H   UNL     1       8.307   6.548  15.965  0.00  0.00    +0.000 HD
ENDBRANCH  13  16
BRANCH   8  21
ATOM     21  C   UNL     1       1.251   9.925  19.284  0.00  0.00    +0.000 C 
ATOM     22  C   UNL     1       0.985  11.079  19.077  0.00  0.00    +0.000 C 
BRANCH  22  23
ATOM     23  C   UNL     1       0.666  12.503  18.811  0.00  0.00    +0.000 C 
ATOM     24  C   UNL     1       1.884  13.187  18.176  0.00  0.00    +0.000 C 
BRANCH  23  25
ATOM     25  C   UNL     1       0.289  13.309  20.075  0.00  0.00    +0.000 A 
ATOM     26  N   UNL     1      -0.870  13.017  20.714  0.00  0.00    +0.000 NA
ATOM     27  C   UNL     1      -1.100  13.648  21.881  0.00  0.00    +0.000 A 
ATOM     28  C   UNL     1      -0.225  14.541  22.451  0.00  0.00    +0.000 A 
ATOM     29  C   UNL     1       0.928  14.769  21.744  0.00  0.00    +0.000 A 
ATOM     30  N   UNL     1       1.213  14.167  20.575  0.00  0.00    +0.000 NA
ENDBRANCH  23  25
BRANCH  23  31
ATOM     31  O   UNL     1      -0.400  12.529  17.846  0.00  0.00    +0.000 OA
ATOM     32  H   UNL     1      -0.909  11.713  17.972  0.00  0.00    +0.000 HD
ENDBRANCH  23  31
ENDBRANCH  22  23
ENDBRANCH   8  21
TORSDOF 5
ENDMDL
MODEL 5
REMARK VINA RESULT:      -7.9      1.659      2.123
REMARK  Name = 
REMARK  7 active torsions:
REMARK  status: ('A' for Active; 'I' for Inactive)
REMARK    1  A    between atoms: C_1  and  C_2
REMARK    2  A    between atoms: C_8  and  C_9
REMARK    3  A    between atoms: C_10  and  C_11
REMARK    4  A    between atoms: C_11  and  C_12
REMARK    5  A    between atoms: C_11  and  O_13
REMARK    6  A    between atoms: C_11  and  C_14
REMARK    7  A    between atoms: C_24  and  C_25
REMARK                            x       y       z     vdW  Elec       q    Type
REMARK                         _______ _______ _______ _____ _____    ______ ____
ROOT
ATOM      1  C   UNL     1       3.350   1.758  17.628  0.00  0.00    +0.000 C 
ATOM      2  C   UNL     1       3.146   3.125  18.286  0.00  0.00    +0.000 C 
ATOM      3  C   UNL     1       3.295   3.002  19.806  0.00  0.00    +0.000 C 
ATOM      4  O   UNL     1       2.704   4.028  20.598  0.00  0.00    +0.000 OA
ATOM      5  C   UNL     1       2.512   5.315  20.196  0.00  0.00    +0.000 A 
ATOM      6  C   UNL     1       1.547   5.940  21.005  0.00  0.00    +0.000 A 
ATOM      7  C   UNL     1       1.143   7.254  20.779  0.00  0.00    +0.000 A 
ATOM      8  C   UNL     1       1.721   7.981  19.746  0.00  0.00    +0.000 A 
ATOM      9  C   UNL     1       2.715   7.389  18.957  0.00  0.00    +0.000 A 
ATOM     10  C   UNL     1       3.123   6.050  19.161  0.00  0.00    +0.000 A 
ATOM     11  C   UNL     1       4.128   5.503  18.250  0.00  0.00    +0.000 A 
ATOM     12  N   UNL     1       5.138   6.286  17.693  0.00  0.00    +0.000 NA
ATOM     13  C   UNL     1       5.888   5.536  16.900  0.00  0.00    +0.000 A 
ATOM     14  S   UNL     1       5.406   3.904  16.752  0.00  0.00    +0.000 S 
ATOM     15  C   UNL     1       4.110   4.184  17.834  0.00  0.00    +0.000 A 
ENDROOT
BRANCH  13  16
ATOM     16  C   UNL     1       7.062   6.010  16.176  0.00  0.00    +0.000 C 
ATOM     17  N   UNL     1       7.372   5.312  15.038  0.00  0.00    +0.000 N 
ATOM     18  O   UNL     1       7.772   6.965  16.495  0.00  0.00    +0.000 OA
ATOM     19  H   UNL     1       6.780   4.549  14.730  0.00  0.00    +0.000 HD
ATOM     20  H   UNL     1       8.154   5.622  14.480  0.00  0.00    +0.000 HD
ENDBRANCH  13  16
BRANCH   8  21
ATOM     21  C   UNL     1       1.265   9.317  19.505  0.00  0.00    +0.000 C 
ATOM     22  C   UNL     1       0.923  10.459  19.352  0.00  0.00    +0.000 C 
BRANCH  22  23
ATOM     23  C   UNL     1       0.506  11.868  19.151  0.00  0.00    +0.000 C 
ATOM     24  C   UNL     1       1.717  12.700  18.709  0.00  0.00    +0.000 C 
BRANCH  23  25
ATOM     25  C   UNL     1      -0.079  12.538  20.415  0.00  0.00    +0.000 A 
ATOM     26  N   UNL     1      -0.723  11.766  21.324  0.00  0.00    +0.000 NA
ATOM     27  C   UNL     1      -1.102  12.361  22.472  0.00  0.00    +0.000 A 
ATOM     28  C   UNL     1      -0.855  13.680  22.765  0.00  0.00    +0.000 A 
ATOM     29  C   UNL     1      -0.187  14.384  21.796  0.00  0.00    +0.000 A 
ATOM     30  N   UNL     1       0.217  13.843  20.632  0.00  0.00    +0.000 NA
ENDBRANCH  23  25
BRANCH  23  31
ATOM     31  O   UNL     1      -0.447  11.881  18.074  0.00  0.00    +0.000 OA
ATOM     32  H   UNL     1      -0.235  12.651  17.523  0.00  0.00    +0.000 HD
ENDBRANCH  23  31
ENDBRANCH  22  23
ENDBRANCH   8  21
TORSDOF 5
ENDMDL
MODEL 6
REMARK VINA RESULT:      -7.8      2.664      4.281
REMARK  Name = 
REMARK  7 active torsions:
REMARK  status: ('A' for Active; 'I' for Inactive)
REMARK    1  A    between atoms: C_1  and  C_2
REMARK    2  A    between atoms: C_8  and  C_9
REMARK    3  A    between atoms: C_10  and  C_11
REMARK    4  A    between atoms: C_11  and  C_12
REMARK    5  A    between atoms: C_11  and  O_13
REMARK    6  A    between atoms: C_11  and  C_14
REMARK    7  A    between atoms: C_24  and  C_25
REMARK                            x       y       z     vdW  Elec       q    Type
REMARK                         _______ _______ _______ _____ _____    ______ ____
ROOT
ATOM      1  C   UNL     1       6.462   5.192  18.245  0.00  0.00    +0.000 C 
ATOM      2  C   UNL     1       5.177   6.018  18.353  0.00  0.00    +0.000 C 
ATOM      3  C   UNL     1       4.572   6.228  16.961  0.00  0.00    +0.000 C 
ATOM      4  O   UNL     1       3.668   7.318  16.809  0.00  0.00    +0.000 OA
ATOM      5  C   UNL     1       2.889   7.835  17.799  0.00  0.00    +0.000 A 
ATOM      6  C   UNL     1       2.459   9.129  17.458  0.00  0.00    +0.000 A 
ATOM      7  C   UNL     1       1.675   9.891  18.321  0.00  0.00    +0.000 A 
ATOM      8  C   UNL     1       1.282   9.357  19.542  0.00  0.00    +0.000 A 
ATOM      9  C   UNL     1       1.665   8.053  19.881  0.00  0.00    +0.000 A 
ATOM     10  C   UNL     1       2.477   7.273  19.024  0.00  0.00    +0.000 A 
ATOM     11  C   UNL     1       2.871   5.945  19.491  0.00  0.00    +0.000 A 
ATOM     12  N   UNL     1       2.049   5.162  20.300  0.00  0.00    +0.000 NA
ATOM     13  C   UNL     1       2.665   4.023  20.579  0.00  0.00    +0.000 A 
ATOM     14  S   UNL     1       4.238   3.855  19.937  0.00  0.00    +0.000 S 
ATOM     15  C   UNL     1       4.110   5.398  19.209  0.00  0.00    +0.000 A 
ENDROOT
BRANCH  13  16
ATOM     16  C   UNL     1       2.090   2.942  21.373  0.00  0.00    +0.000 C 
ATOM     17  N   UNL     1       0.761   2.693  21.148  0.00  0.00    +0.000 N 
ATOM     18  O   UNL     1       2.689   2.254  22.200  0.00  0.00    +0.000 OA
ATOM     19  H   UNL     1       0.255   3.215  20.443  0.00  0.00    +0.000 HD
ATOM     20  H   UNL     1       0.323   1.931  21.645  0.00  0.00    +0.000 HD
ENDBRANCH  13  16
BRANCH   8  21
ATOM     21  C   UNL     1       0.508  10.170  20.432  0.00  0.00    +0.000 C 
ATOM     22  C   UNL     1      -0.157  10.891  21.126  0.00  0.00    +0.000 C 
BRANCH  22  23
ATOM     23  C   UNL     1      -0.987  11.770  21.986  0.00  0.00    +0.000 C 
ATOM     24  C   UNL     1      -1.352  11.023  23.275  0.00  0.00    +0.000 C 
BRANCH  23  25
ATOM     25  C   UNL     1      -2.307  12.230  21.327  0.00  0.00    +0.000 A 
ATOM     26  N   UNL     1      -2.431  12.139  19.981  0.00  0.00    +0.000 NA
ATOM     27  C   UNL     1      -3.639  12.425  19.458  0.00  0.00    +0.000 A 
ATOM     28  C   UNL     1      -4.733  12.777  20.212  0.00  0.00    +0.000 A 
ATOM     29  C   UNL     1      -4.522  12.831  21.566  0.00  0.00    +0.000 A 
ATOM     30  N   UNL     1      -3.339  12.556  22.145  0.00  0.00    +0.000 NA
ENDBRANCH  23  25
BRANCH  23  31
ATOM     31  O   UNL     1      -0.174  12.898  22.353  0.00  0.00    +0.000 OA
ATOM     32  H   UNL     1      -0.646  13.690  22.054  0.00  0.00    +0.000 HD
ENDBRANCH  23  31
ENDBRANCH  22  23
ENDBRANCH   8  21
TORSDOF 5
ENDMDL
MODEL 7
REMARK VINA RESULT:      -7.8      0.813      1.021
REMARK  Name = 
REMARK  7 active torsions:
REMARK  status: ('A' for Active; 'I' for Inactive)
REMARK    1  A    between atoms: C_1  and  C_2
REMARK    2  A    between atoms: C_8  and  C_9
REMARK    3  A    between atoms: C_10  and  C_11
REMARK    4  A    between atoms: C_11  and  C_12
REMARK    5  A    between atoms: C_11  and  O_13
REMARK    6  A    between atoms: C_11  and  C_14
REMARK    7  A    between atoms: C_24  and  C_25
REMARK                            x       y       z     vdW  Elec       q    Type
REMARK                         _______ _______ _______ _____ _____    ______ ____
ROOT
ATOM      1  C   UNL     1       2.833   1.902  17.623  0.00  0.00    +0.000 C 
ATOM      2  C   UNL     1       2.732   3.277  18.289  0.00  0.00    +0.000 C 
ATOM      3  C   UNL     1       2.935   3.142  19.802  0.00  0.00    +0.000 C 
ATOM      4  O   UNL     1       2.435   4.198  20.616  0.00  0.00    +0.000 OA
ATOM      5  C   UNL     1       2.299   5.495  20.222  0.00  0.00    +0.000 A 
ATOM      6  C   UNL     1       1.403   6.170  21.069  0.00  0.00    +0.000 A 
ATOM      7  C   UNL     1       1.065   7.505  20.860  0.00  0.00    +0.000 A 
ATOM      8  C   UNL     1       1.640   8.201  19.803  0.00  0.00    +0.000 A 
ATOM      9  C   UNL     1       2.567   7.557  18.975  0.00  0.00    +0.000 A 
ATOM     10  C   UNL     1       2.908   6.196  19.163  0.00  0.00    +0.000 A 
ATOM     11  C   UNL     1       3.843   5.596  18.213  0.00  0.00    +0.000 A 
ATOM     12  N   UNL     1       4.872   6.323  17.614  0.00  0.00    +0.000 NA
ATOM     13  C   UNL     1       5.546   5.533  16.792  0.00  0.00    +0.000 A 
ATOM     14  S   UNL     1       4.968   3.931  16.665  0.00  0.00    +0.000 S 
ATOM     15  C   UNL     1       3.735   4.281  17.797  0.00  0.00    +0.000 A 
ENDROOT
BRANCH  13  16
ATOM     16  C   UNL     1       6.714   5.943  16.021  0.00  0.00    +0.000 C 
ATOM     17  N   UNL     1       6.801   5.412  14.760  0.00  0.00    +0.000 N 
ATOM     18  O   UNL     1       7.599   6.711  16.401  0.00  0.00    +0.000 OA
ATOM     19  H   UNL     1       6.066   4.812  14.407  0.00  0.00    +0.000 HD
ATOM     20  H   UNL     1       7.572   5.693  14.172  0.00  0.00    +0.000 HD
ENDBRANCH  13  16
BRANCH   8  21
ATOM     21  C   UNL     1       1.250   9.561  19.581  0.00  0.00    +0.000 C 
ATOM     22  C   UNL     1       0.959  10.720  19.448  0.00  0.00    +0.000 C 
BRANCH  22  23
ATOM     23  C   UNL     1       0.605  12.149  19.273  0.00  0.00    +0.000 C 
ATOM     24  C   UNL     1       1.407  12.998  20.267  0.00  0.00    +0.000 C 
BRANCH  23  25
ATOM     25  C   UNL     1      -0.892  12.459  19.500  0.00  0.00    +0.000 A 
ATOM     26  N   UNL     1      -1.818  11.747  18.813  0.00  0.00    +0.000 NA
ATOM     27  C   UNL     1      -3.110  11.954  19.135  0.00  0.00    +0.000 A 
ATOM     28  C   UNL     1      -3.522  12.820  20.119  0.00  0.00    +0.000 A 
ATOM     29  C   UNL     1      -2.519  13.490  20.772  0.00  0.00    +0.000 A 
ATOM     30  N   UNL     1      -1.213  13.323  20.496  0.00  0.00    +0.000 NA
ENDBRANCH  23  25
BRANCH  23  31
ATOM     31  O   UNL     1       1.014  12.530  17.947  0.00  0.00    +0.000 OA
ATOM     32  H   UNL     1       1.017  11.721  17.414  0.00  0.00    +0.000 HD
ENDBRANCH  23  31
ENDBRANCH  22  23
ENDBRANCH   8  21
TORSDOF 5
ENDMDL
MODEL 8
REMARK VINA RESULT:      -7.7      2.060      2.618
REMARK  Name = 
REMARK  7 active torsions:
REMARK  status: ('A' for Active; 'I' for Inactive)
REMARK    1  A    between atoms: C_1  and  C_2
REMARK    2  A    between atoms: C_8  and  C_9
REMARK    3  A    between atoms: C_10  and  C_11
REMARK    4  A    between atoms: C_11  and  C_12
REMARK    5  A    between atoms: C_11  and  O_13
REMARK    6  A    between atoms: C_11  and  C_14
REMARK    7  A    between atoms: C_24  and  C_25
REMARK                            x       y       z     vdW  Elec       q    Type
REMARK                         _______ _______ _______ _____ _____    ______ ____
ROOT
ATOM      1  C   UNL     1       1.970   2.375  18.281  0.00  0.00    +0.000 C 
ATOM      2  C   UNL     1       2.006   3.825  18.772  0.00  0.00    +0.000 C 
ATOM      3  C   UNL     1       2.285   3.860  20.278  0.00  0.00    +0.000 C 
ATOM      4  O   UNL     1       1.909   5.043  20.976  0.00  0.00    +0.000 OA
ATOM      5  C   UNL     1       1.844   6.289  20.429  0.00  0.00    +0.000 A 
ATOM      6  C   UNL     1       1.049   7.131  21.226  0.00  0.00    +0.000 A 
ATOM      7  C   UNL     1       0.795   8.453  20.866  0.00  0.00    +0.000 A 
ATOM      8  C   UNL     1       1.357   8.967  19.704  0.00  0.00    +0.000 A 
ATOM      9  C   UNL     1       2.187   8.156  18.920  0.00  0.00    +0.000 A 
ATOM     10  C   UNL     1       2.440   6.806  19.262  0.00  0.00    +0.000 A 
ATOM     11  C   UNL     1       3.273   6.024  18.351  0.00  0.00    +0.000 A 
ATOM     12  N   UNL     1       4.316   6.590  17.617  0.00  0.00    +0.000 NA
ATOM     13  C   UNL     1       4.884   5.655  16.869  0.00  0.00    +0.000 A 
ATOM     14  S   UNL     1       4.187   4.100  16.973  0.00  0.00    +0.000 S 
ATOM     15  C   UNL     1       3.049   4.681  18.110  0.00  0.00    +0.000 A 
ENDROOT
BRANCH  13  16
ATOM     16  C   UNL     1       6.033   5.876  15.998  0.00  0.00    +0.000 C 
ATOM     17  N   UNL     1       5.896   5.406  14.717  0.00  0.00    +0.000 N 
ATOM     18  O   UNL     1       7.082   6.440  16.312  0.00  0.00    +0.000 OA
ATOM     19  H   UNL     1       5.028   4.977  14.421  0.00  0.00    +0.000 HD
ATOM     20  H   UNL     1       6.649   5.566  14.063  0.00  0.00    +0.000 HD
ENDBRANCH  13  16
BRANCH   8  21
ATOM     21  C   UNL     1       1.053  10.316  19.331  0.00  0.00    +0.000 C 
ATOM     22  C   UNL     1       0.848  11.469  19.058  0.00  0.00    +0.000 C 
BRANCH  22  23
ATOM     23  C   UNL     1       0.597  12.888  18.709  0.00  0.00    +0.000 C 
ATOM     24  C   UNL     1       1.890  13.518  18.175  0.00  0.00    +0.000 C 
BRANCH  23  25
ATOM     25  C   UNL     1       0.117  13.753  19.897  0.00  0.00    +0.000 A 
ATOM     26  N   UNL     1       0.646  13.528  21.124  0.00  0.00    +0.000 NA
ATOM     27  C   UNL     1       0.301  14.386  22.104  0.00  0.00    +0.000 A 
ATOM     28  C   UNL     1      -0.527  15.465  21.917  0.00  0.00    +0.000 A 
ATOM     29  C   UNL     1      -1.007  15.625  20.642  0.00  0.00    +0.000 A 
ATOM     30  N   UNL     1      -0.697  14.803  19.624  0.00  0.00    +0.000 NA
ENDBRANCH  23  25
BRANCH  23  31
ATOM     31  O   UNL     1      -0.367  12.901  17.641  0.00  0.00    +0.000 OA
ATOM     32  H   UNL     1      -1.023  13.578  17.866  0.00  0.00    +0.000 HD
ENDBRANCH  23  31
ENDBRANCH  22  23
ENDBRANCH   8  21
TORSDOF 5
ENDMDL
MODEL 9
REMARK VINA RESULT:      -7.6      2.056      2.993
REMARK  Name = 
REMARK  7 active torsions:
REMARK  status: ('A' for Active; 'I' for Inactive)
REMARK    1  A    between atoms: C_1  and  C_2
REMARK    2  A    between atoms: C_8  and  C_9
REMARK    3  A    between atoms: C_10  and  C_11
REMARK    4  A    between atoms: C_11  and  C_12
REMARK    5  A    between atoms: C_11  and  O_13
REMARK    6  A    between atoms: C_11  and  C_14
REMARK    7  A    between atoms: C_24  and  C_25
REMARK                            x       y       z     vdW  Elec       q    Type
REMARK                         _______ _______ _______ _____ _____    ______ ____
ROOT
ATOM      1  C   UNL     1       2.595   2.066  17.961  0.00  0.00    +0.000 C 
ATOM      2  C   UNL     1       2.513   3.481  18.540  0.00  0.00    +0.000 C 
ATOM      3  C   UNL     1       2.813   3.450  20.042  0.00  0.00    +0.000 C 
ATOM      4  O   UNL     1       2.348   4.551  20.816  0.00  0.00    +0.000 OA
ATOM      5  C   UNL     1       2.164   5.817  20.348  0.00  0.00    +0.000 A 
ATOM      6  C   UNL     1       1.313   6.536  21.204  0.00  0.00    +0.000 A 
ATOM      7  C   UNL     1       0.939   7.849  20.929  0.00  0.00    +0.000 A 
ATOM      8  C   UNL     1       1.434   8.481  19.795  0.00  0.00    +0.000 A 
ATOM      9  C   UNL     1       2.318   7.794  18.953  0.00  0.00    +0.000 A 
ATOM     10  C   UNL     1       2.693   6.454  19.207  0.00  0.00    +0.000 A 
ATOM     11  C   UNL     1       3.576   5.804  18.240  0.00  0.00    +0.000 A 
ATOM     12  N   UNL     1       4.553   6.503  17.530  0.00  0.00    +0.000 NA
ATOM     13  C   UNL     1       5.186   5.668  16.720  0.00  0.00    +0.000 A 
ATOM     14  S   UNL     1       4.630   4.054  16.736  0.00  0.00    +0.000 S 
ATOM     15  C   UNL     1       3.465   4.463  17.920  0.00  0.00    +0.000 A 
ENDROOT
BRANCH  13  16
ATOM     16  C   UNL     1       6.297   6.041  15.850  0.00  0.00    +0.000 C 
ATOM     17  N   UNL     1       7.365   6.625  16.481  0.00  0.00    +0.000 N 
ATOM     18  O   UNL     1       6.350   5.873  14.632  0.00  0.00    +0.000 OA
ATOM     19  H   UNL     1       7.365   6.736  17.487  0.00  0.00    +0.000 HD
ATOM     20  H   UNL     1       8.175   6.868  15.930  0.00  0.00    +0.000 HD
ENDBRANCH  13  16
BRANCH   8  21
ATOM     21  C   UNL     1       1.007   9.817  19.509  0.00  0.00    +0.000 C 
ATOM     22  C   UNL     1       0.605  10.935  19.320  0.00  0.00    +0.000 C 
BRANCH  22  23
ATOM     23  C   UNL     1       0.122  12.318  19.089  0.00  0.00    +0.000 C 
ATOM     24  C   UNL     1      -0.921  12.312  17.964  0.00  0.00    +0.000 C 
BRANCH  23  25
ATOM     25  C   UNL     1       1.234  13.313  18.685  0.00  0.00    +0.000 A 
ATOM     26  N   UNL     1       1.004  14.641  18.827  0.00  0.00    +0.000 NA
ATOM     27  C   UNL     1       2.040  15.469  18.590  0.00  0.00    +0.000 A 
ATOM     28  C   UNL     1       3.296  15.038  18.237  0.00  0.00    +0.000 A 
ATOM     29  C   UNL     1       3.443  13.678  18.129  0.00  0.00    +0.000 A 
ATOM     30  N   UNL     1       2.447  12.804  18.355  0.00  0.00    +0.000 NA
ENDBRANCH  23  25
BRANCH  23  31
ATOM     31  O   UNL     1      -0.539  12.745  20.293  0.00  0.00    +0.000 OA
ATOM     32  H   UNL     1       0.055  12.530  21.028  0.00  0.00    +0.000 HD
ENDBRANCH  23  31
ENDBRANCH  22  23
ENDBRANCH   8  21
TORSDOF 5
ENDMDL
