MODEL 1
REMARK VINA RESULT:      -8.5      0.000      0.000
REMARK  Name = 
REMARK  8 active torsions:
REMARK  status: ('A' for Active; 'I' for Inactive)
REMARK    1  A    between atoms: C_1  and  C_2
REMARK    2  A    between atoms: C_5  and  N_6
REMARK    3  A    between atoms: N_9  and  C_10
REMARK    4  A    between atoms: C_10  and  C_11
REMARK    5  A    between atoms: C_11  and  C_12
REMARK    6  A    between atoms: C_12  and  O_13
REMARK    7  A    between atoms: O_13  and  C_14
REMARK    8  A    between atoms: C_28  and  C_29
REMARK                            x       y       z     vdW  Elec       q    Type
REMARK                         _______ _______ _______ _____ _____    ______ ____
ROOT
ATOM      1  C   UNL     1       8.050   7.517  18.200  0.00  0.00    +0.000 C 
ENDROOT
BRANCH   1   5
ATOM      2  N   UNL     1       5.088   5.517  18.561  0.00  0.00    +0.000 N 
ATOM      3  C   UNL     1       6.362   5.110  19.178  0.00  0.00    +0.000 C 
ATOM      4  C   UNL     1       7.497   5.115  18.127  0.00  0.00    +0.000 C 
ATOM      5  N   UNL     1       7.637   6.378  17.359  0.00  0.00    +0.000 NA
ATOM      6  C   UNL     1       6.321   6.650  16.724  0.00  0.00    +0.000 C 
ATOM      7  C   UNL     1       5.136   6.718  17.715  0.00  0.00    +0.000 C 
BRANCH   2  12
ATOM      8  C   UNL     1       0.489   2.096  18.732  0.00  0.00    +0.000 C 
ATOM      9  C   UNL     1       1.698   2.984  18.720  0.00  0.00    +0.000 A 
ATOM     10  C   UNL     1       2.410   3.164  17.530  0.00  0.00    +0.000 A 
ATOM     11  C   UNL     1       3.532   3.997  17.489  0.00  0.00    +0.000 A 
ATOM     12  C   UNL     1       3.984   4.689  18.620  0.00  0.00    +0.000 A 
ATOM     13  C   UNL     1       3.261   4.490  19.805  0.00  0.00    +0.000 A 
ATOM     14  C   UNL     1       2.135   3.650  19.876  0.00  0.00    +0.000 A 
ATOM     15  C   UNL     1       1.427   3.493  21.193  0.00  0.00    +0.000 C 
ENDBRANCH   2  12
ENDBRANCH   1   5
BRANCH   1  16
ATOM     16  C   UNL     1       8.204   8.831  17.436  0.00  0.00    +0.000 C 
BRANCH  16  17
ATOM     17  C   UNL     1       8.271  10.029  18.371  0.00  0.00    +0.000 C 
BRANCH  17  18
ATOM     18  O   UNL     1       9.647  10.261  18.671  0.00  0.00    +0.000 OA
BRANCH  18  19
ATOM     19  C   UNL     1      10.134  11.496  18.347  0.00  0.00    +0.000 A 
ATOM     20  C   UNL     1      11.452  11.785  17.975  0.00  0.00    +0.000 A 
ATOM     21  C   UNL     1      11.814  13.091  17.636  0.00  0.00    +0.000 A 
ATOM     22  C   UNL     1      10.854  14.103  17.669  0.00  0.00    +0.000 A 
ATOM     23  C   UNL     1      11.202  15.481  17.288  0.00  0.00    +0.000 A 
ATOM     24  O   UNL     1      12.333  15.802  16.945  0.00  0.00    +0.000 OA
ATOM     25  C   UNL     1      10.109  16.463  17.329  0.00  0.00    +0.000 A 
ATOM     26  C   UNL     1       8.899  16.056  17.724  0.00  0.00    +0.000 A 
ATOM     27  O   UNL     1       8.561  14.780  18.106  0.00  0.00    +0.000 OA
ATOM     28  C   UNL     1       9.545  13.823  18.056  0.00  0.00    +0.000 A 
ATOM     29  C   UNL     1       9.186  12.522  18.400  0.00  0.00    +0.000 A 
ENDBRANCH  18  19
ENDBRANCH  17  18
ENDBRANCH  16  17
ENDBRANCH   1  16
TORSDOF 6
ENDMDL
MODEL 2
REMARK VINA RESULT:      -8.0      1.567      1.616
REMARK  Name = 
REMARK  8 active torsions:
REMARK  status: ('A' for Active; 'I' for Inactive)
REMARK    1  A    between atoms: C_1  and  C_2
REMARK    2  A    between atoms: C_5  and  N_6
REMARK    3  A    between atoms: N_9  and  C_10
REMARK    4  A    between atoms: C_10  and  C_11
REMARK    5  A    between atoms: C_11  and  C_12
REMARK    6  A    between atoms: C_12  and  O_13
REMARK    7  A    between atoms: O_13  and  C_14
REMARK    8  A    between atoms: C_28  and  C_29
REMARK                            x       y       z     vdW  Elec       q    Type
REMARK                         _______ _______ _______ _____ _____    ______ ____
ROOT
ATOM      1  C   UNL     1       7.951   7.473  18.255  0.00  0.00    +0.000 C 
ENDROOT
BRANCH   1   5
ATOM      2  N   UNL     1       4.995   5.463  18.604  0.00  0.00    +0.000 N 
ATOM      3  C   UNL     1       6.258   5.079  19.256  0.00  0.00    +0.000 C 
ATOM      4  C   UNL     1       7.414   5.066  18.228  0.00  0.00    +0.000 C 
ATOM      5  N   UNL     1       7.562   6.313  17.434  0.00  0.00    +0.000 NA
ATOM      6  C   UNL     1       6.257   6.561  16.766  0.00  0.00    +0.000 C 
ATOM      7  C   UNL     1       5.052   6.645  17.732  0.00  0.00    +0.000 C 
BRANCH   2  12
ATOM      8  C   UNL     1       0.404   2.030  18.771  0.00  0.00    +0.000 C 
ATOM      9  C   UNL     1       1.615   2.916  18.758  0.00  0.00    +0.000 A 
ATOM     10  C   UNL     1       2.191   3.278  17.536  0.00  0.00    +0.000 A 
ATOM     11  C   UNL     1       3.311   4.114  17.496  0.00  0.00    +0.000 A 
ATOM     12  C   UNL     1       3.894   4.629  18.660  0.00  0.00    +0.000 A 
ATOM     13  C   UNL     1       3.305   4.249  19.875  0.00  0.00    +0.000 A 
ATOM     14  C   UNL     1       2.185   3.402  19.945  0.00  0.00    +0.000 A 
ATOM     15  C   UNL     1       1.627   3.043  21.294  0.00  0.00    +0.000 C 
ENDBRANCH   2  12
ENDBRANCH   1   5
BRANCH   1  16
ATOM     16  C   UNL     1       8.419   8.680  17.445  0.00  0.00    +0.000 C 
BRANCH  16  17
ATOM     17  C   UNL     1       8.254   9.982  18.214  0.00  0.00    +0.000 C 
BRANCH  17  18
ATOM     18  O   UNL     1       9.355  10.091  19.115  0.00  0.00    +0.000 OA
BRANCH  18  19
ATOM     19  C   UNL     1       9.976  11.308  19.162  0.00  0.00    +0.000 A 
ATOM     20  C   UNL     1      10.796  11.848  18.166  0.00  0.00    +0.000 A 
ATOM     21  C   UNL     1      11.346  13.122  18.325  0.00  0.00    +0.000 A 
ATOM     22  C   UNL     1      11.071  13.852  19.482  0.00  0.00    +0.000 A 
ATOM     23  C   UNL     1      11.614  15.208  19.662  0.00  0.00    +0.000 A 
ATOM     24  O   UNL     1      12.332  15.744  18.827  0.00  0.00    +0.000 OA
ATOM     25  C   UNL     1      11.238  15.899  20.904  0.00  0.00    +0.000 A 
ATOM     26  C   UNL     1      10.463  15.258  21.783  0.00  0.00    +0.000 A 
ATOM     27  O   UNL     1       9.967  13.984  21.643  0.00  0.00    +0.000 OA
ATOM     28  C   UNL     1      10.269  13.310  20.485  0.00  0.00    +0.000 A 
ATOM     29  C   UNL     1       9.727  12.037  20.328  0.00  0.00    +0.000 A 
ENDBRANCH  18  19
ENDBRANCH  17  18
ENDBRANCH  16  17
ENDBRANCH   1  16
TORSDOF 6
ENDMDL
MODEL 3
REMARK VINA RESULT:      -7.7      7.123     10.578
REMARK  Name = 
REMARK  8 active torsions:
REMARK  status: ('A' for Active; 'I' for Inactive)
REMARK    1  A    between atoms: C_1  and  C_2
REMARK    2  A    between atoms: C_5  and  N_6
REMARK    3  A    between atoms: N_9  and  C_10
REMARK    4  A    between atoms: C_10  and  C_11
REMARK    5  A    between atoms: C_11  and  C_12
REMARK    6  A    between atoms: C_12  and  O_13
REMARK    7  A    between atoms: O_13  and  C_14
REMARK    8  A    between atoms: C_28  and  C_29
REMARK                            x       y       z     vdW  Elec       q    Type
REMARK                         _______ _______ _______ _____ _____    ______ ____
ROOT
ATOM      1  C   UNL     1       1.536   8.234  20.848  0.00  0.00    +0.000 C 
ENDROOT
BRANCH   1   5
ATOM      2  N   UNL     1      -0.270  10.993  22.272  0.00  0.00    +0.000 N 
ATOM      3  C   UNL     1      -0.302   9.659  22.895  0.00  0.00    +0.000 C 
ATOM      4  C   UNL     1      -0.689   8.584  21.852  0.00  0.00    +0.000 C 
ATOM      5  N   UNL     1       0.125   8.592  20.611  0.00  0.00    +0.000 NA
ATOM      6  C   UNL     1       0.025   9.957  20.032  0.00  0.00    +0.000 C 
ATOM      7  C   UNL     1       0.449  11.090  20.994  0.00  0.00    +0.000 C 
BRANCH   2  12
ATOM      8  C   UNL     1      -3.447  15.288  24.356  0.00  0.00    +0.000 C 
ATOM      9  C   UNL     1      -2.645  14.147  23.804  0.00  0.00    +0.000 A 
ATOM     10  C   UNL     1      -1.401  14.399  23.217  0.00  0.00    +0.000 A 
ATOM     11  C   UNL     1      -0.627  13.351  22.708  0.00  0.00    +0.000 A 
ATOM     12  C   UNL     1      -1.051  12.018  22.770  0.00  0.00    +0.000 A 
ATOM     13  C   UNL     1      -2.304  11.787  23.356  0.00  0.00    +0.000 A 
ATOM     14  C   UNL     1      -3.107  12.823  23.867  0.00  0.00    +0.000 A 
ATOM     15  C   UNL     1      -4.440  12.480  24.471  0.00  0.00    +0.000 C 
ENDBRANCH   2  12
ENDBRANCH   1   5
BRANCH   1  16
ATOM     16  C   UNL     1       2.026   7.050  20.018  0.00  0.00    +0.000 C 
BRANCH  16  17
ATOM     17  C   UNL     1       2.124   5.776  20.844  0.00  0.00    +0.000 C 
BRANCH  17  18
ATOM     18  O   UNL     1       1.940   4.674  19.956  0.00  0.00    +0.000 OA
BRANCH  18  19
ATOM     19  C   UNL     1       2.907   4.498  19.006  0.00  0.00    +0.000 A 
ATOM     20  C   UNL     1       2.690   4.109  17.679  0.00  0.00    +0.000 A 
ATOM     21  C   UNL     1       3.767   3.997  16.797  0.00  0.00    +0.000 A 
ATOM     22  C   UNL     1       5.058   4.275  17.246  0.00  0.00    +0.000 A 
ATOM     23  C   UNL     1       6.207   4.193  16.330  0.00  0.00    +0.000 A 
ATOM     24  O   UNL     1       6.088   3.867  15.155  0.00  0.00    +0.000 OA
ATOM     25  C   UNL     1       7.519   4.538  16.899  0.00  0.00    +0.000 A 
ATOM     26  C   UNL     1       7.586   4.874  18.190  0.00  0.00    +0.000 A 
ATOM     27  O   UNL     1       6.529   4.933  19.066  0.00  0.00    +0.000 OA
ATOM     28  C   UNL     1       5.280   4.646  18.571  0.00  0.00    +0.000 A 
ATOM     29  C   UNL     1       4.207   4.752  19.452  0.00  0.00    +0.000 A 
ENDBRANCH  18  19
ENDBRANCH  17  18
ENDBRANCH  16  17
ENDBRANCH   1  16
TORSDOF 6
ENDMDL
MODEL 4
REMARK VINA RESULT:      -7.6      6.435      8.682
REMARK  Name = 
REMARK  8 active torsions:
REMARK  status: ('A' for Active; 'I' for Inactive)
REMARK    1  A    between atoms: C_1  and  C_2
REMARK    2  A    between atoms: C_5  and  N_6
REMARK    3  A    between atoms: N_9  and  C_10
REMARK    4  A    between atoms: C_10  and  C_11
REMARK    5  A    between atoms: C_11  and  C_12
REMARK    6  A    between atoms: C_12  and  O_13
REMARK    7  A    between atoms: O_13  and  C_14
REMARK    8  A    between atoms: C_28  and  C_29
REMARK                            x       y       z     vdW  Elec       q    Type
REMARK                         _______ _______ _______ _____ _____    ______ ____
ROOT
ATOM      1  C   UNL     1       1.928   3.150  19.806  0.00  0.00    +0.000 C 
ENDROOT
BRANCH   1   5
ATOM      2  N   UNL     1       4.210   4.116  17.206  0.00  0.00    +0.000 N 
ATOM      3  C   UNL     1       2.962   3.398  16.896  0.00  0.00    +0.000 C 
ATOM      4  C   UNL     1       2.844   2.121  17.761  0.00  0.00    +0.000 C 
ATOM      5  N   UNL     1       3.008   2.335  19.222  0.00  0.00    +0.000 NA
ATOM      6  C   UNL     1       4.324   2.994  19.421  0.00  0.00    +0.000 C 
ATOM      7  C   UNL     1       4.503   4.312  18.633  0.00  0.00    +0.000 C 
BRANCH   2  12
ATOM      8  C   UNL     1       8.026   5.324  13.100  0.00  0.00    +0.000 C 
ATOM      9  C   UNL     1       7.024   4.977  14.161  0.00  0.00    +0.000 A 
ATOM     10  C   UNL     1       7.110   5.585  15.417  0.00  0.00    +0.000 A 
ATOM     11  C   UNL     1       6.180   5.289  16.418  0.00  0.00    +0.000 A 
ATOM     12  C   UNL     1       5.128   4.390  16.210  0.00  0.00    +0.000 A 
ATOM     13  C   UNL     1       5.062   3.785  14.946  0.00  0.00    +0.000 A 
ATOM     14  C   UNL     1       5.990   4.057  13.925  0.00  0.00    +0.000 A 
ATOM     15  C   UNL     1       5.844   3.355  12.604  0.00  0.00    +0.000 C 
ENDBRANCH   2  12
ENDBRANCH   1   5
BRANCH   1  16
ATOM     16  C   UNL     1       2.174   3.563  21.256  0.00  0.00    +0.000 C 
BRANCH  16  17
ATOM     17  C   UNL     1       2.273   5.073  21.410  0.00  0.00    +0.000 C 
BRANCH  17  18
ATOM     18  O   UNL     1       1.948   5.655  20.149  0.00  0.00    +0.000 OA
BRANCH  18  19
ATOM     19  C   UNL     1       1.663   6.992  20.158  0.00  0.00    +0.000 A 
ATOM     20  C   UNL     1       1.983   7.904  19.147  0.00  0.00    +0.000 A 
ATOM     21  C   UNL     1       1.605   9.243  19.265  0.00  0.00    +0.000 A 
ATOM     22  C   UNL     1       0.906   9.664  20.397  0.00  0.00    +0.000 A 
ATOM     23  C   UNL     1       0.469  11.063  20.534  0.00  0.00    +0.000 A 
ATOM     24  O   UNL     1       0.709  11.912  19.684  0.00  0.00    +0.000 OA
ATOM     25  C   UNL     1      -0.287  11.393  21.751  0.00  0.00    +0.000 A 
ATOM     26  C   UNL     1      -0.505  10.427  22.648  0.00  0.00    +0.000 A 
ATOM     27  O   UNL     1      -0.085   9.123  22.549  0.00  0.00    +0.000 OA
ATOM     28  C   UNL     1       0.600   8.763  21.415  0.00  0.00    +0.000 A 
ATOM     29  C   UNL     1       0.984   7.429  21.298  0.00  0.00    +0.000 A 
ENDBRANCH  18  19
ENDBRANCH  17  18
ENDBRANCH  16  17
ENDBRANCH   1  16
TORSDOF 6
ENDMDL
MODEL 5
REMARK VINA RESULT:      -7.6      1.595      1.833
REMARK  Name = 
REMARK  8 active torsions:
REMARK  status: ('A' for Active; 'I' for Inactive)
REMARK    1  A    between atoms: C_1  and  C_2
REMARK    2  A    between atoms: C_5  and  N_6
REMARK    3  A    between atoms: N_9  and  C_10
REMARK    4  A    between atoms: C_10  and  C_11
REMARK    5  A    between atoms: C_11  and  C_12
REMARK    6  A    between atoms: C_12  and  O_13
REMARK    7  A    between atoms: O_13  and  C_14
REMARK    8  A    between atoms: C_28  and  C_29
REMARK                            x       y       z     vdW  Elec       q    Type
REMARK                         _______ _______ _______ _____ _____    ______ ____
ROOT
ATOM      1  C   UNL     1       8.125   7.664  18.449  0.00  0.00    +0.000 C 
ENDROOT
BRANCH   1   5
ATOM      2  N   UNL     1       5.151   5.668  18.721  0.00  0.00    +0.000 N 
ATOM      3  C   UNL     1       6.440   5.187  19.243  0.00  0.00    +0.000 C 
ATOM      4  C   UNL     1       7.536   5.288  18.155  0.00  0.00    +0.000 C 
ATOM      5  N   UNL     1       7.664   6.621  17.514  0.00  0.00    +0.000 NA
ATOM      6  C   UNL     1       6.329   6.969  16.961  0.00  0.00    +0.000 C 
ATOM      7  C   UNL     1       5.184   6.949  18.000  0.00  0.00    +0.000 C 
BRANCH   2  12
ATOM      8  C   UNL     1       0.501   2.312  18.737  0.00  0.00    +0.000 C 
ATOM      9  C   UNL     1       1.730   3.172  18.759  0.00  0.00    +0.000 A 
ATOM     10  C   UNL     1       2.173   3.772  17.576  0.00  0.00    +0.000 A 
ATOM     11  C   UNL     1       3.307   4.590  17.573  0.00  0.00    +0.000 A 
ATOM     12  C   UNL     1       4.038   4.849  18.738  0.00  0.00    +0.000 A 
ATOM     13  C   UNL     1       3.582   4.232  19.912  0.00  0.00    +0.000 A 
ATOM     14  C   UNL     1       2.450   3.398  19.942  0.00  0.00    +0.000 A 
ATOM     15  C   UNL     1       2.041   2.775  21.247  0.00  0.00    +0.000 C 
ENDBRANCH   2  12
ENDBRANCH   1   5
BRANCH   1  16
ATOM     16  C   UNL     1       8.190   9.062  17.838  0.00  0.00    +0.000 C 
BRANCH  16  17
ATOM     17  C   UNL     1       9.078   9.996  18.646  0.00  0.00    +0.000 C 
BRANCH  17  18
ATOM     18  O   UNL     1       8.996  11.289  18.049  0.00  0.00    +0.000 OA
BRANCH  18  19
ATOM     19  C   UNL     1       9.294  12.348  18.861  0.00  0.00    +0.000 A 
ATOM     20  C   UNL     1       9.990  12.280  20.073  0.00  0.00    +0.000 A 
ATOM     21  C   UNL     1      10.259  13.446  20.793  0.00  0.00    +0.000 A 
ATOM     22  C   UNL     1       9.829  14.677  20.296  0.00  0.00    +0.000 A 
ATOM     23  C   UNL     1      10.125  15.924  21.020  0.00  0.00    +0.000 A 
ATOM     24  O   UNL     1      10.736  15.938  22.082  0.00  0.00    +0.000 OA
ATOM     25  C   UNL     1       9.653  17.168  20.394  0.00  0.00    +0.000 A 
ATOM     26  C   UNL     1       8.980  17.087  19.242  0.00  0.00    +0.000 A 
ATOM     27  O   UNL     1       8.675  15.932  18.564  0.00  0.00    +0.000 OA
ATOM     28  C   UNL     1       9.120  14.747  19.099  0.00  0.00    +0.000 A 
ATOM     29  C   UNL     1       8.847  13.584  18.385  0.00  0.00    +0.000 A 
ENDBRANCH  18  19
ENDBRANCH  17  18
ENDBRANCH  16  17
ENDBRANCH   1  16
TORSDOF 6
ENDMDL
MODEL 6
REMARK VINA RESULT:      -7.6      6.348      8.349
REMARK  Name = 
REMARK  8 active torsions:
REMARK  status: ('A' for Active; 'I' for Inactive)
REMARK    1  A    between atoms: C_1  and  C_2
REMARK    2  A    between atoms: C_5  and  N_6
REMARK    3  A    between atoms: N_9  and  C_10
REMARK    4  A    between atoms: C_10  and  C_11
REMARK    5  A    between atoms: C_11  and  C_12
REMARK    6  A    between atoms: C_12  and  O_13
REMARK    7  A    between atoms: O_13  and  C_14
REMARK    8  A    between atoms: C_28  and  C_29
REMARK                            x       y       z     vdW  Elec       q    Type
REMARK                         _______ _______ _______ _____ _____    ______ ____
ROOT
ATOM      1  C   UNL     1       2.392   3.546  19.994  0.00  0.00    +0.000 C 
ENDROOT
BRANCH   1   5
ATOM      2  N   UNL     1       4.426   4.209  17.109  0.00  0.00    +0.000 N 
ATOM      3  C   UNL     1       3.692   2.940  17.248  0.00  0.00    +0.000 C 
ATOM      4  C   UNL     1       4.000   2.284  18.615  0.00  0.00    +0.000 C 
ATOM      5  N   UNL     1       3.802   3.166  19.793  0.00  0.00    +0.000 NA
ATOM      6  C   UNL     1       4.642   4.373  19.580  0.00  0.00    +0.000 C 
ATOM      7  C   UNL     1       4.357   5.123  18.258  0.00  0.00    +0.000 C 
BRANCH   2  12
ATOM      8  C   UNL     1       8.010   5.109  12.724  0.00  0.00    +0.000 C 
ATOM      9  C   UNL     1       7.064   4.843  13.858  0.00  0.00    +0.000 A 
ATOM     10  C   UNL     1       7.312   5.413  15.110  0.00  0.00    +0.000 A 
ATOM     11  C   UNL     1       6.438   5.192  16.180  0.00  0.00    +0.000 A 
ATOM     12  C   UNL     1       5.286   4.409  16.046  0.00  0.00    +0.000 A 
ATOM     13  C   UNL     1       5.059   3.841  14.783  0.00  0.00    +0.000 A 
ATOM     14  C   UNL     1       5.926   4.039  13.694  0.00  0.00    +0.000 A 
ATOM     15  C   UNL     1       5.604   3.383  12.381  0.00  0.00    +0.000 C 
ENDBRANCH   2  12
ENDBRANCH   1   5
BRANCH   1  16
ATOM     16  C   UNL     1       2.180   4.597  21.082  0.00  0.00    +0.000 C 
BRANCH  16  17
ATOM     17  C   UNL     1       1.215   5.687  20.642  0.00  0.00    +0.000 C 
BRANCH  17  18
ATOM     18  O   UNL     1       1.994   6.795  20.194  0.00  0.00    +0.000 OA
BRANCH  18  19
ATOM     19  C   UNL     1       1.521   8.035  20.520  0.00  0.00    +0.000 A 
ATOM     20  C   UNL     1       1.119   8.448  21.795  0.00  0.00    +0.000 A 
ATOM     21  C   UNL     1       0.684   9.759  22.002  0.00  0.00    +0.000 A 
ATOM     22  C   UNL     1       0.654  10.653  20.930  0.00  0.00    +0.000 A 
ATOM     23  C   UNL     1       0.228  12.047  21.126  0.00  0.00    +0.000 A 
ATOM     24  O   UNL     1      -0.129  12.478  22.216  0.00  0.00    +0.000 OA
ATOM     25  C   UNL     1       0.263  12.912  19.937  0.00  0.00    +0.000 A 
ATOM     26  C   UNL     1       0.649  12.381  18.773  0.00  0.00    +0.000 A 
ATOM     27  O   UNL     1       1.027  11.076  18.566  0.00  0.00    +0.000 OA
ATOM     28  C   UNL     1       1.037  10.240  19.656  0.00  0.00    +0.000 A 
ATOM     29  C   UNL     1       1.465   8.931  19.449  0.00  0.00    +0.000 A 
ENDBRANCH  18  19
ENDBRANCH  17  18
ENDBRANCH  16  17
ENDBRANCH   1  16
TORSDOF 6
ENDMDL
MODEL 7
REMARK VINA RESULT:      -7.5      1.756      1.973
REMARK  Name = 
REMARK  8 active torsions:
REMARK  status: ('A' for Active; 'I' for Inactive)
REMARK    1  A    between atoms: C_1  and  C_2
REMARK    2  A    between atoms: C_5  and  N_6
REMARK    3  A    between atoms: N_9  and  C_10
REMARK    4  A    between atoms: C_10  and  C_11
REMARK    5  A    between atoms: C_11  and  C_12
REMARK    6  A    between atoms: C_12  and  O_13
REMARK    7  A    between atoms: O_13  and  C_14
REMARK    8  A    between atoms: C_28  and  C_29
REMARK                            x       y       z     vdW  Elec       q    Type
REMARK                         _______ _______ _______ _____ _____    ______ ____
ROOT
ATOM      1  C   UNL     1       7.667   8.135  17.338  0.00  0.00    +0.000 C 
ENDROOT
BRANCH   1   5
ATOM      2  N   UNL     1       4.906   5.913  17.924  0.00  0.00    +0.000 N 
ATOM      3  C   UNL     1       6.006   6.034  18.896  0.00  0.00    +0.000 C 
ATOM      4  C   UNL     1       7.371   5.841  18.194  0.00  0.00    +0.000 C 
ATOM      5  N   UNL     1       7.592   6.701  17.003  0.00  0.00    +0.000 NA
ATOM      6  C   UNL     1       6.469   6.443  16.065  0.00  0.00    +0.000 C 
ATOM      7  C   UNL     1       5.065   6.669  16.673  0.00  0.00    +0.000 C 
BRANCH   2  12
ATOM      8  C   UNL     1       0.705   2.095  18.738  0.00  0.00    +0.000 C 
ATOM      9  C   UNL     1       1.823   3.070  18.510  0.00  0.00    +0.000 A 
ATOM     10  C   UNL     1       1.532   4.428  18.351  0.00  0.00    +0.000 A 
ATOM     11  C   UNL     1       2.557   5.359  18.152  0.00  0.00    +0.000 A 
ATOM     12  C   UNL     1       3.904   4.981  18.111  0.00  0.00    +0.000 A 
ATOM     13  C   UNL     1       4.175   3.613  18.266  0.00  0.00    +0.000 A 
ATOM     14  C   UNL     1       3.163   2.655  18.458  0.00  0.00    +0.000 A 
ATOM     15  C   UNL     1       3.549   1.210  18.606  0.00  0.00    +0.000 C 
ENDBRANCH   2  12
ENDBRANCH   1   5
BRANCH   1  16
ATOM     16  C   UNL     1       8.616   8.456  18.490  0.00  0.00    +0.000 C 
BRANCH  16  17
ATOM     17  C   UNL     1       8.690   9.950  18.768  0.00  0.00    +0.000 C 
BRANCH  17  18
ATOM     18  O   UNL     1       9.860  10.449  18.121  0.00  0.00    +0.000 OA
BRANCH  18  19
ATOM     19  C   UNL     1      10.179  11.753  18.376  0.00  0.00    +0.000 A 
ATOM     20  C   UNL     1      10.561  12.704  17.424  0.00  0.00    +0.000 A 
ATOM     21  C   UNL     1      10.831  14.018  17.814  0.00  0.00    +0.000 A 
ATOM     22  C   UNL     1      10.716  14.375  19.158  0.00  0.00    +0.000 A 
ATOM     23  C   UNL     1      10.966  15.759  19.592  0.00  0.00    +0.000 A 
ATOM     24  O   UNL     1      11.295  16.643  18.810  0.00  0.00    +0.000 OA
ATOM     25  C   UNL     1      10.787  16.034  21.025  0.00  0.00    +0.000 A 
ATOM     26  C   UNL     1      10.439  15.026  21.830  0.00  0.00    +0.000 A 
ATOM     27  O   UNL     1      10.225  13.724  21.447  0.00  0.00    +0.000 OA
ATOM     28  C   UNL     1      10.353  13.427  20.112  0.00  0.00    +0.000 A 
ATOM     29  C   UNL     1      10.091  12.116  19.723  0.00  0.00    +0.000 A 
ENDBRANCH  18  19
ENDBRANCH  17  18
ENDBRANCH  16  17
ENDBRANCH   1  16
TORSDOF 6
ENDMDL
MODEL 8
REMARK VINA RESULT:      -7.5      4.964      7.831
REMARK  Name = 
REMARK  8 active torsions:
REMARK  status: ('A' for Active; 'I' for Inactive)
REMARK    1  A    between atoms: C_1  and  C_2
REMARK    2  A    between atoms: C_5  and  N_6
REMARK    3  A    between atoms: N_9  and  C_10
REMARK    4  A    between atoms: C_10  and  C_11
REMARK    5  A    between atoms: C_11  and  C_12
REMARK    6  A    between atoms: C_12  and  O_13
REMARK    7  A    between atoms: O_13  and  C_14
REMARK    8  A    between atoms: C_28  and  C_29
REMARK                            x       y       z     vdW  Elec       q    Type
REMARK                         _______ _______ _______ _____ _____    ______ ____
ROOT
ATOM      1  C   UNL     1       2.392   1.978  19.651  0.00  0.00    +0.000 C 
ENDROOT
BRANCH   1   5
ATOM      2  N   UNL     1       2.148   5.546  19.318  0.00  0.00    +0.000 N 
ATOM      3  C   UNL     1       2.468   4.922  20.612  0.00  0.00    +0.000 C 
ATOM      4  C   UNL     1       1.427   3.832  20.960  0.00  0.00    +0.000 C 
ATOM      5  N   UNL     1       1.205   2.816  19.900  0.00  0.00    +0.000 NA
ATOM      6  C   UNL     1       0.818   3.549  18.667  0.00  0.00    +0.000 C 
ATOM      7  C   UNL     1       1.836   4.622  18.217  0.00  0.00    +0.000 C 
BRANCH   2  12
ATOM      8  C   UNL     1       1.403  11.215  18.882  0.00  0.00    +0.000 C 
ATOM      9  C   UNL     1       1.574   9.731  19.019  0.00  0.00    +0.000 A 
ATOM     10  C   UNL     1       2.012   8.982  17.923  0.00  0.00    +0.000 A 
ATOM     11  C   UNL     1       2.192   7.600  18.029  0.00  0.00    +0.000 A 
ATOM     12  C   UNL     1       1.955   6.911  19.225  0.00  0.00    +0.000 A 
ATOM     13  C   UNL     1       1.509   7.679  20.311  0.00  0.00    +0.000 A 
ATOM     14  C   UNL     1       1.310   9.068  20.228  0.00  0.00    +0.000 A 
ATOM     15  C   UNL     1       0.824   9.806  21.444  0.00  0.00    +0.000 C 
ENDBRANCH   2  12
ENDBRANCH   1   5
BRANCH   1  16
ATOM     16  C   UNL     1       2.645   1.680  18.175  0.00  0.00    +0.000 C 
BRANCH  16  17
ATOM     17  C   UNL     1       4.105   1.879  17.795  0.00  0.00    +0.000 C 
BRANCH  17  18
ATOM     18  O   UNL     1       4.138   2.748  16.665  0.00  0.00    +0.000 OA
BRANCH  18  19
ATOM     19  C   UNL     1       4.926   3.859  16.783  0.00  0.00    +0.000 A 
ATOM     20  C   UNL     1       4.940   4.950  15.905  0.00  0.00    +0.000 A 
ATOM     21  C   UNL     1       5.773   6.042  16.159  0.00  0.00    +0.000 A 
ATOM     22  C   UNL     1       6.588   6.039  17.292  0.00  0.00    +0.000 A 
ATOM     23  C   UNL     1       7.452   7.190  17.598  0.00  0.00    +0.000 A 
ATOM     24  O   UNL     1       7.508   8.180  16.878  0.00  0.00    +0.000 OA
ATOM     25  C   UNL     1       8.247   7.097  18.832  0.00  0.00    +0.000 A 
ATOM     26  C   UNL     1       8.153   5.986  19.569  0.00  0.00    +0.000 A 
ATOM     27  O   UNL     1       7.370   4.893  19.287  0.00  0.00    +0.000 OA
ATOM     28  C   UNL     1       6.589   4.948  18.158  0.00  0.00    +0.000 A 
ATOM     29  C   UNL     1       5.764   3.857  17.901  0.00  0.00    +0.000 A 
ENDBRANCH  18  19
ENDBRANCH  17  18
ENDBRANCH  16  17
ENDBRANCH   1  16
TORSDOF 6
ENDMDL
MODEL 9
REMARK VINA RESULT:      -7.5      5.345      9.357
REMARK  Name = 
REMARK  8 active torsions:
REMARK  status: ('A' for Active; 'I' for Inactive)
REMARK    1  A    between atoms: C_1  and  C_2
REMARK    2  A    between atoms: C_5  and  N_6
REMARK    3  A    between atoms: N_9  and  C_10
REMARK    4  A    between atoms: C_10  and  C_11
REMARK    5  A    between atoms: C_11  and  C_12
REMARK    6  A    between atoms: C_12  and  O_13
REMARK    7  A    between atoms: O_13  and  C_14
REMARK    8  A    between atoms: C_28  and  C_29
REMARK                            x       y       z     vdW  Elec       q    Type
REMARK                         _______ _______ _______ _____ _____    ______ ____
ROOT
ATOM      1  C   UNL     1       1.030   6.224  20.222  0.00  0.00    +0.000 C 
ENDROOT
BRANCH   1   5
ATOM      2  N   UNL     1       0.449   9.716  19.612  0.00  0.00    +0.000 N 
ATOM      3  C   UNL     1       1.005   8.843  18.565  0.00  0.00    +0.000 C 
ATOM      4  C   UNL     1       2.230   8.066  19.104  0.00  0.00    +0.000 C 
ATOM      5  N   UNL     1       1.998   7.327  20.371  0.00  0.00    +0.000 NA
ATOM      6  C   UNL     1       1.512   8.315  21.369  0.00  0.00    +0.000 C 
ATOM      7  C   UNL     1       0.252   9.097  20.931  0.00  0.00    +0.000 C 
BRANCH   2  12
ATOM      8  C   UNL     1      -0.117  15.347  18.686  0.00  0.00    +0.000 C 
ATOM      9  C   UNL     1       0.059  13.880  18.947  0.00  0.00    +0.000 A 
ATOM     10  C   UNL     1      -1.063  13.046  18.978  0.00  0.00    +0.000 A 
ATOM     11  C   UNL     1      -0.924  11.673  19.205  0.00  0.00    +0.000 A 
ATOM     12  C   UNL     1       0.327  11.076  19.400  0.00  0.00    +0.000 A 
ATOM     13  C   UNL     1       1.439  11.931  19.371  0.00  0.00    +0.000 A 
ATOM     14  C   UNL     1       1.327  13.316  19.155  0.00  0.00    +0.000 A 
ATOM     15  C   UNL     1       2.575  14.154  19.148  0.00  0.00    +0.000 C 
ENDBRANCH   2  12
ENDBRANCH   1   5
BRANCH   1  16
ATOM     16  C   UNL     1       1.557   4.867  20.683  0.00  0.00    +0.000 C 
BRANCH  16  17
ATOM     17  C   UNL     1       1.218   3.759  19.698  0.00  0.00    +0.000 C 
BRANCH  17  18
ATOM     18  O   UNL     1       2.445   3.149  19.300  0.00  0.00    +0.000 OA
BRANCH  18  19
ATOM     19  C   UNL     1       3.380   3.981  18.750  0.00  0.00    +0.000 A 
ATOM     20  C   UNL     1       3.218   4.739  17.585  0.00  0.00    +0.000 A 
ATOM     21  C   UNL     1       4.245   5.577  17.145  0.00  0.00    +0.000 A 
ATOM     22  C   UNL     1       5.431   5.655  17.875  0.00  0.00    +0.000 A 
ATOM     23  C   UNL     1       6.518   6.552  17.451  0.00  0.00    +0.000 A 
ATOM     24  O   UNL     1       6.439   7.249  16.447  0.00  0.00    +0.000 OA
ATOM     25  C   UNL     1       7.711   6.580  18.309  0.00  0.00    +0.000 A 
ATOM     26  C   UNL     1       7.744   5.787  19.384  0.00  0.00    +0.000 A 
ATOM     27  O   UNL     1       6.750   4.926  19.782  0.00  0.00    +0.000 OA
ATOM     28  C   UNL     1       5.604   4.888  19.026  0.00  0.00    +0.000 A 
ATOM     29  C   UNL     1       4.582   4.047  19.460  0.00  0.00    +0.000 A 
ENDBRANCH  18  19
ENDBRANCH  17  18
ENDBRANCH  16  17
ENDBRANCH   1  16
TORSDOF 6
ENDMDL
