MODEL 1
REMARK VINA RESULT:      -6.1      0.000      0.000
REMARK  Name = 
REMARK  4 active torsions:
REMARK  status: ('A' for Active; 'I' for Inactive)
REMARK    1  A    between atoms: C_1  and  N_2
REMARK    2  A    between atoms: C_4  and  C_5
REMARK    3  A    between atoms: C_5  and  C_6
REMARK    4  A    between atoms: C_6  and  N_7
REMARK                            x       y       z     vdW  Elec       q    Type
REMARK                         _______ _______ _______ _____ _____    ______ ____
ROOT
ATOM      1  C   UNL     1       2.592   2.681  21.508  0.00  0.00    +0.000 C 
ATOM      2  N   UNL     1       2.372   3.229  20.176  0.00  0.00    +0.000 N 
ATOM      3  C   UNL     1       1.122   3.932  19.889  0.00  0.00    +0.000 C 
ATOM      4  C   UNL     1       1.321   5.383  19.424  0.00  0.00    +0.000 C 
ATOM      5  O   UNL     1       1.910   5.388  18.109  0.00  0.00    +0.000 OA
ATOM      6  C   UNL     1       3.272   5.276  18.118  0.00  0.00    +0.000 A 
ATOM      7  N   UNL     1       3.891   6.392  17.670  0.00  0.00    +0.000 NA
ATOM      8  C   UNL     1       5.228   6.469  17.840  0.00  0.00    +0.000 A 
ATOM      9  C   UNL     1       5.989   5.447  18.379  0.00  0.00    +0.000 A 
ATOM     10 BR   UNL     1       7.835   5.664  18.661  0.00  0.00    +0.000 Br
ATOM     11  C   UNL     1       5.348   4.269  18.747  0.00  0.00    +0.000 A 
ATOM     12  C   UNL     1       3.952   4.173  18.616  0.00  0.00    +0.000 A 
ATOM     13  C   UNL     1       3.275   2.970  19.148  0.00  0.00    +0.000 C 
ATOM     14  S   UNL     1       3.699   1.411  18.672  0.00  0.00    +0.000 S 
ENDROOT
BRANCH   4  15
ATOM     15  C   UNL     1       1.996   6.280  20.490  0.00  0.00    +0.000 C 
BRANCH  15  16
ATOM     16  C   UNL     1       1.708   7.773  20.293  0.00  0.00    +0.000 C 
BRANCH  16  17
ATOM     17  N   UNL     1       0.704   8.226  21.265  0.00  0.00    +0.000 NA
ATOM     18  C   UNL     1       1.342   9.106  22.285  0.00  0.00    +0.000 C 
ATOM     19  C   UNL     1       0.077   9.982  22.203  0.00  0.00    +0.000 C 
ATOM     20  C   UNL     1      -0.040   9.416  20.775  0.00  0.00    +0.000 C 
ENDBRANCH  16  17
ENDBRANCH  15  16
ENDBRANCH   4  15
TORSDOF 3
ENDMDL
MODEL 2
REMARK VINA RESULT:      -5.7      3.426      5.079
REMARK  Name = 
REMARK  4 active torsions:
REMARK  status: ('A' for Active; 'I' for Inactive)
REMARK    1  A    between atoms: C_1  and  N_2
REMARK    2  A    between atoms: C_4  and  C_5
REMARK    3  A    between atoms: C_5  and  C_6
REMARK    4  A    between atoms: C_6  and  N_7
REMARK                            x       y       z     vdW  Elec       q    Type
REMARK                         _______ _______ _______ _____ _____    ______ ____
ROOT
ATOM      1  C   UNL     1       1.757   5.576  17.996  0.00  0.00    +0.000 C 
ATOM      2  N   UNL     1       3.107   5.875  18.458  0.00  0.00    +0.000 N 
ATOM      3  C   UNL     1       3.512   5.458  19.800  0.00  0.00    +0.000 C 
ATOM      4  C   UNL     1       4.731   4.521  19.815  0.00  0.00    +0.000 C 
ATOM      5  O   UNL     1       5.905   5.258  19.424  0.00  0.00    +0.000 OA
ATOM      6  C   UNL     1       6.073   5.344  18.071  0.00  0.00    +0.000 A 
ATOM      7  N   UNL     1       7.165   4.674  17.637  0.00  0.00    +0.000 NA
ATOM      8  C   UNL     1       7.303   4.513  16.304  0.00  0.00    +0.000 A 
ATOM      9  C   UNL     1       6.431   5.052  15.376  0.00  0.00    +0.000 A 
ATOM     10 BR   UNL     1       6.644   4.713  13.538  0.00  0.00    +0.000 Br
ATOM     11  C   UNL     1       5.366   5.818  15.836  0.00  0.00    +0.000 A 
ATOM     12  C   UNL     1       5.175   5.973  17.220  0.00  0.00    +0.000 A 
ATOM     13  C   UNL     1       3.957   6.667  17.691  0.00  0.00    +0.000 C 
ATOM     14  S   UNL     1       3.552   8.223  17.187  0.00  0.00    +0.000 S 
ENDROOT
BRANCH   4  15
ATOM     15  C   UNL     1       4.479   3.179  19.087  0.00  0.00    +0.000 C 
BRANCH  15  16
ATOM     16  C   UNL     1       3.954   2.077  20.016  0.00  0.00    +0.000 C 
BRANCH  16  17
ATOM     17  N   UNL     1       2.660   1.581  19.529  0.00  0.00    +0.000 NA
ATOM     18  C   UNL     1       1.553   2.410  20.085  0.00  0.00    +0.000 C 
ATOM     19  C   UNL     1       0.889   2.309  18.699  0.00  0.00    +0.000 C 
ATOM     20  C   UNL     1       2.331   2.129  18.186  0.00  0.00    +0.000 C 
ENDBRANCH  16  17
ENDBRANCH  15  16
ENDBRANCH   4  15
TORSDOF 3
ENDMDL
MODEL 3
REMARK VINA RESULT:      -5.7      3.465      6.222
REMARK  Name = 
REMARK  4 active torsions:
REMARK  status: ('A' for Active; 'I' for Inactive)
REMARK    1  A    between atoms: C_1  and  N_2
REMARK    2  A    between atoms: C_4  and  C_5
REMARK    3  A    between atoms: C_5  and  C_6
REMARK    4  A    between atoms: C_6  and  N_7
REMARK                            x       y       z     vdW  Elec       q    Type
REMARK                         _______ _______ _______ _____ _____    ______ ____
ROOT
ATOM      1  C   UNL     1       1.652   2.363  18.387  0.00  0.00    +0.000 C 
ATOM      2  N   UNL     1       2.862   3.063  18.799  0.00  0.00    +0.000 N 
ATOM      3  C   UNL     1       4.166   2.510  18.438  0.00  0.00    +0.000 C 
ATOM      4  C   UNL     1       5.033   3.464  17.600  0.00  0.00    +0.000 C 
ATOM      5  O   UNL     1       5.456   4.570  18.421  0.00  0.00    +0.000 OA
ATOM      6  C   UNL     1       4.537   5.579  18.497  0.00  0.00    +0.000 A 
ATOM      7  N   UNL     1       4.964   6.719  17.907  0.00  0.00    +0.000 NA
ATOM      8  C   UNL     1       4.057   7.704  17.735  0.00  0.00    +0.000 A 
ATOM      9  C   UNL     1       2.753   7.628  18.188  0.00  0.00    +0.000 A 
ATOM     10 BR   UNL     1       1.526   9.009  17.835  0.00  0.00    +0.000 Br
ATOM     11  C   UNL     1       2.357   6.486  18.875  0.00  0.00    +0.000 A 
ATOM     12  C   UNL     1       3.268   5.429  19.039  0.00  0.00    +0.000 A 
ATOM     13  C   UNL     1       2.785   4.168  19.642  0.00  0.00    +0.000 C 
ATOM     14  S   UNL     1       2.040   4.118  21.152  0.00  0.00    +0.000 S 
ENDROOT
BRANCH   4  15
ATOM     15  C   UNL     1       4.405   3.816  16.230  0.00  0.00    +0.000 C 
BRANCH  15  16
ATOM     16  C   UNL     1       5.338   4.636  15.331  0.00  0.00    +0.000 C 
BRANCH  16  17
ATOM     17  N   UNL     1       6.015   3.755  14.370  0.00  0.00    +0.000 NA
ATOM     18  C   UNL     1       5.211   3.651  13.119  0.00  0.00    +0.000 C 
ATOM     19  C   UNL     1       6.545   3.713  12.352  0.00  0.00    +0.000 C 
ATOM     20  C   UNL     1       7.048   4.484  13.588  0.00  0.00    +0.000 C 
ENDBRANCH  16  17
ENDBRANCH  15  16
ENDBRANCH   4  15
TORSDOF 3
ENDMDL
MODEL 4
REMARK VINA RESULT:      -5.4      1.460      1.713
REMARK  Name = 
REMARK  4 active torsions:
REMARK  status: ('A' for Active; 'I' for Inactive)
REMARK    1  A    between atoms: C_1  and  N_2
REMARK    2  A    between atoms: C_4  and  C_5
REMARK    3  A    between atoms: C_5  and  C_6
REMARK    4  A    between atoms: C_6  and  N_7
REMARK                            x       y       z     vdW  Elec       q    Type
REMARK                         _______ _______ _______ _____ _____    ______ ____
ROOT
ATOM      1  C   UNL     1       2.354   3.970  21.530  0.00  0.00    +0.000 C 
ATOM      2  N   UNL     1       2.571   3.845  20.094  0.00  0.00    +0.000 N 
ATOM      3  C   UNL     1       1.480   4.164  19.175  0.00  0.00    +0.000 C 
ATOM      4  C   UNL     1       1.820   5.280  18.174  0.00  0.00    +0.000 C 
ATOM      5  O   UNL     1       2.797   4.797  17.233  0.00  0.00    +0.000 OA
ATOM      6  C   UNL     1       4.085   4.897  17.679  0.00  0.00    +0.000 A 
ATOM      7  N   UNL     1       4.817   5.783  16.965  0.00  0.00    +0.000 NA
ATOM      8  C   UNL     1       6.030   6.118  17.453  0.00  0.00    +0.000 A 
ATOM      9  C   UNL     1       6.577   5.554  18.591  0.00  0.00    +0.000 A 
ATOM     10 BR   UNL     1       8.238   6.135  19.255  0.00  0.00    +0.000 Br
ATOM     11  C   UNL     1       5.850   4.576  19.260  0.00  0.00    +0.000 A 
ATOM     12  C   UNL     1       4.568   4.232  18.797  0.00  0.00    +0.000 A 
ATOM     13  C   UNL     1       3.754   3.297  19.604  0.00  0.00    +0.000 C 
ATOM     14  S   UNL     1       4.303   1.766  20.039  0.00  0.00    +0.000 S 
ENDROOT
BRANCH   4  15
ATOM     15  C   UNL     1       2.122   6.639  18.852  0.00  0.00    +0.000 C 
BRANCH  15  16
ATOM     16  C   UNL     1       1.992   7.832  17.898  0.00  0.00    +0.000 C 
BRANCH  16  17
ATOM     17  N   UNL     1       1.865   9.079  18.664  0.00  0.00    +0.000 NA
ATOM     18  C   UNL     1       0.625   9.802  18.261  0.00  0.00    +0.000 C 
ATOM     19  C   UNL     1       0.432  10.138  19.752  0.00  0.00    +0.000 C 
ATOM     20  C   UNL     1       1.239   8.846  19.993  0.00  0.00    +0.000 C 
ENDBRANCH  16  17
ENDBRANCH  15  16
ENDBRANCH   4  15
TORSDOF 3
ENDMDL
MODEL 5
REMARK VINA RESULT:      -5.3      3.015      5.655
REMARK  Name = 
REMARK  4 active torsions:
REMARK  status: ('A' for Active; 'I' for Inactive)
REMARK    1  A    between atoms: C_1  and  N_2
REMARK    2  A    between atoms: C_4  and  C_5
REMARK    3  A    between atoms: C_5  and  C_6
REMARK    4  A    between atoms: C_6  and  N_7
REMARK                            x       y       z     vdW  Elec       q    Type
REMARK                         _______ _______ _______ _____ _____    ______ ____
ROOT
ATOM      1  C   UNL     1       0.760   1.783  18.813  0.00  0.00    +0.000 C 
ATOM      2  N   UNL     1       2.069   2.243  19.260  0.00  0.00    +0.000 N 
ATOM      3  C   UNL     1       3.271   1.722  18.609  0.00  0.00    +0.000 C 
ATOM      4  C   UNL     1       4.152   2.810  17.974  0.00  0.00    +0.000 C 
ATOM      5  O   UNL     1       4.761   3.599  19.014  0.00  0.00    +0.000 OA
ATOM      6  C   UNL     1       3.964   4.609  19.475  0.00  0.00    +0.000 A 
ATOM      7  N   UNL     1       4.453   5.835  19.180  0.00  0.00    +0.000 NA
ATOM      8  C   UNL     1       3.642   6.892  19.395  0.00  0.00    +0.000 A 
ATOM      9  C   UNL     1       2.383   6.787  19.959  0.00  0.00    +0.000 A 
ATOM     10 BR   UNL     1       1.280   8.298  20.149  0.00  0.00    +0.000 Br
ATOM     11  C   UNL     1       1.935   5.528  20.343  0.00  0.00    +0.000 A 
ATOM     12  C   UNL     1       2.741   4.404  20.098  0.00  0.00    +0.000 A 
ATOM     13  C   UNL     1       2.186   3.062  20.380  0.00  0.00    +0.000 C 
ATOM     14  S   UNL     1       1.580   2.635  21.893  0.00  0.00    +0.000 S 
ENDROOT
BRANCH   4  15
ATOM     15  C   UNL     1       3.442   3.587  16.839  0.00  0.00    +0.000 C 
BRANCH  15  16
ATOM     16  C   UNL     1       4.333   4.652  16.188  0.00  0.00    +0.000 C 
BRANCH  16  17
ATOM     17  N   UNL     1       5.559   4.034  15.666  0.00  0.00    +0.000 NA
ATOM     18  C   UNL     1       5.664   4.270  14.198  0.00  0.00    +0.000 C 
ATOM     19  C   UNL     1       7.170   4.501  14.424  0.00  0.00    +0.000 C 
ATOM     20  C   UNL     1       6.740   4.919  15.844  0.00  0.00    +0.000 C 
ENDBRANCH  16  17
ENDBRANCH  15  16
ENDBRANCH   4  15
TORSDOF 3
ENDMDL
MODEL 6
REMARK VINA RESULT:      -5.3      0.995      1.408
REMARK  Name = 
REMARK  4 active torsions:
REMARK  status: ('A' for Active; 'I' for Inactive)
REMARK    1  A    between atoms: C_1  and  N_2
REMARK    2  A    between atoms: C_4  and  C_5
REMARK    3  A    between atoms: C_5  and  C_6
REMARK    4  A    between atoms: C_6  and  N_7
REMARK                            x       y       z     vdW  Elec       q    Type
REMARK                         _______ _______ _______ _____ _____    ______ ____
ROOT
ATOM      1  C   UNL     1       2.560   2.905  21.510  0.00  0.00    +0.000 C 
ATOM      2  N   UNL     1       2.355   3.411  20.159  0.00  0.00    +0.000 N 
ATOM      3  C   UNL     1       1.158   4.197  19.863  0.00  0.00    +0.000 C 
ATOM      4  C   UNL     1       1.458   5.608  19.332  0.00  0.00    +0.000 C 
ATOM      5  O   UNL     1       2.019   5.511  18.009  0.00  0.00    +0.000 OA
ATOM      6  C   UNL     1       3.368   5.294  17.999  0.00  0.00    +0.000 A 
ATOM      7  N   UNL     1       4.061   6.338  17.493  0.00  0.00    +0.000 NA
ATOM      8  C   UNL     1       5.403   6.318  17.636  0.00  0.00    +0.000 A 
ATOM      9  C   UNL     1       6.094   5.264  18.205  0.00  0.00    +0.000 A 
ATOM     10 BR   UNL     1       7.957   5.347  18.446  0.00  0.00    +0.000 Br
ATOM     11  C   UNL     1       5.372   4.156  18.636  0.00  0.00    +0.000 A 
ATOM     12  C   UNL     1       3.971   4.163  18.533  0.00  0.00    +0.000 A 
ATOM     13  C   UNL     1       3.214   3.040  19.128  0.00  0.00    +0.000 C 
ATOM     14  S   UNL     1       3.507   1.434  18.714  0.00  0.00    +0.000 S 
ENDROOT
BRANCH   4  15
ATOM     15  C   UNL     1       2.222   6.493  20.347  0.00  0.00    +0.000 C 
BRANCH  15  16
ATOM     16  C   UNL     1       1.522   7.828  20.630  0.00  0.00    +0.000 C 
BRANCH  16  17
ATOM     17  N   UNL     1       1.061   8.432  19.372  0.00  0.00    +0.000 NA
ATOM     18  C   UNL     1       0.581   9.822  19.618  0.00  0.00    +0.000 C 
ATOM     19  C   UNL     1       1.264  10.207  18.293  0.00  0.00    +0.000 C 
ATOM     20  C   UNL     1       2.189   9.012  18.595  0.00  0.00    +0.000 C 
ENDBRANCH  16  17
ENDBRANCH  15  16
ENDBRANCH   4  15
TORSDOF 3
ENDMDL
MODEL 7
REMARK VINA RESULT:      -5.2      8.932     10.648
REMARK  Name = 
REMARK  4 active torsions:
REMARK  status: ('A' for Active; 'I' for Inactive)
REMARK    1  A    between atoms: C_1  and  N_2
REMARK    2  A    between atoms: C_4  and  C_5
REMARK    3  A    between atoms: C_5  and  C_6
REMARK    4  A    between atoms: C_6  and  N_7
REMARK                            x       y       z     vdW  Elec       q    Type
REMARK                         _______ _______ _______ _____ _____    ______ ____
ROOT
ATOM      1  C   UNL     1       9.147  15.876  17.557  0.00  0.00    +0.000 C 
ATOM      2  N   UNL     1      10.044  15.152  18.448  0.00  0.00    +0.000 N 
ATOM      3  C   UNL     1      10.379  15.729  19.749  0.00  0.00    +0.000 C 
ATOM      4  C   UNL     1      10.000  14.833  20.940  0.00  0.00    +0.000 C 
ATOM      5  O   UNL     1      10.858  13.676  20.959  0.00  0.00    +0.000 OA
ATOM      6  C   UNL     1      10.429  12.662  20.148  0.00  0.00    +0.000 A 
ATOM      7  N   UNL     1      10.050  11.565  20.841  0.00  0.00    +0.000 NA
ATOM      8  C   UNL     1       9.410  10.592  20.157  0.00  0.00    +0.000 A 
ATOM      9  C   UNL     1       9.192  10.636  18.792  0.00  0.00    +0.000 A 
ATOM     10 BR   UNL     1       8.219   9.281  17.925  0.00  0.00    +0.000 Br
ATOM     11  C   UNL     1       9.673  11.730  18.081  0.00  0.00    +0.000 A 
ATOM     12  C   UNL     1      10.311  12.775  18.770  0.00  0.00    +0.000 A 
ATOM     13  C   UNL     1      10.684  13.993  18.017  0.00  0.00    +0.000 C 
ATOM     14  S   UNL     1      11.658  13.942  16.644  0.00  0.00    +0.000 S 
ENDROOT
BRANCH   4  15
ATOM     15  C   UNL     1       8.479  14.572  21.049  0.00  0.00    +0.000 C 
BRANCH  15  16
ATOM     16  C   UNL     1       8.027  14.223  22.473  0.00  0.00    +0.000 C 
BRANCH  16  17
ATOM     17  N   UNL     1       7.282  12.956  22.469  0.00  0.00    +0.000 NA
ATOM     18  C   UNL     1       7.747  12.087  23.587  0.00  0.00    +0.000 C 
ATOM     19  C   UNL     1       6.270  11.703  23.795  0.00  0.00    +0.000 C 
ATOM     20  C   UNL     1       5.979  13.082  23.173  0.00  0.00    +0.000 C 
ENDBRANCH  16  17
ENDBRANCH  15  16
ENDBRANCH   4  15
TORSDOF 3
ENDMDL
MODEL 8
REMARK VINA RESULT:      -5.0      3.538      4.984
REMARK  Name = 
REMARK  4 active torsions:
REMARK  status: ('A' for Active; 'I' for Inactive)
REMARK    1  A    between atoms: C_1  and  N_2
REMARK    2  A    between atoms: C_4  and  C_5
REMARK    3  A    between atoms: C_5  and  C_6
REMARK    4  A    between atoms: C_6  and  N_7
REMARK                            x       y       z     vdW  Elec       q    Type
REMARK                         _______ _______ _______ _____ _____    ______ ____
ROOT
ATOM      1  C   UNL     1       2.046   5.468  18.092  0.00  0.00    +0.000 C 
ATOM      2  N   UNL     1       3.438   5.820  18.345  0.00  0.00    +0.000 N 
ATOM      3  C   UNL     1       4.022   5.532  19.654  0.00  0.00    +0.000 C 
ATOM      4  C   UNL     1       5.251   4.611  19.595  0.00  0.00    +0.000 C 
ATOM      5  O   UNL     1       6.349   5.318  18.988  0.00  0.00    +0.000 OA
ATOM      6  C   UNL     1       6.339   5.280  17.622  0.00  0.00    +0.000 A 
ATOM      7  N   UNL     1       7.379   4.582  17.111  0.00  0.00    +0.000 NA
ATOM      8  C   UNL     1       7.346   4.299  15.792  0.00  0.00    +0.000 A 
ATOM      9  C   UNL     1       6.350   4.743  14.941  0.00  0.00    +0.000 A 
ATOM     10 BR   UNL     1       6.330   4.236  13.130  0.00  0.00    +0.000 Br
ATOM     11  C   UNL     1       5.338   5.539  15.466  0.00  0.00    +0.000 A 
ATOM     12  C   UNL     1       5.326   5.820  16.843  0.00  0.00    +0.000 A 
ATOM     13  C   UNL     1       4.165   6.545  17.404  0.00  0.00    +0.000 C 
ATOM     14  S   UNL     1       3.667   8.043  16.819  0.00  0.00    +0.000 S 
ENDROOT
BRANCH   4  15
ATOM     15  C   UNL     1       4.934   3.205  19.030  0.00  0.00    +0.000 C 
BRANCH  15  16
ATOM     16  C   UNL     1       4.118   2.337  19.996  0.00  0.00    +0.000 C 
BRANCH  16  17
ATOM     17  N   UNL     1       2.901   3.049  20.408  0.00  0.00    +0.000 NA
ATOM     18  C   UNL     1       1.694   2.330  19.908  0.00  0.00    +0.000 C 
ATOM     19  C   UNL     1       1.039   2.653  21.264  0.00  0.00    +0.000 C 
ATOM     20  C   UNL     1       2.489   2.681  21.788  0.00  0.00    +0.000 C 
ENDBRANCH  16  17
ENDBRANCH  15  16
ENDBRANCH   4  15
TORSDOF 3
ENDMDL
MODEL 9
REMARK VINA RESULT:      -5.0      6.884      9.032
REMARK  Name = 
REMARK  4 active torsions:
REMARK  status: ('A' for Active; 'I' for Inactive)
REMARK    1  A    between atoms: C_1  and  N_2
REMARK    2  A    between atoms: C_4  and  C_5
REMARK    3  A    between atoms: C_5  and  C_6
REMARK    4  A    between atoms: C_6  and  N_7
REMARK                            x       y       z     vdW  Elec       q    Type
REMARK                         _______ _______ _______ _____ _____    ______ ____
ROOT
ATOM      1  C   UNL     1       2.441  12.201  18.171  0.00  0.00    +0.000 C 
ATOM      2  N   UNL     1       1.339  11.874  19.067  0.00  0.00    +0.000 N 
ATOM      3  C   UNL     1       1.065  12.743  20.210  0.00  0.00    +0.000 C 
ATOM      4  C   UNL     1      -0.353  13.336  20.213  0.00  0.00    +0.000 C 
ATOM      5  O   UNL     1      -1.308  12.288  20.468  0.00  0.00    +0.000 OA
ATOM      6  C   UNL     1      -1.673  11.593  19.350  0.00  0.00    +0.000 A 
ATOM      7  N   UNL     1      -2.971  11.780  19.018  0.00  0.00    +0.000 NA
ATOM      8  C   UNL     1      -3.376  11.318  17.817  0.00  0.00    +0.000 A 
ATOM      9  C   UNL     1      -2.557  10.612  16.955  0.00  0.00    +0.000 A 
ATOM     10 BR   UNL     1      -3.171  10.074  15.261  0.00  0.00    +0.000 Br
ATOM     11  C   UNL     1      -1.251  10.347  17.353  0.00  0.00    +0.000 A 
ATOM     12  C   UNL     1      -0.789  10.847  18.582  0.00  0.00    +0.000 A 
ATOM     13  C   UNL     1       0.641  10.679  18.920  0.00  0.00    +0.000 C 
ATOM     14  S   UNL     1       1.392   9.171  18.943  0.00  0.00    +0.000 S 
ENDROOT
BRANCH   4  15
ATOM     15  C   UNL     1      -0.636  14.250  18.996  0.00  0.00    +0.000 C 
BRANCH  15  16
ATOM     16  C   UNL     1       0.270  15.487  18.949  0.00  0.00    +0.000 C 
BRANCH  16  17
ATOM     17  N   UNL     1      -0.384  16.561  18.188  0.00  0.00    +0.000 NA
ATOM     18  C   UNL     1      -1.307  17.326  19.074  0.00  0.00    +0.000 C 
ATOM     19  C   UNL     1      -0.812  18.597  18.358  0.00  0.00    +0.000 C 
ATOM     20  C   UNL     1       0.469  17.776  18.109  0.00  0.00    +0.000 C 
ENDBRANCH  16  17
ENDBRANCH  15  16
ENDBRANCH   4  15
TORSDOF 3
ENDMDL
