MODEL 1
REMARK VINA RESULT:      -5.7      0.000      0.000
REMARK  Name = 
REMARK  5 active torsions:
REMARK  status: ('A' for Active; 'I' for Inactive)
REMARK    1  A    between atoms: C_1  and  N_2
REMARK    2  A    between atoms: N_5  and  C_6
REMARK    3  A    between atoms: C_11  and  C_12
REMARK    4  A    between atoms: C_12  and  C_13
REMARK    5  A    between atoms: C_13  and  O_14
REMARK                            x       y       z     vdW  Elec       q    Type
REMARK                         _______ _______ _______ _____ _____    ______ ____
ROOT
ATOM      1  C   UNL     1       6.107   4.470  16.127  0.00  0.00    +0.000 C 
ATOM      2  N   UNL     1       5.623   5.252  17.266  0.00  0.00    +0.000 NA
ATOM      3  C   UNL     1       5.400   4.385  18.428  0.00  0.00    +0.000 C 
ATOM      4  C   UNL     1       4.601   5.046  19.580  0.00  0.00    +0.000 C 
ATOM      5  N   UNL     1       3.380   5.802  19.214  0.00  0.00    +0.000 NA
ATOM      6  C   UNL     1       3.696   6.703  18.082  0.00  0.00    +0.000 C 
ATOM      7  C   UNL     1       4.403   5.990  16.892  0.00  0.00    +0.000 C 
ENDROOT
BRANCH   5   8
ATOM      8  C   UNL     1       2.131   5.026  19.160  0.00  0.00    +0.000 C 
ATOM      9  C   UNL     1       2.057   3.795  18.257  0.00  0.00    +0.000 C 
ATOM     10  C   UNL     1       1.036   2.860  18.883  0.00  0.00    +0.000 C 
ATOM     11  C   UNL     1       0.888   3.260  20.342  0.00  0.00    +0.000 C 
ATOM     12  C   UNL     1       1.685   4.540  20.548  0.00  0.00    +0.000 C 
ENDBRANCH   5   8
BRANCH   6  13
ATOM     13  C   UNL     1       2.529   7.547  17.530  0.00  0.00    +0.000 C 
BRANCH  13  14
ATOM     14  C   UNL     1       2.278   8.841  18.293  0.00  0.00    +0.000 C 
BRANCH  14  15
ATOM     15  O   UNL     1       1.868   9.854  17.376  0.00  0.00    +0.000 OA
ATOM     16  H   UNL     1       2.179  10.706  17.722  0.00  0.00    +0.000 HD
ENDBRANCH  14  15
ENDBRANCH  13  14
ENDBRANCH   6  13
TORSDOF 4
ENDMDL
MODEL 2
REMARK VINA RESULT:      -5.6      1.629      4.301
REMARK  Name = 
REMARK  5 active torsions:
REMARK  status: ('A' for Active; 'I' for Inactive)
REMARK    1  A    between atoms: C_1  and  N_2
REMARK    2  A    between atoms: N_5  and  C_6
REMARK    3  A    between atoms: C_11  and  C_12
REMARK    4  A    between atoms: C_12  and  C_13
REMARK    5  A    between atoms: C_13  and  O_14
REMARK                            x       y       z     vdW  Elec       q    Type
REMARK                         _______ _______ _______ _____ _____    ______ ____
ROOT
ATOM      1  C   UNL     1       1.554   4.201  20.811  0.00  0.00    +0.000 C 
ATOM      2  N   UNL     1       1.945   4.570  19.450  0.00  0.00    +0.000 NA
ATOM      3  C   UNL     1       3.103   3.782  19.016  0.00  0.00    +0.000 C 
ATOM      4  C   UNL     1       3.788   4.301  17.726  0.00  0.00    +0.000 C 
ATOM      5  N   UNL     1       4.044   5.757  17.631  0.00  0.00    +0.000 NA
ATOM      6  C   UNL     1       2.815   6.486  18.017  0.00  0.00    +0.000 C 
ATOM      7  C   UNL     1       2.208   6.018  19.372  0.00  0.00    +0.000 C 
ENDROOT
BRANCH   5   8
ATOM      8  C   UNL     1       5.331   6.224  18.173  0.00  0.00    +0.000 C 
ATOM      9  C   UNL     1       6.277   5.213  18.820  0.00  0.00    +0.000 C 
ATOM     10  C   UNL     1       7.683   5.761  18.642  0.00  0.00    +0.000 C 
ATOM     11  C   UNL     1       7.636   6.771  17.506  0.00  0.00    +0.000 C 
ATOM     12  C   UNL     1       6.176   6.958  17.120  0.00  0.00    +0.000 C 
ENDBRANCH   5   8
BRANCH   6  13
ATOM     13  C   UNL     1       2.902   8.027  18.021  0.00  0.00    +0.000 C 
BRANCH  13  14
ATOM     14  C   UNL     1       1.576   8.728  17.757  0.00  0.00    +0.000 C 
BRANCH  14  15
ATOM     15  O   UNL     1       1.825  10.094  17.429  0.00  0.00    +0.000 OA
ATOM     16  H   UNL     1       1.170  10.633  17.901  0.00  0.00    +0.000 HD
ENDBRANCH  14  15
ENDBRANCH  13  14
ENDBRANCH   6  13
TORSDOF 4
ENDMDL
MODEL 3
REMARK VINA RESULT:      -5.6      1.930      4.378
REMARK  Name = 
REMARK  5 active torsions:
REMARK  status: ('A' for Active; 'I' for Inactive)
REMARK    1  A    between atoms: C_1  and  N_2
REMARK    2  A    between atoms: N_5  and  C_6
REMARK    3  A    between atoms: C_11  and  C_12
REMARK    4  A    between atoms: C_12  and  C_13
REMARK    5  A    between atoms: C_13  and  O_14
REMARK                            x       y       z     vdW  Elec       q    Type
REMARK                         _______ _______ _______ _____ _____    ______ ____
ROOT
ATOM      1  C   UNL     1       2.489   3.097  21.348  0.00  0.00    +0.000 C 
ATOM      2  N   UNL     1       2.673   3.456  19.941  0.00  0.00    +0.000 NA
ATOM      3  C   UNL     1       3.985   3.012  19.463  0.00  0.00    +0.000 C 
ATOM      4  C   UNL     1       4.408   3.606  18.095  0.00  0.00    +0.000 C 
ATOM      5  N   UNL     1       4.213   5.062  17.898  0.00  0.00    +0.000 NA
ATOM      6  C   UNL     1       2.847   5.426  18.337  0.00  0.00    +0.000 C 
ATOM      7  C   UNL     1       2.487   4.907  19.760  0.00  0.00    +0.000 C 
ENDROOT
BRANCH   5   8
ATOM      8  C   UNL     1       5.332   5.925  18.309  0.00  0.00    +0.000 C 
ATOM      9  C   UNL     1       6.520   5.306  19.042  0.00  0.00    +0.000 C 
ATOM     10  C   UNL     1       7.726   6.175  18.725  0.00  0.00    +0.000 C 
ATOM     11  C   UNL     1       7.398   6.961  17.465  0.00  0.00    +0.000 C 
ATOM     12  C   UNL     1       5.939   6.698  17.127  0.00  0.00    +0.000 C 
ENDBRANCH   5   8
BRANCH   6  13
ATOM     13  C   UNL     1       2.471   6.920  18.246  0.00  0.00    +0.000 C 
BRANCH  13  14
ATOM     14  C   UNL     1       2.133   7.561  19.586  0.00  0.00    +0.000 C 
BRANCH  14  15
ATOM     15  O   UNL     1       1.522   8.830  19.356  0.00  0.00    +0.000 OA
ATOM     16  H   UNL     1       1.960   9.232  18.589  0.00  0.00    +0.000 HD
ENDBRANCH  14  15
ENDBRANCH  13  14
ENDBRANCH   6  13
TORSDOF 4
ENDMDL
MODEL 4
REMARK VINA RESULT:      -5.6      2.680      3.812
REMARK  Name = 
REMARK  5 active torsions:
REMARK  status: ('A' for Active; 'I' for Inactive)
REMARK    1  A    between atoms: C_1  and  N_2
REMARK    2  A    between atoms: N_5  and  C_6
REMARK    3  A    between atoms: C_11  and  C_12
REMARK    4  A    between atoms: C_12  and  C_13
REMARK    5  A    between atoms: C_13  and  O_14
REMARK                            x       y       z     vdW  Elec       q    Type
REMARK                         _______ _______ _______ _____ _____    ______ ____
ROOT
ATOM      1  C   UNL     1       6.292   4.609  14.314  0.00  0.00    +0.000 C 
ATOM      2  N   UNL     1       6.244   4.124  15.694  0.00  0.00    +0.000 NA
ATOM      3  C   UNL     1       4.863   3.827  16.088  0.00  0.00    +0.000 C 
ATOM      4  C   UNL     1       4.660   3.607  17.608  0.00  0.00    +0.000 C 
ATOM      5  N   UNL     1       5.298   4.579  18.527  0.00  0.00    +0.000 NA
ATOM      6  C   UNL     1       6.705   4.778  18.112  0.00  0.00    +0.000 C 
ATOM      7  C   UNL     1       6.871   5.105  16.599  0.00  0.00    +0.000 C 
ENDROOT
BRANCH   5   8
ATOM      8  C   UNL     1       4.497   5.766  18.870  0.00  0.00    +0.000 C 
ATOM      9  C   UNL     1       3.835   6.567  17.750  0.00  0.00    +0.000 C 
ATOM     10  C   UNL     1       2.603   7.220  18.354  0.00  0.00    +0.000 C 
ATOM     11  C   UNL     1       2.251   6.445  19.614  0.00  0.00    +0.000 C 
ATOM     12  C   UNL     1       3.368   5.442  19.861  0.00  0.00    +0.000 C 
ENDBRANCH   5   8
BRANCH   6  13
ATOM     13  C   UNL     1       7.525   5.797  18.930  0.00  0.00    +0.000 C 
BRANCH  13  14
ATOM     14  C   UNL     1       7.847   7.084  18.183  0.00  0.00    +0.000 C 
BRANCH  14  15
ATOM     15  O   UNL     1       8.713   7.886  18.983  0.00  0.00    +0.000 OA
ATOM     16  H   UNL     1       8.220   8.148  19.778  0.00  0.00    +0.000 HD
ENDBRANCH  14  15
ENDBRANCH  13  14
ENDBRANCH   6  13
TORSDOF 4
ENDMDL
MODEL 5
REMARK VINA RESULT:      -5.6      2.994      4.038
REMARK  Name = 
REMARK  5 active torsions:
REMARK  status: ('A' for Active; 'I' for Inactive)
REMARK    1  A    between atoms: C_1  and  N_2
REMARK    2  A    between atoms: N_5  and  C_6
REMARK    3  A    between atoms: C_11  and  C_12
REMARK    4  A    between atoms: C_12  and  C_13
REMARK    5  A    between atoms: C_13  and  O_14
REMARK                            x       y       z     vdW  Elec       q    Type
REMARK                         _______ _______ _______ _____ _____    ______ ____
ROOT
ATOM      1  C   UNL     1       7.818   5.515  19.270  0.00  0.00    +0.000 C 
ATOM      2  N   UNL     1       6.748   5.803  18.314  0.00  0.00    +0.000 NA
ATOM      3  C   UNL     1       5.462   5.933  19.006  0.00  0.00    +0.000 C 
ATOM      4  C   UNL     1       4.225   5.929  18.072  0.00  0.00    +0.000 C 
ATOM      5  N   UNL     1       4.178   4.895  17.012  0.00  0.00    +0.000 NA
ATOM      6  C   UNL     1       5.483   4.866  16.313  0.00  0.00    +0.000 C 
ATOM      7  C   UNL     1       6.705   4.762  17.272  0.00  0.00    +0.000 C 
ENDROOT
BRANCH   5   8
ATOM      8  C   UNL     1       3.559   3.613  17.386  0.00  0.00    +0.000 C 
ATOM      9  C   UNL     1       4.027   2.901  18.654  0.00  0.00    +0.000 C 
ATOM     10  C   UNL     1       2.848   2.079  19.149  0.00  0.00    +0.000 C 
ATOM     11  C   UNL     1       1.593   2.664  18.522  0.00  0.00    +0.000 C 
ATOM     12  C   UNL     1       2.031   3.719  17.518  0.00  0.00    +0.000 C 
ENDBRANCH   5   8
BRANCH   6  13
ATOM     13  C   UNL     1       5.641   3.814  15.195  0.00  0.00    +0.000 C 
BRANCH  13  14
ATOM     14  C   UNL     1       6.500   4.272  14.024  0.00  0.00    +0.000 C 
BRANCH  14  15
ATOM     15  O   UNL     1       6.426   3.301  12.981  0.00  0.00    +0.000 OA
ATOM     16  H   UNL     1       7.315   3.212  12.600  0.00  0.00    +0.000 HD
ENDBRANCH  14  15
ENDBRANCH  13  14
ENDBRANCH   6  13
TORSDOF 4
ENDMDL
MODEL 6
REMARK VINA RESULT:      -5.6      1.821      4.207
REMARK  Name = 
REMARK  5 active torsions:
REMARK  status: ('A' for Active; 'I' for Inactive)
REMARK    1  A    between atoms: C_1  and  N_2
REMARK    2  A    between atoms: N_5  and  C_6
REMARK    3  A    between atoms: C_11  and  C_12
REMARK    4  A    between atoms: C_12  and  C_13
REMARK    5  A    between atoms: C_13  and  O_14
REMARK                            x       y       z     vdW  Elec       q    Type
REMARK                         _______ _______ _______ _____ _____    ______ ____
ROOT
ATOM      1  C   UNL     1       2.259   2.430  19.685  0.00  0.00    +0.000 C 
ATOM      2  N   UNL     1       2.475   3.376  18.589  0.00  0.00    +0.000 NA
ATOM      3  C   UNL     1       3.745   3.098  17.911  0.00  0.00    +0.000 C 
ATOM      4  C   UNL     1       4.219   4.215  16.948  0.00  0.00    +0.000 C 
ATOM      5  N   UNL     1       4.151   5.612  17.441  0.00  0.00    +0.000 NA
ATOM      6  C   UNL     1       2.821   5.841  18.049  0.00  0.00    +0.000 C 
ATOM      7  C   UNL     1       2.416   4.760  19.094  0.00  0.00    +0.000 C 
ENDROOT
BRANCH   5   8
ATOM      8  C   UNL     1       5.340   6.103  18.157  0.00  0.00    +0.000 C 
ATOM      9  C   UNL     1       6.311   5.094  18.769  0.00  0.00    +0.000 C 
ATOM     10  C   UNL     1       7.674   5.766  18.794  0.00  0.00    +0.000 C 
ATOM     11  C   UNL     1       7.638   6.904  17.787  0.00  0.00    +0.000 C 
ATOM     12  C   UNL     1       6.206   7.026  17.285  0.00  0.00    +0.000 C 
ENDBRANCH   5   8
BRANCH   6  13
ATOM     13  C   UNL     1       2.576   7.236  18.661  0.00  0.00    +0.000 C 
BRANCH  13  14
ATOM     14  C   UNL     1       2.328   8.333  17.634  0.00  0.00    +0.000 C 
BRANCH  14  15
ATOM     15  O   UNL     1       1.835   9.494  18.300  0.00  0.00    +0.000 OA
ATOM     16  H   UNL     1       1.171   9.904  17.721  0.00  0.00    +0.000 HD
ENDBRANCH  14  15
ENDBRANCH  13  14
ENDBRANCH   6  13
TORSDOF 4
ENDMDL
MODEL 7
REMARK VINA RESULT:      -5.5      0.956      1.043
REMARK  Name = 
REMARK  5 active torsions:
REMARK  status: ('A' for Active; 'I' for Inactive)
REMARK    1  A    between atoms: C_1  and  N_2
REMARK    2  A    between atoms: N_5  and  C_6
REMARK    3  A    between atoms: C_11  and  C_12
REMARK    4  A    between atoms: C_12  and  C_13
REMARK    5  A    between atoms: C_13  and  O_14
REMARK                            x       y       z     vdW  Elec       q    Type
REMARK                         _______ _______ _______ _____ _____    ______ ____
ROOT
ATOM      1  C   UNL     1       7.015   6.111  16.716  0.00  0.00    +0.000 C 
ATOM      2  N   UNL     1       6.059   6.344  17.799  0.00  0.00    +0.000 NA
ATOM      3  C   UNL     1       5.878   5.127  18.596  0.00  0.00    +0.000 C 
ATOM      4  C   UNL     1       4.670   5.166  19.566  0.00  0.00    +0.000 C 
ATOM      5  N   UNL     1       3.384   5.670  19.030  0.00  0.00    +0.000 NA
ATOM      6  C   UNL     1       3.632   6.933  18.297  0.00  0.00    +0.000 C 
ATOM      7  C   UNL     1       4.782   6.834  17.251  0.00  0.00    +0.000 C 
ENDROOT
BRANCH   5   8
ATOM      8  C   UNL     1       2.504   4.666  18.410  0.00  0.00    +0.000 C 
ATOM      9  C   UNL     1       3.125   3.428  17.764  0.00  0.00    +0.000 C 
ATOM     10  C   UNL     1       2.084   2.324  17.855  0.00  0.00    +0.000 C 
ATOM     11  C   UNL     1       1.103   2.715  18.947  0.00  0.00    +0.000 C 
ATOM     12  C   UNL     1       1.450   4.129  19.391  0.00  0.00    +0.000 C 
ENDBRANCH   5   8
BRANCH   6  13
ATOM     13  C   UNL     1       2.409   7.590  17.626  0.00  0.00    +0.000 C 
BRANCH  13  14
ATOM     14  C   UNL     1       1.916   8.851  18.324  0.00  0.00    +0.000 C 
BRANCH  14  15
ATOM     15  O   UNL     1       1.899   9.928  17.388  0.00  0.00    +0.000 OA
ATOM     16  H   UNL     1       2.821  10.182  17.217  0.00  0.00    +0.000 HD
ENDBRANCH  14  15
ENDBRANCH  13  14
ENDBRANCH   6  13
TORSDOF 4
ENDMDL
MODEL 8
REMARK VINA RESULT:      -5.5      2.142      4.344
REMARK  Name = 
REMARK  5 active torsions:
REMARK  status: ('A' for Active; 'I' for Inactive)
REMARK    1  A    between atoms: C_1  and  N_2
REMARK    2  A    between atoms: N_5  and  C_6
REMARK    3  A    between atoms: C_11  and  C_12
REMARK    4  A    between atoms: C_12  and  C_13
REMARK    5  A    between atoms: C_13  and  O_14
REMARK                            x       y       z     vdW  Elec       q    Type
REMARK                         _______ _______ _______ _____ _____    ______ ____
ROOT
ATOM      1  C   UNL     1       2.296   2.058  19.500  0.00  0.00    +0.000 C 
ATOM      2  N   UNL     1       2.484   3.068  18.457  0.00  0.00    +0.000 NA
ATOM      3  C   UNL     1       3.758   2.860  17.762  0.00  0.00    +0.000 C 
ATOM      4  C   UNL     1       4.200   4.041  16.861  0.00  0.00    +0.000 C 
ATOM      5  N   UNL     1       4.100   5.405  17.431  0.00  0.00    +0.000 NA
ATOM      6  C   UNL     1       2.766   5.567  18.054  0.00  0.00    +0.000 C 
ATOM      7  C   UNL     1       2.392   4.420  19.038  0.00  0.00    +0.000 C 
ENDROOT
BRANCH   5   8
ATOM      8  C   UNL     1       5.278   5.886  18.170  0.00  0.00    +0.000 C 
ATOM      9  C   UNL     1       6.281   4.870  18.715  0.00  0.00    +0.000 C 
ATOM     10  C   UNL     1       7.625   5.577  18.776  0.00  0.00    +0.000 C 
ATOM     11  C   UNL     1       7.550   6.772  17.839  0.00  0.00    +0.000 C 
ATOM     12  C   UNL     1       6.113   6.884  17.352  0.00  0.00    +0.000 C 
ENDBRANCH   5   8
BRANCH   6  13
ATOM     13  C   UNL     1       2.489   6.919  18.743  0.00  0.00    +0.000 C 
BRANCH  13  14
ATOM     14  C   UNL     1       1.901   6.798  20.142  0.00  0.00    +0.000 C 
BRANCH  14  15
ATOM     15  O   UNL     1       1.892   8.084  20.760  0.00  0.00    +0.000 OA
ATOM     16  H   UNL     1       0.967   8.371  20.827  0.00  0.00    +0.000 HD
ENDBRANCH  14  15
ENDBRANCH  13  14
ENDBRANCH   6  13
TORSDOF 4
ENDMDL
MODEL 9
REMARK VINA RESULT:      -5.4      1.083      1.143
REMARK  Name = 
REMARK  5 active torsions:
REMARK  status: ('A' for Active; 'I' for Inactive)
REMARK    1  A    between atoms: C_1  and  N_2
REMARK    2  A    between atoms: N_5  and  C_6
REMARK    3  A    between atoms: C_11  and  C_12
REMARK    4  A    between atoms: C_12  and  C_13
REMARK    5  A    between atoms: C_13  and  O_14
REMARK                            x       y       z     vdW  Elec       q    Type
REMARK                         _______ _______ _______ _____ _____    ______ ____
ROOT
ATOM      1  C   UNL     1       6.506   4.820  15.673  0.00  0.00    +0.000 C 
ATOM      2  N   UNL     1       6.079   5.535  16.876  0.00  0.00    +0.000 NA
ATOM      3  C   UNL     1       6.322   4.722  18.072  0.00  0.00    +0.000 C 
ATOM      4  C   UNL     1       5.631   5.245  19.357  0.00  0.00    +0.000 C 
ATOM      5  N   UNL     1       4.211   5.653  19.247  0.00  0.00    +0.000 NA
ATOM      6  C   UNL     1       4.053   6.524  18.061  0.00  0.00    +0.000 C 
ATOM      7  C   UNL     1       4.662   5.925  16.759  0.00  0.00    +0.000 C 
ENDROOT
BRANCH   5   8
ATOM      8  C   UNL     1       3.215   4.592  19.472  0.00  0.00    +0.000 C 
ATOM      9  C   UNL     1       3.692   3.180  19.807  0.00  0.00    +0.000 C 
ATOM     10  C   UNL     1       2.589   2.534  20.629  0.00  0.00    +0.000 C 
ATOM     11  C   UNL     1       1.732   3.653  21.198  0.00  0.00    +0.000 C 
ATOM     12  C   UNL     1       2.213   4.957  20.578  0.00  0.00    +0.000 C 
ENDBRANCH   5   8
BRANCH   6  13
ATOM     13  C   UNL     1       2.623   7.017  17.756  0.00  0.00    +0.000 C 
BRANCH  13  14
ATOM     14  C   UNL     1       2.261   8.335  18.427  0.00  0.00    +0.000 C 
BRANCH  14  15
ATOM     15  O   UNL     1       2.071   9.334  17.427  0.00  0.00    +0.000 OA
ATOM     16  H   UNL     1       1.831  10.160  17.878  0.00  0.00    +0.000 HD
ENDBRANCH  14  15
ENDBRANCH  13  14
ENDBRANCH   6  13
TORSDOF 4
ENDMDL
