MODEL 1
REMARK VINA RESULT:      -7.8      0.000      0.000
REMARK  Name = 
REMARK  4 active torsions:
REMARK  status: ('A' for Active; 'I' for Inactive)
REMARK    1  A    between atoms: O_1  and  C_2
REMARK    2  A    between atoms: C_2  and  C_3
REMARK    3  A    between atoms: C_3  and  C_4
REMARK    4  A    between atoms: C_3  and  C_13
REMARK                            x       y       z     vdW  Elec       q    Type
REMARK                         _______ _______ _______ _____ _____    ______ ____
ROOT
ATOM      1  C   UNL     1       0.468  10.393  19.414  0.00  0.00    +0.000 A 
ATOM      2  C   UNL     1      -0.109  10.461  20.733  0.00  0.00    +0.000 A 
ATOM      3  C   UNL     1      -0.944  11.501  21.246  0.00  0.00    +0.000 A 
ATOM      4  C   UNL     1      -1.389  11.519  22.571  0.00  0.00    +0.000 A 
ATOM      5  C   UNL     1      -1.033  10.489  23.422  0.00  0.00    +0.000 A 
ATOM      6  C   UNL     1      -0.256   9.442  22.931  0.00  0.00    +0.000 A 
ATOM      7  C   UNL     1       0.201   9.407  21.625  0.00  0.00    +0.000 A 
ATOM      8  N   UNL     1       0.949   8.355  21.282  0.00  0.00    +0.000 NA
ATOM      9  C   UNL     1       1.491   8.284  20.065  0.00  0.00    +0.000 A 
ATOM     10  C   UNL     1       2.227   7.139  19.778  0.00  0.00    +0.000 A 
ATOM     11  C   UNL     1       2.859   6.943  18.550  0.00  0.00    +0.000 A 
ATOM     12  C   UNL     1       2.778   7.930  17.591  0.00  0.00    +0.000 A 
ATOM     13  C   UNL     1       2.045   9.082  17.865  0.00  0.00    +0.000 A 
ATOM     14  C   UNL     1       1.340   9.287  19.092  0.00  0.00    +0.000 A 
ENDROOT
BRANCH   1  15
ATOM     15  C   UNL     1       0.199  11.529  18.398  0.00  0.00    +0.000 C 
BRANCH  15  16
ATOM     16  C   UNL     1       0.997  12.837  18.585  0.00  0.00    +0.000 A 
ATOM     17  C   UNL     1       2.392  12.839  18.311  0.00  0.00    +0.000 A 
ATOM     18  C   UNL     1       3.151  14.021  18.322  0.00  0.00    +0.000 A 
ATOM     19  C   UNL     1       2.491  15.204  18.565  0.00  0.00    +0.000 A 
ATOM     20  C   UNL     1       1.161  15.215  18.885  0.00  0.00    +0.000 A 
ATOM     21  C   UNL     1       0.420  14.057  18.966  0.00  0.00    +0.000 A 
ATOM     22  O   UNL     1       0.671  16.470  19.074  0.00  0.00    +0.000 OA
ATOM     23  C   UNL     1       1.839  17.255  18.768  0.00  0.00    +0.000 C 
ATOM     24  O   UNL     1       3.019  16.456  18.526  0.00  0.00    +0.000 OA
ENDBRANCH  15  16
BRANCH  15  25
ATOM     25  C   UNL     1      -1.336  11.720  18.219  0.00  0.00    +0.000 C 
BRANCH  25  26
ATOM     26  O   UNL     1      -1.682  12.233  16.934  0.00  0.00    +0.000 OA
ATOM     27  H   UNL     1      -2.231  13.022  17.096  0.00  0.00    +0.000 HD
ENDBRANCH  25  26
ENDBRANCH  15  25
ENDBRANCH   1  15
TORSDOF 4
ENDMDL
MODEL 2
REMARK VINA RESULT:      -7.8      0.188      3.575
REMARK  Name = 
REMARK  4 active torsions:
REMARK  status: ('A' for Active; 'I' for Inactive)
REMARK    1  A    between atoms: O_1  and  C_2
REMARK    2  A    between atoms: C_2  and  C_3
REMARK    3  A    between atoms: C_3  and  C_4
REMARK    4  A    between atoms: C_3  and  C_13
REMARK                            x       y       z     vdW  Elec       q    Type
REMARK                         _______ _______ _______ _____ _____    ______ ____
ROOT
ATOM      1  C   UNL     1       0.423  10.556  19.450  0.00  0.00    +0.000 A 
ATOM      2  C   UNL     1       1.256   9.428  19.114  0.00  0.00    +0.000 A 
ATOM      3  C   UNL     1       1.902   9.189  17.862  0.00  0.00    +0.000 A 
ATOM      4  C   UNL     1       2.625   8.021  17.604  0.00  0.00    +0.000 A 
ATOM      5  C   UNL     1       2.744   7.062  18.592  0.00  0.00    +0.000 A 
ATOM      6  C   UNL     1       2.159   7.294  19.835  0.00  0.00    +0.000 A 
ATOM      7  C   UNL     1       1.433   8.441  20.112  0.00  0.00    +0.000 A 
ATOM      8  N   UNL     1       0.911   8.536  21.337  0.00  0.00    +0.000 NA
ATOM      9  C   UNL     1       0.136   9.574  21.658  0.00  0.00    +0.000 A 
ATOM     10  C   UNL     1      -0.339   9.615  22.965  0.00  0.00    +0.000 A 
ATOM     11  C   UNL     1      -1.171  10.635  23.427  0.00  0.00    +0.000 A 
ATOM     12  C   UNL     1      -1.562  11.627  22.555  0.00  0.00    +0.000 A 
ATOM     13  C   UNL     1      -1.095  11.598  21.243  0.00  0.00    +0.000 A 
ATOM     14  C   UNL     1      -0.197  10.598  20.754  0.00  0.00    +0.000 A 
ENDROOT
BRANCH   1  15
ATOM     15  C   UNL     1       0.158  11.657  18.396  0.00  0.00    +0.000 C 
BRANCH  15  16
ATOM     16  C   UNL     1       0.927  12.985  18.563  0.00  0.00    +0.000 A 
ATOM     17  C   UNL     1       2.313  13.023  18.252  0.00  0.00    +0.000 A 
ATOM     18  C   UNL     1       3.041  14.225  18.245  0.00  0.00    +0.000 A 
ATOM     19  C   UNL     1       2.359  15.390  18.508  0.00  0.00    +0.000 A 
ATOM     20  C   UNL     1       1.038  15.366  18.864  0.00  0.00    +0.000 A 
ATOM     21  C   UNL     1       0.329  14.189  18.963  0.00  0.00    +0.000 A 
ATOM     22  O   UNL     1       0.521  16.607  19.069  0.00  0.00    +0.000 OA
ATOM     23  C   UNL     1       1.659  17.422  18.733  0.00  0.00    +0.000 C 
ATOM     24  O   UNL     1       2.853  16.655  18.457  0.00  0.00    +0.000 OA
ENDBRANCH  15  16
BRANCH  15  25
ATOM     25  C   UNL     1      -1.376  11.813  18.176  0.00  0.00    +0.000 C 
BRANCH  25  26
ATOM     26  O   UNL     1      -1.703  12.231  16.851  0.00  0.00    +0.000 OA
ATOM     27  H   UNL     1      -1.439  13.168  16.790  0.00  0.00    +0.000 HD
ENDBRANCH  25  26
ENDBRANCH  15  25
ENDBRANCH   1  15
TORSDOF 4
ENDMDL
MODEL 3
REMARK VINA RESULT:      -7.7      0.788      3.831
REMARK  Name = 
REMARK  4 active torsions:
REMARK  status: ('A' for Active; 'I' for Inactive)
REMARK    1  A    between atoms: O_1  and  C_2
REMARK    2  A    between atoms: C_2  and  C_3
REMARK    3  A    between atoms: C_3  and  C_4
REMARK    4  A    between atoms: C_3  and  C_13
REMARK                            x       y       z     vdW  Elec       q    Type
REMARK                         _______ _______ _______ _____ _____    ______ ____
ROOT
ATOM      1  C   UNL     1       0.159  10.767  19.414  0.00  0.00    +0.000 A 
ATOM      2  C   UNL     1       1.016   9.636  19.163  0.00  0.00    +0.000 A 
ATOM      3  C   UNL     1       1.681   9.326  17.937  0.00  0.00    +0.000 A 
ATOM      4  C   UNL     1       2.428   8.157  17.765  0.00  0.00    +0.000 A 
ATOM      5  C   UNL     1       2.554   7.269  18.818  0.00  0.00    +0.000 A 
ATOM      6  C   UNL     1       1.951   7.573  20.036  0.00  0.00    +0.000 A 
ATOM      7  C   UNL     1       1.201   8.722  20.227  0.00  0.00    +0.000 A 
ATOM      8  N   UNL     1       0.663   8.889  21.438  0.00  0.00    +0.000 NA
ATOM      9  C   UNL     1      -0.135   9.931  21.680  0.00  0.00    +0.000 A 
ATOM     10  C   UNL     1      -0.625  10.050  22.976  0.00  0.00    +0.000 A 
ATOM     11  C   UNL     1      -1.481  11.083  23.360  0.00  0.00    +0.000 A 
ATOM     12  C   UNL     1      -1.881  12.006  22.419  0.00  0.00    +0.000 A 
ATOM     13  C   UNL     1      -1.398  11.898  21.117  0.00  0.00    +0.000 A 
ATOM     14  C   UNL     1      -0.477  10.886  20.706  0.00  0.00    +0.000 A 
ENDROOT
BRANCH   1  15
ATOM     15  C   UNL     1      -0.115  11.790  18.285  0.00  0.00    +0.000 C 
BRANCH  15  16
ATOM     16  C   UNL     1       0.560  13.172  18.416  0.00  0.00    +0.000 A 
ATOM     17  C   UNL     1      -0.247  14.312  18.677  0.00  0.00    +0.000 A 
ATOM     18  C   UNL     1       0.310  15.573  18.949  0.00  0.00    +0.000 A 
ATOM     19  C   UNL     1       1.682  15.670  18.998  0.00  0.00    +0.000 A 
ATOM     20  C   UNL     1       2.474  14.597  18.695  0.00  0.00    +0.000 A 
ATOM     21  C   UNL     1       1.946  13.376  18.340  0.00  0.00    +0.000 A 
ATOM     22  O   UNL     1       3.802  14.867  18.815  0.00  0.00    +0.000 OA
ATOM     23  C   UNL     1       3.750  16.223  19.296  0.00  0.00    +0.000 C 
ATOM     24  O   UNL     1       2.410  16.766  19.336  0.00  0.00    +0.000 OA
ENDBRANCH  15  16
BRANCH  15  25
ATOM     25  C   UNL     1      -1.641  11.833  17.976  0.00  0.00    +0.000 C 
BRANCH  25  26
ATOM     26  O   UNL     1      -1.919  11.854  16.577  0.00  0.00    +0.000 OA
ATOM     27  H   UNL     1      -2.813  12.232  16.484  0.00  0.00    +0.000 HD
ENDBRANCH  25  26
ENDBRANCH  15  25
ENDBRANCH   1  15
TORSDOF 4
ENDMDL
MODEL 4
REMARK VINA RESULT:      -7.7      0.743      1.371
REMARK  Name = 
REMARK  4 active torsions:
REMARK  status: ('A' for Active; 'I' for Inactive)
REMARK    1  A    between atoms: O_1  and  C_2
REMARK    2  A    between atoms: C_2  and  C_3
REMARK    3  A    between atoms: C_3  and  C_4
REMARK    4  A    between atoms: C_3  and  C_13
REMARK                            x       y       z     vdW  Elec       q    Type
REMARK                         _______ _______ _______ _____ _____    ______ ____
ROOT
ATOM      1  C   UNL     1       0.214  10.613  19.367  0.00  0.00    +0.000 A 
ATOM      2  C   UNL     1      -0.373  10.735  20.677  0.00  0.00    +0.000 A 
ATOM      3  C   UNL     1      -1.241  11.777  21.129  0.00  0.00    +0.000 A 
ATOM      4  C   UNL     1      -1.695  11.853  22.449  0.00  0.00    +0.000 A 
ATOM      5  C   UNL     1      -1.316  10.881  23.356  0.00  0.00    +0.000 A 
ATOM      6  C   UNL     1      -0.507   9.832  22.926  0.00  0.00    +0.000 A 
ATOM      7  C   UNL     1      -0.040   9.739  21.626  0.00  0.00    +0.000 A 
ATOM      8  N   UNL     1       0.740   8.692  21.344  0.00  0.00    +0.000 NA
ATOM      9  C   UNL     1       1.292   8.571  20.136  0.00  0.00    +0.000 A 
ATOM     10  C   UNL     1       2.062   7.434  19.914  0.00  0.00    +0.000 A 
ATOM     11  C   UNL     1       2.707   7.191  18.702  0.00  0.00    +0.000 A 
ATOM     12  C   UNL     1       2.605   8.122  17.691  0.00  0.00    +0.000 A 
ATOM     13  C   UNL     1       1.838   9.266  17.899  0.00  0.00    +0.000 A 
ATOM     14  C   UNL     1       1.119   9.516  19.109  0.00  0.00    +0.000 A 
ENDROOT
BRANCH   1  15
ATOM     15  C   UNL     1      -0.080  11.684  18.290  0.00  0.00    +0.000 C 
BRANCH  15  16
ATOM     16  C   UNL     1       0.602  13.058  18.467  0.00  0.00    +0.000 A 
ATOM     17  C   UNL     1      -0.207  14.211  18.658  0.00  0.00    +0.000 A 
ATOM     18  C   UNL     1       0.345  15.465  18.966  0.00  0.00    +0.000 A 
ATOM     19  C   UNL     1       1.709  15.544  19.125  0.00  0.00    +0.000 A 
ATOM     20  C   UNL     1       2.508  14.459  18.891  0.00  0.00    +0.000 A 
ATOM     21  C   UNL     1       1.992  13.242  18.501  0.00  0.00    +0.000 A 
ATOM     22  O   UNL     1       3.825  14.711  19.115  0.00  0.00    +0.000 OA
ATOM     23  C   UNL     1       3.754  16.070  19.584  0.00  0.00    +0.000 C 
ATOM     24  O   UNL     1       2.424  16.632  19.513  0.00  0.00    +0.000 OA
ENDBRANCH  15  16
BRANCH  15  25
ATOM     25  C   UNL     1      -1.611  11.745  18.015  0.00  0.00    +0.000 C 
BRANCH  25  26
ATOM     26  O   UNL     1      -1.919  11.815  16.623  0.00  0.00    +0.000 OA
ATOM     27  H   UNL     1      -1.736  10.928  16.261  0.00  0.00    +0.000 HD
ENDBRANCH  25  26
ENDBRANCH  15  25
ENDBRANCH   1  15
TORSDOF 4
ENDMDL
MODEL 5
REMARK VINA RESULT:      -7.2      5.281      9.387
REMARK  Name = 
REMARK  4 active torsions:
REMARK  status: ('A' for Active; 'I' for Inactive)
REMARK    1  A    between atoms: O_1  and  C_2
REMARK    2  A    between atoms: C_2  and  C_3
REMARK    3  A    between atoms: C_3  and  C_4
REMARK    4  A    between atoms: C_3  and  C_13
REMARK                            x       y       z     vdW  Elec       q    Type
REMARK                         _______ _______ _______ _____ _____    ______ ____
ROOT
ATOM      1  C   UNL     1       4.998   4.336  16.679  0.00  0.00    +0.000 A 
ATOM      2  C   UNL     1       5.395   4.242  15.297  0.00  0.00    +0.000 A 
ATOM      3  C   UNL     1       4.596   3.766  14.212  0.00  0.00    +0.000 A 
ATOM      4  C   UNL     1       5.099   3.634  12.914  0.00  0.00    +0.000 A 
ATOM      5  C   UNL     1       6.408   3.992  12.652  0.00  0.00    +0.000 A 
ATOM      6  C   UNL     1       7.191   4.500  13.686  0.00  0.00    +0.000 A 
ATOM      7  C   UNL     1       6.717   4.633  14.980  0.00  0.00    +0.000 A 
ATOM      8  N   UNL     1       7.572   5.120  15.882  0.00  0.00    +0.000 NA
ATOM      9  C   UNL     1       7.217   5.208  17.165  0.00  0.00    +0.000 A 
ATOM     10  C   UNL     1       8.155   5.757  18.034  0.00  0.00    +0.000 A 
ATOM     11  C   UNL     1       7.918   5.894  19.402  0.00  0.00    +0.000 A 
ATOM     12  C   UNL     1       6.724   5.444  19.923  0.00  0.00    +0.000 A 
ATOM     13  C   UNL     1       5.777   4.890  19.065  0.00  0.00    +0.000 A 
ATOM     14  C   UNL     1       5.966   4.789  17.652  0.00  0.00    +0.000 A 
ENDROOT
BRANCH   1  15
ATOM     15  C   UNL     1       3.578   3.893  17.104  0.00  0.00    +0.000 C 
BRANCH  15  16
ATOM     16  C   UNL     1       2.836   4.795  18.113  0.00  0.00    +0.000 A 
ATOM     17  C   UNL     1       2.403   4.239  19.347  0.00  0.00    +0.000 A 
ATOM     18  C   UNL     1       1.851   5.032  20.367  0.00  0.00    +0.000 A 
ATOM     19  C   UNL     1       1.780   6.390  20.156  0.00  0.00    +0.000 A 
ATOM     20  C   UNL     1       2.140   6.935  18.955  0.00  0.00    +0.000 A 
ATOM     21  C   UNL     1       2.600   6.163  17.911  0.00  0.00    +0.000 A 
ATOM     22  O   UNL     1       2.024   8.290  18.931  0.00  0.00    +0.000 OA
ATOM     23  C   UNL     1       1.609   8.540  20.287  0.00  0.00    +0.000 C 
ATOM     24  O   UNL     1       1.372   7.333  21.046  0.00  0.00    +0.000 OA
ENDBRANCH  15  16
BRANCH  15  25
ATOM     25  C   UNL     1       3.588   2.378  17.466  0.00  0.00    +0.000 C 
BRANCH  25  26
ATOM     26  O   UNL     1       2.294   1.782  17.378  0.00  0.00    +0.000 OA
ATOM     27  H   UNL     1       1.857   2.195  16.610  0.00  0.00    +0.000 HD
ENDBRANCH  25  26
ENDBRANCH  15  25
ENDBRANCH   1  15
TORSDOF 4
ENDMDL
MODEL 6
REMARK VINA RESULT:      -7.2      3.083      6.654
REMARK  Name = 
REMARK  4 active torsions:
REMARK  status: ('A' for Active; 'I' for Inactive)
REMARK    1  A    between atoms: O_1  and  C_2
REMARK    2  A    between atoms: C_2  and  C_3
REMARK    3  A    between atoms: C_3  and  C_4
REMARK    4  A    between atoms: C_3  and  C_13
REMARK                            x       y       z     vdW  Elec       q    Type
REMARK                         _______ _______ _______ _____ _____    ______ ____
ROOT
ATOM      1  C   UNL     1      -0.778  11.466  18.907  0.00  0.00    +0.000 A 
ATOM      2  C   UNL     1      -1.902  11.163  18.057  0.00  0.00    +0.000 A 
ATOM      3  C   UNL     1      -1.864  10.466  16.810  0.00  0.00    +0.000 A 
ATOM      4  C   UNL     1      -3.001  10.292  16.015  0.00  0.00    +0.000 A 
ATOM      5  C   UNL     1      -4.217  10.789  16.448  0.00  0.00    +0.000 A 
ATOM      6  C   UNL     1      -4.285  11.432  17.682  0.00  0.00    +0.000 A 
ATOM      7  C   UNL     1      -3.171  11.622  18.483  0.00  0.00    +0.000 A 
ATOM      8  N   UNL     1      -3.367  12.266  19.636  0.00  0.00    +0.000 NA
ATOM      9  C   UNL     1      -2.333  12.555  20.428  0.00  0.00    +0.000 A 
ATOM     10  C   UNL     1      -2.629  13.198  21.626  0.00  0.00    +0.000 A 
ATOM     11  C   UNL     1      -1.642  13.570  22.539  0.00  0.00    +0.000 A 
ATOM     12  C   UNL     1      -0.321  13.321  22.235  0.00  0.00    +0.000 A 
ATOM     13  C   UNL     1      -0.011  12.679  21.039  0.00  0.00    +0.000 A 
ATOM     14  C   UNL     1      -1.002  12.235  20.110  0.00  0.00    +0.000 A 
ENDROOT
BRANCH   1  15
ATOM     15  C   UNL     1       0.644  11.024  18.487  0.00  0.00    +0.000 C 
BRANCH  15  16
ATOM     16  C   UNL     1       1.179   9.713  19.102  0.00  0.00    +0.000 A 
ATOM     17  C   UNL     1       0.851   9.398  20.449  0.00  0.00    +0.000 A 
ATOM     18  C   UNL     1       1.182   8.161  21.026  0.00  0.00    +0.000 A 
ATOM     19  C   UNL     1       1.804   7.228  20.229  0.00  0.00    +0.000 A 
ATOM     20  C   UNL     1       2.177   7.532  18.949  0.00  0.00    +0.000 A 
ATOM     21  C   UNL     1       1.939   8.770  18.394  0.00  0.00    +0.000 A 
ATOM     22  O   UNL     1       2.760   6.487  18.304  0.00  0.00    +0.000 OA
ATOM     23  C   UNL     1       2.649   5.464  19.310  0.00  0.00    +0.000 C 
ATOM     24  O   UNL     1       2.119   5.949  20.565  0.00  0.00    +0.000 OA
ENDBRANCH  15  16
BRANCH  15  25
ATOM     25  C   UNL     1       1.619  12.235  18.581  0.00  0.00    +0.000 C 
BRANCH  25  26
ATOM     26  O   UNL     1       2.562  12.267  17.512  0.00  0.00    +0.000 OA
ATOM     27  H   UNL     1       2.058  12.505  16.712  0.00  0.00    +0.000 HD
ENDBRANCH  25  26
ENDBRANCH  15  25
ENDBRANCH   1  15
TORSDOF 4
ENDMDL
MODEL 7
REMARK VINA RESULT:      -7.2      3.115      6.103
REMARK  Name = 
REMARK  4 active torsions:
REMARK  status: ('A' for Active; 'I' for Inactive)
REMARK    1  A    between atoms: O_1  and  C_2
REMARK    2  A    between atoms: C_2  and  C_3
REMARK    3  A    between atoms: C_3  and  C_4
REMARK    4  A    between atoms: C_3  and  C_13
REMARK                            x       y       z     vdW  Elec       q    Type
REMARK                         _______ _______ _______ _____ _____    ______ ____
ROOT
ATOM      1  C   UNL     1      -0.701  11.391  18.843  0.00  0.00    +0.000 A 
ATOM      2  C   UNL     1      -0.930  12.172  20.033  0.00  0.00    +0.000 A 
ATOM      3  C   UNL     1       0.057  12.603  20.972  0.00  0.00    +0.000 A 
ATOM      4  C   UNL     1      -0.275  13.290  22.143  0.00  0.00    +0.000 A 
ATOM      5  C   UNL     1      -1.599  13.586  22.406  0.00  0.00    +0.000 A 
ATOM      6  C   UNL     1      -2.573  13.214  21.483  0.00  0.00    +0.000 A 
ATOM      7  C   UNL     1      -2.269  12.528  20.319  0.00  0.00    +0.000 A 
ATOM      8  N   UNL     1      -3.295  12.217  19.523  0.00  0.00    +0.000 NA
ATOM      9  C   UNL     1      -3.095  11.491  18.422  0.00  0.00    +0.000 A 
ATOM     10  C   UNL     1      -4.212  11.241  17.631  0.00  0.00    +0.000 A 
ATOM     11  C   UNL     1      -4.146  10.483  16.461  0.00  0.00    +0.000 A 
ATOM     12  C   UNL     1      -2.938   9.937  16.085  0.00  0.00    +0.000 A 
ATOM     13  C   UNL     1      -1.812  10.178  16.868  0.00  0.00    +0.000 A 
ATOM     14  C   UNL     1      -1.835  10.996  18.040  0.00  0.00    +0.000 A 
ENDROOT
BRANCH   1  15
ATOM     15  C   UNL     1       0.735  10.937  18.486  0.00  0.00    +0.000 C 
BRANCH  15  16
ATOM     16  C   UNL     1       1.230   9.621  19.124  0.00  0.00    +0.000 A 
ATOM     17  C   UNL     1       0.861   9.321  20.463  0.00  0.00    +0.000 A 
ATOM     18  C   UNL     1       1.156   8.082  21.056  0.00  0.00    +0.000 A 
ATOM     19  C   UNL     1       1.783   7.133  20.282  0.00  0.00    +0.000 A 
ATOM     20  C   UNL     1       2.195   7.423  19.011  0.00  0.00    +0.000 A 
ATOM     21  C   UNL     1       1.994   8.661  18.442  0.00  0.00    +0.000 A 
ATOM     22  O   UNL     1       2.777   6.364  18.387  0.00  0.00    +0.000 OA
ATOM     23  C   UNL     1       2.622   5.349  19.397  0.00  0.00    +0.000 C 
ATOM     24  O   UNL     1       2.067   5.852  20.634  0.00  0.00    +0.000 OA
ENDBRANCH  15  16
BRANCH  15  25
ATOM     25  C   UNL     1       1.715  12.139  18.624  0.00  0.00    +0.000 C 
BRANCH  25  26
ATOM     26  O   UNL     1       2.604  12.255  17.514  0.00  0.00    +0.000 OA
ATOM     27  H   UNL     1       3.348  11.651  17.699  0.00  0.00    +0.000 HD
ENDBRANCH  25  26
ENDBRANCH  15  25
ENDBRANCH   1  15
TORSDOF 4
ENDMDL
MODEL 8
REMARK VINA RESULT:      -7.2      5.299      8.960
REMARK  Name = 
REMARK  4 active torsions:
REMARK  status: ('A' for Active; 'I' for Inactive)
REMARK    1  A    between atoms: O_1  and  C_2
REMARK    2  A    between atoms: C_2  and  C_3
REMARK    3  A    between atoms: C_3  and  C_4
REMARK    4  A    between atoms: C_3  and  C_13
REMARK                            x       y       z     vdW  Elec       q    Type
REMARK                         _______ _______ _______ _____ _____    ______ ____
ROOT
ATOM      1  C   UNL     1       4.998   4.217  16.657  0.00  0.00    +0.000 A 
ATOM      2  C   UNL     1       5.933   4.705  17.639  0.00  0.00    +0.000 A 
ATOM      3  C   UNL     1       5.692   4.869  19.038  0.00  0.00    +0.000 A 
ATOM      4  C   UNL     1       6.639   5.429  19.900  0.00  0.00    +0.000 A 
ATOM      5  C   UNL     1       7.865   5.824  19.399  0.00  0.00    +0.000 A 
ATOM      6  C   UNL     1       8.138   5.632  18.047  0.00  0.00    +0.000 A 
ATOM      7  C   UNL     1       7.213   5.086  17.173  0.00  0.00    +0.000 A 
ATOM      8  N   UNL     1       7.593   4.968  15.898  0.00  0.00    +0.000 NA
ATOM      9  C   UNL     1       6.734   4.522  14.980  0.00  0.00    +0.000 A 
ATOM     10  C   UNL     1       7.220   4.397  13.683  0.00  0.00    +0.000 A 
ATOM     11  C   UNL     1       6.424   3.957  12.625  0.00  0.00    +0.000 A 
ATOM     12  C   UNL     1       5.100   3.659  12.861  0.00  0.00    +0.000 A 
ATOM     13  C   UNL     1       4.600   3.781  14.156  0.00  0.00    +0.000 A 
ATOM     14  C   UNL     1       5.403   4.174  15.271  0.00  0.00    +0.000 A 
ENDROOT
BRANCH   1  15
ATOM     15  C   UNL     1       3.568   3.814  17.091  0.00  0.00    +0.000 C 
BRANCH  15  16
ATOM     16  C   UNL     1       2.845   4.756  18.077  0.00  0.00    +0.000 A 
ATOM     17  C   UNL     1       2.412   4.243  19.330  0.00  0.00    +0.000 A 
ATOM     18  C   UNL     1       1.878   5.073  20.329  0.00  0.00    +0.000 A 
ATOM     19  C   UNL     1       1.823   6.425  20.079  0.00  0.00    +0.000 A 
ATOM     20  C   UNL     1       2.183   6.929  18.859  0.00  0.00    +0.000 A 
ATOM     21  C   UNL     1       2.626   6.121  17.836  0.00  0.00    +0.000 A 
ATOM     22  O   UNL     1       2.084   8.284  18.795  0.00  0.00    +0.000 OA
ATOM     23  C   UNL     1       1.682   8.581  20.145  0.00  0.00    +0.000 C 
ATOM     24  O   UNL     1       1.434   7.400  20.942  0.00  0.00    +0.000 OA
ENDBRANCH  15  16
BRANCH  15  25
ATOM     25  C   UNL     1       3.546   2.309  17.489  0.00  0.00    +0.000 C 
BRANCH  25  26
ATOM     26  O   UNL     1       2.247   1.728  17.375  0.00  0.00    +0.000 OA
ATOM     27  H   UNL     1       1.816   2.174  16.624  0.00  0.00    +0.000 HD
ENDBRANCH  25  26
ENDBRANCH  15  25
ENDBRANCH   1  15
TORSDOF 4
ENDMDL
MODEL 9
REMARK VINA RESULT:      -7.0      3.257      6.573
REMARK  Name = 
REMARK  4 active torsions:
REMARK  status: ('A' for Active; 'I' for Inactive)
REMARK    1  A    between atoms: O_1  and  C_2
REMARK    2  A    between atoms: C_2  and  C_3
REMARK    3  A    between atoms: C_3  and  C_4
REMARK    4  A    between atoms: C_3  and  C_13
REMARK                            x       y       z     vdW  Elec       q    Type
REMARK                         _______ _______ _______ _____ _____    ______ ____
ROOT
ATOM      1  C   UNL     1       0.300  11.174  19.714  0.00  0.00    +0.000 A 
ATOM      2  C   UNL     1       0.924  12.473  19.737  0.00  0.00    +0.000 A 
ATOM      3  C   UNL     1       2.028  12.874  20.551  0.00  0.00    +0.000 A 
ATOM      4  C   UNL     1       2.512  14.185  20.561  0.00  0.00    +0.000 A 
ATOM      5  C   UNL     1       1.925  15.134  19.745  0.00  0.00    +0.000 A 
ATOM      6  C   UNL     1       0.877  14.754  18.911  0.00  0.00    +0.000 A 
ATOM      7  C   UNL     1       0.376  13.463  18.888  0.00  0.00    +0.000 A 
ATOM      8  N   UNL     1      -0.640  13.231  18.054  0.00  0.00    +0.000 NA
ATOM      9  C   UNL     1      -1.228  12.034  18.028  0.00  0.00    +0.000 A 
ATOM     10  C   UNL     1      -2.257  11.866  17.106  0.00  0.00    +0.000 A 
ATOM     11  C   UNL     1      -2.965  10.670  16.984  0.00  0.00    +0.000 A 
ATOM     12  C   UNL     1      -2.658   9.622  17.824  0.00  0.00    +0.000 A 
ATOM     13  C   UNL     1      -1.631   9.776  18.753  0.00  0.00    +0.000 A 
ATOM     14  C   UNL     1      -0.850  10.968  18.863  0.00  0.00    +0.000 A 
ENDROOT
BRANCH   1  15
ATOM     15  C   UNL     1       0.825  10.052  20.642  0.00  0.00    +0.000 C 
BRANCH  15  16
ATOM     16  C   UNL     1       1.388   8.787  19.959  0.00  0.00    +0.000 A 
ATOM     17  C   UNL     1       1.872   8.880  18.625  0.00  0.00    +0.000 A 
ATOM     18  C   UNL     1       2.525   7.808  17.994  0.00  0.00    +0.000 A 
ATOM     19  C   UNL     1       2.728   6.661  18.726  0.00  0.00    +0.000 A 
ATOM     20  C   UNL     1       2.222   6.534  19.990  0.00  0.00    +0.000 A 
ATOM     21  C   UNL     1       1.502   7.541  20.593  0.00  0.00    +0.000 A 
ATOM     22  O   UNL     1       2.535   5.344  20.570  0.00  0.00    +0.000 OA
ATOM     23  C   UNL     1       3.358   4.762  19.543  0.00  0.00    +0.000 C 
ATOM     24  O   UNL     1       3.417   5.556  18.336  0.00  0.00    +0.000 OA
ENDBRANCH  15  16
BRANCH  15  25
ATOM     25  C   UNL     1      -0.210   9.778  21.773  0.00  0.00    +0.000 C 
BRANCH  25  26
ATOM     26  O   UNL     1       0.220  10.265  23.043  0.00  0.00    +0.000 OA
ATOM     27  H   UNL     1       0.383   9.477  23.594  0.00  0.00    +0.000 HD
ENDBRANCH  25  26
ENDBRANCH  15  25
ENDBRANCH   1  15
TORSDOF 4
ENDMDL
