MODEL 1
REMARK VINA RESULT:      -8.3      0.000      0.000
REMARK  Name = 
REMARK  12 active torsions:
REMARK  status: ('A' for Active; 'I' for Inactive)
REMARK    1  A    between atoms: C_2  and  O_3
REMARK    2  A    between atoms: C_2  and  C_4
REMARK    3  A    between atoms: C_4  and  C_5
REMARK    4  A    between atoms: C_5  and  C_6
REMARK    5  A    between atoms: C_6  and  O_7
REMARK    6  A    between atoms: C_6  and  C_25
REMARK    7  A    between atoms: O_7  and  C_8
REMARK    8  A    between atoms: C_10  and  O_11
REMARK    9  A    between atoms: O_11  and  C_12
REMARK   10  A    between atoms: C_12  and  C_13
REMARK   11  A    between atoms: C_21  and  C_22
REMARK   12  A    between atoms: C_22  and  O_24
REMARK                            x       y       z     vdW  Elec       q    Type
REMARK                         _______ _______ _______ _____ _____    ______ ____
ROOT
ATOM      1  C   UNL     1       5.458   6.473  17.767  0.00  0.00    +0.000 A 
ATOM      2  C   UNL     1       6.259   7.570  17.431  0.00  0.00    +0.000 A 
ATOM      3  C   UNL     1       7.596   7.675  17.876  0.00  0.00    +0.000 A 
ATOM      4  C   UNL     1       8.104   6.727  18.766  0.00  0.00    +0.000 A 
ATOM      5  C   UNL     1       7.364   5.592  19.023  0.00  0.00    +0.000 A 
ATOM      6  C   UNL     1       6.095   5.418  18.412  0.00  0.00    +0.000 A 
ENDROOT
BRANCH   6   7
ATOM      7  C   UNL     1       5.583   4.049  18.317  0.00  0.00    +0.000 C 
ATOM      8  O   UNL     1       5.301   3.396  19.313  0.00  0.00    +0.000 OA
BRANCH   7   9
ATOM      9  O   UNL     1       5.452   3.551  17.068  0.00  0.00    +0.000 OA
ATOM     10  H   UNL     1       5.554   2.573  16.979  0.00  0.00    +0.000 HD
ENDBRANCH   7   9
ENDBRANCH   6   7
BRANCH   1  11
ATOM     11  O   UNL     1       4.141   6.459  17.347  0.00  0.00    +0.000 OA
BRANCH  11  12
ATOM     12  C   UNL     1       3.115   6.197  18.352  0.00  0.00    +0.000 C 
BRANCH  12  13
ATOM     13  C   UNL     1       2.331   7.468  18.682  0.00  0.00    +0.000 A 
ATOM     14  C   UNL     1       2.080   8.470  17.730  0.00  0.00    +0.000 A 
ATOM     15  C   UNL     1       1.462   9.668  18.111  0.00  0.00    +0.000 A 
ATOM     16  C   UNL     1       1.070   9.868  19.433  0.00  0.00    +0.000 A 
ATOM     17  C   UNL     1       1.262   8.861  20.373  0.00  0.00    +0.000 A 
ATOM     18  C   UNL     1       1.874   7.668  19.997  0.00  0.00    +0.000 A 
ENDBRANCH  12  13
BRANCH  12  19
ATOM     19  C   UNL     1       2.095   5.096  17.896  0.00  0.00    +0.000 C 
BRANCH  19  20
ATOM     20  C   UNL     1       1.552   4.048  18.869  0.00  0.00    +0.000 C 
BRANCH  20  22
ATOM     21  O   UNL     1       1.556   1.702  19.315  0.00  0.00    +0.000 OA
ATOM     22  C   UNL     1       1.955   2.624  18.616  0.00  0.00    +0.000 C 
BRANCH  22  23
ATOM     23  O   UNL     1       2.767   2.422  17.558  0.00  0.00    +0.000 OA
ATOM     24  H   UNL     1       2.775   1.526  17.172  0.00  0.00    +0.000 HD
ENDBRANCH  22  23
ENDBRANCH  20  22
ENDBRANCH  19  20
ENDBRANCH  12  19
ENDBRANCH  11  12
ENDBRANCH   1  11
BRANCH   3  25
ATOM     25  O   UNL     1       8.486   8.635  17.460  0.00  0.00    +0.000 OA
BRANCH  25  26
ATOM     26  C   UNL     1       8.162   9.976  17.843  0.00  0.00    +0.000 C 
BRANCH  26  27
ATOM     27  C   UNL     1       9.312  10.696  18.508  0.00  0.00    +0.000 A 
ATOM     28  C   UNL     1      10.387  11.224  17.783  0.00  0.00    +0.000 A 
ATOM     29  C   UNL     1      11.451  11.840  18.446  0.00  0.00    +0.000 A 
ATOM     30  C   UNL     1      11.450  11.932  19.837  0.00  0.00    +0.000 A 
ATOM     31  C   UNL     1      10.381  11.425  20.571  0.00  0.00    +0.000 A 
ATOM     32  C   UNL     1       9.317  10.811  19.908  0.00  0.00    +0.000 A 
ENDBRANCH  26  27
ENDBRANCH  25  26
ENDBRANCH   3  25
TORSDOF 12
ENDMDL
MODEL 2
REMARK VINA RESULT:      -8.2      0.474      1.129
REMARK  Name = 
REMARK  12 active torsions:
REMARK  status: ('A' for Active; 'I' for Inactive)
REMARK    1  A    between atoms: C_2  and  O_3
REMARK    2  A    between atoms: C_2  and  C_4
REMARK    3  A    between atoms: C_4  and  C_5
REMARK    4  A    between atoms: C_5  and  C_6
REMARK    5  A    between atoms: C_6  and  O_7
REMARK    6  A    between atoms: C_6  and  C_25
REMARK    7  A    between atoms: O_7  and  C_8
REMARK    8  A    between atoms: C_10  and  O_11
REMARK    9  A    between atoms: O_11  and  C_12
REMARK   10  A    between atoms: C_12  and  C_13
REMARK   11  A    between atoms: C_21  and  C_22
REMARK   12  A    between atoms: C_22  and  O_24
REMARK                            x       y       z     vdW  Elec       q    Type
REMARK                         _______ _______ _______ _____ _____    ______ ____
ROOT
ATOM      1  C   UNL     1       5.330   6.363  18.030  0.00  0.00    +0.000 A 
ATOM      2  C   UNL     1       6.072   7.467  17.598  0.00  0.00    +0.000 A 
ATOM      3  C   UNL     1       7.460   7.571  17.848  0.00  0.00    +0.000 A 
ATOM      4  C   UNL     1       8.091   6.614  18.644  0.00  0.00    +0.000 A 
ATOM      5  C   UNL     1       7.397   5.473  18.990  0.00  0.00    +0.000 A 
ATOM      6  C   UNL     1       6.055   5.302  18.563  0.00  0.00    +0.000 A 
ENDROOT
BRANCH   6   7
ATOM      7  C   UNL     1       5.537   3.933  18.524  0.00  0.00    +0.000 C 
ATOM      8  O   UNL     1       5.352   3.285  19.547  0.00  0.00    +0.000 OA
BRANCH   7   9
ATOM      9  O   UNL     1       5.287   3.428  17.296  0.00  0.00    +0.000 OA
ATOM     10  H   UNL     1       4.491   2.848  17.220  0.00  0.00    +0.000 HD
ENDBRANCH   7   9
ENDBRANCH   6   7
BRANCH   1  11
ATOM     11  O   UNL     1       3.966   6.349  17.802  0.00  0.00    +0.000 OA
BRANCH  11  12
ATOM     12  C   UNL     1       3.087   6.378  18.967  0.00  0.00    +0.000 C 
BRANCH  12  13
ATOM     13  C   UNL     1       2.233   7.647  18.980  0.00  0.00    +0.000 A 
ATOM     14  C   UNL     1       2.064   8.456  17.845  0.00  0.00    +0.000 A 
ATOM     15  C   UNL     1       1.371   9.671  17.938  0.00  0.00    +0.000 A 
ATOM     16  C   UNL     1       0.825  10.076  19.154  0.00  0.00    +0.000 A 
ATOM     17  C   UNL     1       0.936   9.257  20.273  0.00  0.00    +0.000 A 
ATOM     18  C   UNL     1       1.622   8.048  20.182  0.00  0.00    +0.000 A 
ENDBRANCH  12  13
BRANCH  12  19
ATOM     19  C   UNL     1       2.127   5.140  19.025  0.00  0.00    +0.000 C 
BRANCH  19  20
ATOM     20  C   UNL     1       1.873   4.258  17.801  0.00  0.00    +0.000 C 
BRANCH  20  22
ATOM     21  O   UNL     1       2.685   2.014  17.723  0.00  0.00    +0.000 OA
ATOM     22  C   UNL     1       1.786   2.779  18.046  0.00  0.00    +0.000 C 
BRANCH  22  23
ATOM     23  O   UNL     1       0.666   2.349  18.663  0.00  0.00    +0.000 OA
ATOM     24  H   UNL     1       0.531   2.638  19.585  0.00  0.00    +0.000 HD
ENDBRANCH  22  23
ENDBRANCH  20  22
ENDBRANCH  19  20
ENDBRANCH  12  19
ENDBRANCH  11  12
ENDBRANCH   1  11
BRANCH   3  25
ATOM     25  O   UNL     1       8.280   8.540  17.322  0.00  0.00    +0.000 OA
BRANCH  25  26
ATOM     26  C   UNL     1       8.008   9.875  17.762  0.00  0.00    +0.000 C 
BRANCH  26  27
ATOM     27  C   UNL     1       9.186  10.521  18.454  0.00  0.00    +0.000 A 
ATOM     28  C   UNL     1       9.283  10.607  19.848  0.00  0.00    +0.000 A 
ATOM     29  C   UNL     1      10.369  11.255  20.440  0.00  0.00    +0.000 A 
ATOM     30  C   UNL     1      11.364  11.823  19.647  0.00  0.00    +0.000 A 
ATOM     31  C   UNL     1      11.290  11.733  18.260  0.00  0.00    +0.000 A 
ATOM     32  C   UNL     1      10.205  11.083  17.667  0.00  0.00    +0.000 A 
ENDBRANCH  26  27
ENDBRANCH  25  26
ENDBRANCH   3  25
TORSDOF 12
ENDMDL
MODEL 3
REMARK VINA RESULT:      -8.2      0.993      1.509
REMARK  Name = 
REMARK  12 active torsions:
REMARK  status: ('A' for Active; 'I' for Inactive)
REMARK    1  A    between atoms: C_2  and  O_3
REMARK    2  A    between atoms: C_2  and  C_4
REMARK    3  A    between atoms: C_4  and  C_5
REMARK    4  A    between atoms: C_5  and  C_6
REMARK    5  A    between atoms: C_6  and  O_7
REMARK    6  A    between atoms: C_6  and  C_25
REMARK    7  A    between atoms: O_7  and  C_8
REMARK    8  A    between atoms: C_10  and  O_11
REMARK    9  A    between atoms: O_11  and  C_12
REMARK   10  A    between atoms: C_12  and  C_13
REMARK   11  A    between atoms: C_21  and  C_22
REMARK   12  A    between atoms: C_22  and  O_24
REMARK                            x       y       z     vdW  Elec       q    Type
REMARK                         _______ _______ _______ _____ _____    ______ ____
ROOT
ATOM      1  C   UNL     1       5.452   5.998  17.517  0.00  0.00    +0.000 A 
ATOM      2  C   UNL     1       6.226   7.099  17.898  0.00  0.00    +0.000 A 
ATOM      3  C   UNL     1       7.592   6.962  18.236  0.00  0.00    +0.000 A 
ATOM      4  C   UNL     1       8.161   5.690  18.309  0.00  0.00    +0.000 A 
ATOM      5  C   UNL     1       7.442   4.612  17.839  0.00  0.00    +0.000 A 
ATOM      6  C   UNL     1       6.133   4.801  17.323  0.00  0.00    +0.000 A 
ENDROOT
BRANCH   6   7
ATOM      7  C   UNL     1       5.617   3.770  16.421  0.00  0.00    +0.000 C 
ATOM      8  O   UNL     1       6.038   3.644  15.278  0.00  0.00    +0.000 OA
BRANCH   7   9
ATOM      9  O   UNL     1       4.644   2.977  16.921  0.00  0.00    +0.000 OA
ATOM     10  H   UNL     1       4.909   2.387  17.668  0.00  0.00    +0.000 HD
ENDBRANCH   7   9
ENDBRANCH   6   7
BRANCH   1  11
ATOM     11  O   UNL     1       4.108   6.191  17.252  0.00  0.00    +0.000 OA
BRANCH  11  12
ATOM     12  C   UNL     1       3.172   6.019  18.359  0.00  0.00    +0.000 C 
BRANCH  12  13
ATOM     13  C   UNL     1       2.477   7.337  18.701  0.00  0.00    +0.000 A 
ATOM     14  C   UNL     1       1.949   7.605  19.975  0.00  0.00    +0.000 A 
ATOM     15  C   UNL     1       1.216   8.777  20.206  0.00  0.00    +0.000 A 
ATOM     16  C   UNL     1       1.024   9.699  19.178  0.00  0.00    +0.000 A 
ATOM     17  C   UNL     1       1.590   9.473  17.928  0.00  0.00    +0.000 A 
ATOM     18  C   UNL     1       2.320   8.310  17.697  0.00  0.00    +0.000 A 
ENDBRANCH  12  13
BRANCH  12  19
ATOM     19  C   UNL     1       2.068   4.949  18.050  0.00  0.00    +0.000 C 
BRANCH  19  20
ATOM     20  C   UNL     1       1.678   3.875  19.068  0.00  0.00    +0.000 C 
BRANCH  20  22
ATOM     21  O   UNL     1       0.171   2.131  18.446  0.00  0.00    +0.000 OA
ATOM     22  C   UNL     1       1.328   2.523  18.517  0.00  0.00    +0.000 C 
BRANCH  22  23
ATOM     23  O   UNL     1       2.366   1.776  18.087  0.00  0.00    +0.000 OA
ATOM     24  H   UNL     1       2.742   2.003  17.215  0.00  0.00    +0.000 HD
ENDBRANCH  22  23
ENDBRANCH  20  22
ENDBRANCH  19  20
ENDBRANCH  12  19
ENDBRANCH  11  12
ENDBRANCH   1  11
BRANCH   3  25
ATOM     25  O   UNL     1       8.450   8.011  18.465  0.00  0.00    +0.000 OA
BRANCH  25  26
ATOM     26  C   UNL     1       8.105   9.237  17.811  0.00  0.00    +0.000 C 
BRANCH  26  27
ATOM     27  C   UNL     1       8.795  10.441  18.409  0.00  0.00    +0.000 A 
ATOM     28  C   UNL     1       8.820  11.686  17.770  0.00  0.00    +0.000 A 
ATOM     29  C   UNL     1       9.511  12.758  18.341  0.00  0.00    +0.000 A 
ATOM     30  C   UNL     1      10.182  12.594  19.551  0.00  0.00    +0.000 A 
ATOM     31  C   UNL     1      10.153  11.366  20.207  0.00  0.00    +0.000 A 
ATOM     32  C   UNL     1       9.461  10.295  19.638  0.00  0.00    +0.000 A 
ENDBRANCH  26  27
ENDBRANCH  25  26
ENDBRANCH   3  25
TORSDOF 12
ENDMDL
MODEL 4
REMARK VINA RESULT:      -8.1      0.378      1.241
REMARK  Name = 
REMARK  12 active torsions:
REMARK  status: ('A' for Active; 'I' for Inactive)
REMARK    1  A    between atoms: C_2  and  O_3
REMARK    2  A    between atoms: C_2  and  C_4
REMARK    3  A    between atoms: C_4  and  C_5
REMARK    4  A    between atoms: C_5  and  C_6
REMARK    5  A    between atoms: C_6  and  O_7
REMARK    6  A    between atoms: C_6  and  C_25
REMARK    7  A    between atoms: O_7  and  C_8
REMARK    8  A    between atoms: C_10  and  O_11
REMARK    9  A    between atoms: O_11  and  C_12
REMARK   10  A    between atoms: C_12  and  C_13
REMARK   11  A    between atoms: C_21  and  C_22
REMARK   12  A    between atoms: C_22  and  O_24
REMARK                            x       y       z     vdW  Elec       q    Type
REMARK                         _______ _______ _______ _____ _____    ______ ____
ROOT
ATOM      1  C   UNL     1       5.435   6.526  17.696  0.00  0.00    +0.000 A 
ATOM      2  C   UNL     1       6.224   7.657  17.460  0.00  0.00    +0.000 A 
ATOM      3  C   UNL     1       7.585   7.702  17.839  0.00  0.00    +0.000 A 
ATOM      4  C   UNL     1       8.134   6.648  18.570  0.00  0.00    +0.000 A 
ATOM      5  C   UNL     1       7.400   5.490  18.720  0.00  0.00    +0.000 A 
ATOM      6  C   UNL     1       6.099   5.396  18.163  0.00  0.00    +0.000 A 
ENDROOT
BRANCH   6   7
ATOM      7  C   UNL     1       5.572   4.051  17.921  0.00  0.00    +0.000 C 
ATOM      8  O   UNL     1       5.317   3.653  16.792  0.00  0.00    +0.000 OA
BRANCH   7   9
ATOM      9  O   UNL     1       5.376   3.286  19.017  0.00  0.00    +0.000 OA
ATOM     10  H   UNL     1       4.445   3.223  19.341  0.00  0.00    +0.000 HD
ENDBRANCH   7   9
ENDBRANCH   6   7
BRANCH   1  11
ATOM     11  O   UNL     1       4.096   6.567  17.352  0.00  0.00    +0.000 OA
BRANCH  11  12
ATOM     12  C   UNL     1       3.120   6.331  18.411  0.00  0.00    +0.000 C 
BRANCH  12  13
ATOM     13  C   UNL     1       2.374   7.617  18.768  0.00  0.00    +0.000 A 
ATOM     14  C   UNL     1       1.843   7.853  20.047  0.00  0.00    +0.000 A 
ATOM     15  C   UNL     1       1.065   8.993  20.291  0.00  0.00    +0.000 A 
ATOM     16  C   UNL     1       0.830   9.914  19.273  0.00  0.00    +0.000 A 
ATOM     17  C   UNL     1       1.397   9.721  18.018  0.00  0.00    +0.000 A 
ATOM     18  C   UNL     1       2.173   8.591  17.773  0.00  0.00    +0.000 A 
ENDBRANCH  12  13
BRANCH  12  19
ATOM     19  C   UNL     1       2.061   5.243  18.020  0.00  0.00    +0.000 C 
BRANCH  19  20
ATOM     20  C   UNL     1       1.771   4.039  18.918  0.00  0.00    +0.000 C 
BRANCH  20  22
ATOM     21  O   UNL     1       2.271   2.217  17.459  0.00  0.00    +0.000 OA
ATOM     22  C   UNL     1       1.475   2.740  18.226  0.00  0.00    +0.000 C 
BRANCH  22  23
ATOM     23  O   UNL     1       0.285   2.176  18.519  0.00  0.00    +0.000 OA
ATOM     24  H   UNL     1       0.053   1.360  18.038  0.00  0.00    +0.000 HD
ENDBRANCH  22  23
ENDBRANCH  20  22
ENDBRANCH  19  20
ENDBRANCH  12  19
ENDBRANCH  11  12
ENDBRANCH   1  11
BRANCH   3  25
ATOM     25  O   UNL     1       8.458   8.708  17.501  0.00  0.00    +0.000 OA
BRANCH  25  26
ATOM     26  C   UNL     1       8.133  10.001  18.023  0.00  0.00    +0.000 C 
BRANCH  26  27
ATOM     27  C   UNL     1       9.330  10.727  18.592  0.00  0.00    +0.000 A 
ATOM     28  C   UNL     1      10.375  11.197  17.788  0.00  0.00    +0.000 A 
ATOM     29  C   UNL     1      11.483  11.822  18.366  0.00  0.00    +0.000 A 
ATOM     30  C   UNL     1      11.557  11.979  19.748  0.00  0.00    +0.000 A 
ATOM     31  C   UNL     1      10.519  11.530  20.560  0.00  0.00    +0.000 A 
ATOM     32  C   UNL     1       9.410  10.908  19.983  0.00  0.00    +0.000 A 
ENDBRANCH  26  27
ENDBRANCH  25  26
ENDBRANCH   3  25
TORSDOF 12
ENDMDL
MODEL 5
REMARK VINA RESULT:      -8.0      2.705      7.004
REMARK  Name = 
REMARK  12 active torsions:
REMARK  status: ('A' for Active; 'I' for Inactive)
REMARK    1  A    between atoms: C_2  and  O_3
REMARK    2  A    between atoms: C_2  and  C_4
REMARK    3  A    between atoms: C_4  and  C_5
REMARK    4  A    between atoms: C_5  and  C_6
REMARK    5  A    between atoms: C_6  and  O_7
REMARK    6  A    between atoms: C_6  and  C_25
REMARK    7  A    between atoms: O_7  and  C_8
REMARK    8  A    between atoms: C_10  and  O_11
REMARK    9  A    between atoms: O_11  and  C_12
REMARK   10  A    between atoms: C_12  and  C_13
REMARK   11  A    between atoms: C_21  and  C_22
REMARK   12  A    between atoms: C_22  and  O_24
REMARK                            x       y       z     vdW  Elec       q    Type
REMARK                         _______ _______ _______ _____ _____    ______ ____
ROOT
ATOM      1  C   UNL     1       3.532   4.396  18.455  0.00  0.00    +0.000 A 
ATOM      2  C   UNL     1       3.071   5.687  18.733  0.00  0.00    +0.000 A 
ATOM      3  C   UNL     1       2.252   5.956  19.854  0.00  0.00    +0.000 A 
ATOM      4  C   UNL     1       1.791   4.900  20.641  0.00  0.00    +0.000 A 
ATOM      5  C   UNL     1       2.317   3.641  20.439  0.00  0.00    +0.000 A 
ATOM      6  C   UNL     1       3.287   3.430  19.425  0.00  0.00    +0.000 A 
ENDROOT
BRANCH   6   7
ATOM      7  C   UNL     1       4.147   2.253  19.559  0.00  0.00    +0.000 C 
ATOM      8  O   UNL     1       4.884   2.100  20.525  0.00  0.00    +0.000 OA
BRANCH   7   9
ATOM      9  O   UNL     1       4.084   1.355  18.552  0.00  0.00    +0.000 OA
ATOM     10  H   UNL     1       4.334   0.427  18.782  0.00  0.00    +0.000 HD
ENDBRANCH   7   9
ENDBRANCH   6   7
BRANCH   1  11
ATOM     11  O   UNL     1       4.283   4.191  17.312  0.00  0.00    +0.000 OA
BRANCH  11  12
ATOM     12  C   UNL     1       4.826   5.369  16.642  0.00  0.00    +0.000 C 
BRANCH  12  13
ATOM     13  C   UNL     1       6.082   5.875  17.352  0.00  0.00    +0.000 A 
ATOM     14  C   UNL     1       6.732   5.140  18.356  0.00  0.00    +0.000 A 
ATOM     15  C   UNL     1       7.808   5.698  19.059  0.00  0.00    +0.000 A 
ATOM     16  C   UNL     1       8.257   6.982  18.753  0.00  0.00    +0.000 A 
ATOM     17  C   UNL     1       7.658   7.698  17.722  0.00  0.00    +0.000 A 
ATOM     18  C   UNL     1       6.591   7.145  17.020  0.00  0.00    +0.000 A 
ENDBRANCH  12  13
BRANCH  12  19
ATOM     19  C   UNL     1       5.189   5.092  15.141  0.00  0.00    +0.000 C 
BRANCH  19  20
ATOM     20  C   UNL     1       6.398   4.242  14.748  0.00  0.00    +0.000 C 
BRANCH  20  22
ATOM     21  O   UNL     1       6.685   3.823  12.415  0.00  0.00    +0.000 OA
ATOM     22  C   UNL     1       6.985   4.498  13.390  0.00  0.00    +0.000 C 
BRANCH  22  23
ATOM     23  O   UNL     1       7.849   5.531  13.308  0.00  0.00    +0.000 OA
ATOM     24  H   UNL     1       8.088   5.837  12.413  0.00  0.00    +0.000 HD
ENDBRANCH  22  23
ENDBRANCH  20  22
ENDBRANCH  19  20
ENDBRANCH  12  19
ENDBRANCH  11  12
ENDBRANCH   1  11
BRANCH   3  25
ATOM     25  O   UNL     1       1.894   7.213  20.278  0.00  0.00    +0.000 OA
BRANCH  25  26
ATOM     26  C   UNL     1       1.992   8.243  19.288  0.00  0.00    +0.000 C 
BRANCH  26  27
ATOM     27  C   UNL     1       0.942   9.317  19.448  0.00  0.00    +0.000 A 
ATOM     28  C   UNL     1       0.542   9.797  20.701  0.00  0.00    +0.000 A 
ATOM     29  C   UNL     1      -0.466  10.759  20.800  0.00  0.00    +0.000 A 
ATOM     30  C   UNL     1      -1.084  11.246  19.649  0.00  0.00    +0.000 A 
ATOM     31  C   UNL     1      -0.688  10.790  18.395  0.00  0.00    +0.000 A 
ATOM     32  C   UNL     1       0.322   9.831  18.296  0.00  0.00    +0.000 A 
ENDBRANCH  26  27
ENDBRANCH  25  26
ENDBRANCH   3  25
TORSDOF 12
ENDMDL
MODEL 6
REMARK VINA RESULT:      -8.0      2.833      7.142
REMARK  Name = 
REMARK  12 active torsions:
REMARK  status: ('A' for Active; 'I' for Inactive)
REMARK    1  A    between atoms: C_2  and  O_3
REMARK    2  A    between atoms: C_2  and  C_4
REMARK    3  A    between atoms: C_4  and  C_5
REMARK    4  A    between atoms: C_5  and  C_6
REMARK    5  A    between atoms: C_6  and  O_7
REMARK    6  A    between atoms: C_6  and  C_25
REMARK    7  A    between atoms: O_7  and  C_8
REMARK    8  A    between atoms: C_10  and  O_11
REMARK    9  A    between atoms: O_11  and  C_12
REMARK   10  A    between atoms: C_12  and  C_13
REMARK   11  A    between atoms: C_21  and  C_22
REMARK   12  A    between atoms: C_22  and  O_24
REMARK                            x       y       z     vdW  Elec       q    Type
REMARK                         _______ _______ _______ _____ _____    ______ ____
ROOT
ATOM      1  C   UNL     1       3.457   4.535  18.893  0.00  0.00    +0.000 A 
ATOM      2  C   UNL     1       3.026   5.865  18.881  0.00  0.00    +0.000 A 
ATOM      3  C   UNL     1       2.155   6.371  19.873  0.00  0.00    +0.000 A 
ATOM      4  C   UNL     1       1.615   5.505  20.825  0.00  0.00    +0.000 A 
ATOM      5  C   UNL     1       2.108   4.220  20.910  0.00  0.00    +0.000 A 
ATOM      6  C   UNL     1       3.126   3.789  20.020  0.00  0.00    +0.000 A 
ENDROOT
BRANCH   6   7
ATOM      7  C   UNL     1       3.937   2.643  20.438  0.00  0.00    +0.000 C 
ATOM      8  O   UNL     1       3.714   2.043  21.481  0.00  0.00    +0.000 OA
BRANCH   7   9
ATOM      9  O   UNL     1       4.947   2.299  19.610  0.00  0.00    +0.000 OA
ATOM     10  H   UNL     1       5.140   2.930  18.875  0.00  0.00    +0.000 HD
ENDBRANCH   7   9
ENDBRANCH   6   7
BRANCH   1  11
ATOM     11  O   UNL     1       4.264   4.088  17.862  0.00  0.00    +0.000 OA
BRANCH  11  12
ATOM     12  C   UNL     1       4.802   5.089  16.946  0.00  0.00    +0.000 C 
BRANCH  12  13
ATOM     13  C   UNL     1       6.063   5.737  17.519  0.00  0.00    +0.000 A 
ATOM     14  C   UNL     1       6.843   5.125  18.514  0.00  0.00    +0.000 A 
ATOM     15  C   UNL     1       7.920   5.812  19.090  0.00  0.00    +0.000 A 
ATOM     16  C   UNL     1       8.241   7.100  18.666  0.00  0.00    +0.000 A 
ATOM     17  C   UNL     1       7.511   7.695  17.642  0.00  0.00    +0.000 A 
ATOM     18  C   UNL     1       6.442   7.014  17.066  0.00  0.00    +0.000 A 
ENDBRANCH  12  13
BRANCH  12  19
ATOM     19  C   UNL     1       5.154   4.488  15.541  0.00  0.00    +0.000 C 
BRANCH  19  20
ATOM     20  C   UNL     1       6.601   4.248  15.106  0.00  0.00    +0.000 C 
BRANCH  20  22
ATOM     21  O   UNL     1       6.388   3.795  12.772  0.00  0.00    +0.000 OA
ATOM     22  C   UNL     1       6.910   4.464  13.653  0.00  0.00    +0.000 C 
BRANCH  22  23
ATOM     23  O   UNL     1       7.784   5.455  13.379  0.00  0.00    +0.000 OA
ATOM     24  H   UNL     1       8.225   5.878  14.139  0.00  0.00    +0.000 HD
ENDBRANCH  22  23
ENDBRANCH  20  22
ENDBRANCH  19  20
ENDBRANCH  12  19
ENDBRANCH  11  12
ENDBRANCH   1  11
BRANCH   3  25
ATOM     25  O   UNL     1       1.817   7.695  20.016  0.00  0.00    +0.000 OA
BRANCH  25  26
ATOM     26  C   UNL     1       1.469   8.097  21.346  0.00  0.00    +0.000 C 
BRANCH  26  27
ATOM     27  C   UNL     1       0.596   9.329  21.382  0.00  0.00    +0.000 A 
ATOM     28  C   UNL     1       0.011   9.801  22.564  0.00  0.00    +0.000 A 
ATOM     29  C   UNL     1      -0.827  10.918  22.539  0.00  0.00    +0.000 A 
ATOM     30  C   UNL     1      -1.089  11.571  21.335  0.00  0.00    +0.000 A 
ATOM     31  C   UNL     1      -0.503  11.123  20.155  0.00  0.00    +0.000 A 
ATOM     32  C   UNL     1       0.336  10.008  20.179  0.00  0.00    +0.000 A 
ENDBRANCH  26  27
ENDBRANCH  25  26
ENDBRANCH   3  25
TORSDOF 12
ENDMDL
MODEL 7
REMARK VINA RESULT:      -7.9      2.728      7.212
REMARK  Name = 
REMARK  12 active torsions:
REMARK  status: ('A' for Active; 'I' for Inactive)
REMARK    1  A    between atoms: C_2  and  O_3
REMARK    2  A    between atoms: C_2  and  C_4
REMARK    3  A    between atoms: C_4  and  C_5
REMARK    4  A    between atoms: C_5  and  C_6
REMARK    5  A    between atoms: C_6  and  O_7
REMARK    6  A    between atoms: C_6  and  C_25
REMARK    7  A    between atoms: O_7  and  C_8
REMARK    8  A    between atoms: C_10  and  O_11
REMARK    9  A    between atoms: O_11  and  C_12
REMARK   10  A    between atoms: C_12  and  C_13
REMARK   11  A    between atoms: C_21  and  C_22
REMARK   12  A    between atoms: C_22  and  O_24
REMARK                            x       y       z     vdW  Elec       q    Type
REMARK                         _______ _______ _______ _____ _____    ______ ____
ROOT
ATOM      1  C   UNL     1       3.306   4.852  19.400  0.00  0.00    +0.000 A 
ATOM      2  C   UNL     1       3.057   6.229  19.414  0.00  0.00    +0.000 A 
ATOM      3  C   UNL     1       1.983   6.780  20.151  0.00  0.00    +0.000 A 
ATOM      4  C   UNL     1       1.075   5.932  20.786  0.00  0.00    +0.000 A 
ATOM      5  C   UNL     1       1.364   4.586  20.865  0.00  0.00    +0.000 A 
ATOM      6  C   UNL     1       2.553   4.079  20.278  0.00  0.00    +0.000 A 
ENDROOT
BRANCH   6   7
ATOM      7  C   UNL     1       3.053   2.799  20.784  0.00  0.00    +0.000 C 
ATOM      8  O   UNL     1       2.800   2.411  21.917  0.00  0.00    +0.000 OA
BRANCH   7   9
ATOM      9  O   UNL     1       3.816   2.082  19.930  0.00  0.00    +0.000 OA
ATOM     10  H   UNL     1       3.364   1.333  19.471  0.00  0.00    +0.000 HD
ENDBRANCH   7   9
ENDBRANCH   6   7
BRANCH   1  11
ATOM     11  O   UNL     1       4.338   4.372  18.615  0.00  0.00    +0.000 OA
BRANCH  11  12
ATOM     12  C   UNL     1       4.755   5.186  17.478  0.00  0.00    +0.000 C 
BRANCH  12  13
ATOM     13  C   UNL     1       6.049   5.941  17.786  0.00  0.00    +0.000 A 
ATOM     14  C   UNL     1       6.989   5.479  18.723  0.00  0.00    +0.000 A 
ATOM     15  C   UNL     1       8.099   6.265  19.057  0.00  0.00    +0.000 A 
ATOM     16  C   UNL     1       8.293   7.503  18.448  0.00  0.00    +0.000 A 
ATOM     17  C   UNL     1       7.400   7.946  17.477  0.00  0.00    +0.000 A 
ATOM     18  C   UNL     1       6.297   7.166  17.141  0.00  0.00    +0.000 A 
ENDBRANCH  12  13
BRANCH  12  19
ATOM     19  C   UNL     1       4.981   4.335  16.181  0.00  0.00    +0.000 C 
BRANCH  19  20
ATOM     20  C   UNL     1       6.384   3.977  15.686  0.00  0.00    +0.000 C 
BRANCH  20  22
ATOM     21  O   UNL     1       6.163   3.990  13.308  0.00  0.00    +0.000 OA
ATOM     22  C   UNL     1       6.740   4.423  14.297  0.00  0.00    +0.000 C 
BRANCH  22  23
ATOM     23  O   UNL     1       7.721   5.344  14.208  0.00  0.00    +0.000 OA
ATOM     24  H   UNL     1       8.199   5.400  13.360  0.00  0.00    +0.000 HD
ENDBRANCH  22  23
ENDBRANCH  20  22
ENDBRANCH  19  20
ENDBRANCH  12  19
ENDBRANCH  11  12
ENDBRANCH   1  11
BRANCH   3  25
ATOM     25  O   UNL     1       1.772   8.124  20.339  0.00  0.00    +0.000 OA
BRANCH  25  26
ATOM     26  C   UNL     1       1.300   8.492  21.640  0.00  0.00    +0.000 C 
BRANCH  26  27
ATOM     27  C   UNL     1       0.297   9.622  21.607  0.00  0.00    +0.000 A 
ATOM     28  C   UNL     1      -0.118  10.223  20.412  0.00  0.00    +0.000 A 
ATOM     29  C   UNL     1      -1.012  11.296  20.436  0.00  0.00    +0.000 A 
ATOM     30  C   UNL     1      -1.496  11.778  21.651  0.00  0.00    +0.000 A 
ATOM     31  C   UNL     1      -1.105  11.181  22.846  0.00  0.00    +0.000 A 
ATOM     32  C   UNL     1      -0.213  10.107  22.823  0.00  0.00    +0.000 A 
ENDBRANCH  26  27
ENDBRANCH  25  26
ENDBRANCH   3  25
TORSDOF 12
ENDMDL
MODEL 8
REMARK VINA RESULT:      -7.9      2.754      7.038
REMARK  Name = 
REMARK  12 active torsions:
REMARK  status: ('A' for Active; 'I' for Inactive)
REMARK    1  A    between atoms: C_2  and  O_3
REMARK    2  A    between atoms: C_2  and  C_4
REMARK    3  A    between atoms: C_4  and  C_5
REMARK    4  A    between atoms: C_5  and  C_6
REMARK    5  A    between atoms: C_6  and  O_7
REMARK    6  A    between atoms: C_6  and  C_25
REMARK    7  A    between atoms: O_7  and  C_8
REMARK    8  A    between atoms: C_10  and  O_11
REMARK    9  A    between atoms: O_11  and  C_12
REMARK   10  A    between atoms: C_12  and  C_13
REMARK   11  A    between atoms: C_21  and  C_22
REMARK   12  A    between atoms: C_22  and  O_24
REMARK                            x       y       z     vdW  Elec       q    Type
REMARK                         _______ _______ _______ _____ _____    ______ ____
ROOT
ATOM      1  C   UNL     1       3.621   4.772  17.934  0.00  0.00    +0.000 A 
ATOM      2  C   UNL     1       3.191   6.079  18.186  0.00  0.00    +0.000 A 
ATOM      3  C   UNL     1       2.394   6.393  19.310  0.00  0.00    +0.000 A 
ATOM      4  C   UNL     1       1.921   5.367  20.130  0.00  0.00    +0.000 A 
ATOM      5  C   UNL     1       2.418   4.092  19.953  0.00  0.00    +0.000 A 
ATOM      6  C   UNL     1       3.370   3.836  18.931  0.00  0.00    +0.000 A 
ENDROOT
BRANCH   6   7
ATOM      7  C   UNL     1       4.207   2.645  19.084  0.00  0.00    +0.000 C 
ATOM      8  O   UNL     1       4.907   2.472  20.073  0.00  0.00    +0.000 OA
BRANCH   7   9
ATOM      9  O   UNL     1       4.167   1.758  18.065  0.00  0.00    +0.000 OA
ATOM     10  H   UNL     1       3.622   0.948  18.217  0.00  0.00    +0.000 HD
ENDBRANCH   7   9
ENDBRANCH   6   7
BRANCH   1  11
ATOM     11  O   UNL     1       4.352   4.524  16.787  0.00  0.00    +0.000 OA
BRANCH  11  12
ATOM     12  C   UNL     1       5.133   5.625  16.232  0.00  0.00    +0.000 C 
BRANCH  12  13
ATOM     13  C   UNL     1       6.300   5.989  17.151  0.00  0.00    +0.000 A 
ATOM     14  C   UNL     1       6.864   5.075  18.056  0.00  0.00    +0.000 A 
ATOM     15  C   UNL     1       7.850   5.490  18.960  0.00  0.00    +0.000 A 
ATOM     16  C   UNL     1       8.297   6.810  18.954  0.00  0.00    +0.000 A 
ATOM     17  C   UNL     1       7.788   7.712  18.026  0.00  0.00    +0.000 A 
ATOM     18  C   UNL     1       6.808   7.301  17.125  0.00  0.00    +0.000 A 
ENDBRANCH  12  13
BRANCH  12  19
ATOM     19  C   UNL     1       5.711   5.296  14.812  0.00  0.00    +0.000 C 
BRANCH  19  20
ATOM     20  C   UNL     1       5.555   3.913  14.179  0.00  0.00    +0.000 C 
BRANCH  20  22
ATOM     21  O   UNL     1       7.143   4.458  12.480  0.00  0.00    +0.000 OA
ATOM     22  C   UNL     1       6.303   3.672  12.899  0.00  0.00    +0.000 C 
BRANCH  22  23
ATOM     23  O   UNL     1       6.007   2.527  12.251  0.00  0.00    +0.000 OA
ATOM     24  H   UNL     1       5.529   1.843  12.758  0.00  0.00    +0.000 HD
ENDBRANCH  22  23
ENDBRANCH  20  22
ENDBRANCH  19  20
ENDBRANCH  12  19
ENDBRANCH  11  12
ENDBRANCH   1  11
BRANCH   3  25
ATOM     25  O   UNL     1       2.068   7.667  19.708  0.00  0.00    +0.000 OA
BRANCH  25  26
ATOM     26  C   UNL     1       1.499   7.772  21.017  0.00  0.00    +0.000 C 
BRANCH  26  27
ATOM     27  C   UNL     1       0.685   9.031  21.210  0.00  0.00    +0.000 A 
ATOM     28  C   UNL     1       0.291   9.485  22.474  0.00  0.00    +0.000 A 
ATOM     29  C   UNL     1      -0.500  10.629  22.598  0.00  0.00    +0.000 A 
ATOM     30  C   UNL     1      -0.906  11.326  21.462  0.00  0.00    +0.000 A 
ATOM     31  C   UNL     1      -0.511  10.896  20.198  0.00  0.00    +0.000 A 
ATOM     32  C   UNL     1       0.282   9.754  20.074  0.00  0.00    +0.000 A 
ENDBRANCH  26  27
ENDBRANCH  25  26
ENDBRANCH   3  25
TORSDOF 12
ENDMDL
MODEL 9
REMARK VINA RESULT:      -7.9      3.231      7.443
REMARK  Name = 
REMARK  12 active torsions:
REMARK  status: ('A' for Active; 'I' for Inactive)
REMARK    1  A    between atoms: C_2  and  O_3
REMARK    2  A    between atoms: C_2  and  C_4
REMARK    3  A    between atoms: C_4  and  C_5
REMARK    4  A    between atoms: C_5  and  C_6
REMARK    5  A    between atoms: C_6  and  O_7
REMARK    6  A    between atoms: C_6  and  C_25
REMARK    7  A    between atoms: O_7  and  C_8
REMARK    8  A    between atoms: C_10  and  O_11
REMARK    9  A    between atoms: O_11  and  C_12
REMARK   10  A    between atoms: C_12  and  C_13
REMARK   11  A    between atoms: C_21  and  C_22
REMARK   12  A    between atoms: C_22  and  O_24
REMARK                            x       y       z     vdW  Elec       q    Type
REMARK                         _______ _______ _______ _____ _____    ______ ____
ROOT
ATOM      1  C   UNL     1       3.348   4.595  17.763  0.00  0.00    +0.000 A 
ATOM      2  C   UNL     1       3.030   5.913  18.109  0.00  0.00    +0.000 A 
ATOM      3  C   UNL     1       2.405   6.227  19.337  0.00  0.00    +0.000 A 
ATOM      4  C   UNL     1       1.985   5.197  20.181  0.00  0.00    +0.000 A 
ATOM      5  C   UNL     1       2.381   3.905  19.902  0.00  0.00    +0.000 A 
ATOM      6  C   UNL     1       3.176   3.638  18.757  0.00  0.00    +0.000 A 
ENDROOT
BRANCH   6   7
ATOM      7  C   UNL     1       3.956   2.399  18.762  0.00  0.00    +0.000 C 
ATOM      8  O   UNL     1       3.624   1.425  18.098  0.00  0.00    +0.000 OA
BRANCH   7   9
ATOM      9  O   UNL     1       5.055   2.394  19.547  0.00  0.00    +0.000 OA
ATOM     10  H   UNL     1       5.788   2.995  19.270  0.00  0.00    +0.000 HD
ENDBRANCH   7   9
ENDBRANCH   6   7
BRANCH   1  11
ATOM     11  O   UNL     1       3.908   4.351  16.522  0.00  0.00    +0.000 OA
BRANCH  11  12
ATOM     12  C   UNL     1       5.352   4.144  16.463  0.00  0.00    +0.000 C 
BRANCH  12  13
ATOM     13  C   UNL     1       5.861   4.224  15.023  0.00  0.00    +0.000 A 
ATOM     14  C   UNL     1       5.243   3.538  13.964  0.00  0.00    +0.000 A 
ATOM     15  C   UNL     1       5.817   3.546  12.686  0.00  0.00    +0.000 A 
ATOM     16  C   UNL     1       6.994   4.254  12.448  0.00  0.00    +0.000 A 
ATOM     17  C   UNL     1       7.584   4.984  13.474  0.00  0.00    +0.000 A 
ATOM     18  C   UNL     1       7.015   4.979  14.745  0.00  0.00    +0.000 A 
ENDBRANCH  12  13
BRANCH  12  19
ATOM     19  C   UNL     1       6.144   5.191  17.321  0.00  0.00    +0.000 C 
BRANCH  19  20
ATOM     20  C   UNL     1       7.274   4.772  18.263  0.00  0.00    +0.000 C 
BRANCH  20  22
ATOM     21  O   UNL     1       8.131   6.953  18.726  0.00  0.00    +0.000 OA
ATOM     22  C   UNL     1       7.839   5.843  19.151  0.00  0.00    +0.000 C 
BRANCH  22  23
ATOM     23  O   UNL     1       7.987   5.512  20.451  0.00  0.00    +0.000 OA
ATOM     24  H   UNL     1       8.658   6.006  20.959  0.00  0.00    +0.000 HD
ENDBRANCH  22  23
ENDBRANCH  20  22
ENDBRANCH  19  20
ENDBRANCH  12  19
ENDBRANCH  11  12
ENDBRANCH   1  11
BRANCH   3  25
ATOM     25  O   UNL     1       2.207   7.501  19.812  0.00  0.00    +0.000 OA
BRANCH  25  26
ATOM     26  C   UNL     1       1.505   7.587  21.056  0.00  0.00    +0.000 C 
BRANCH  26  27
ATOM     27  C   UNL     1       0.736   8.878  21.213  0.00  0.00    +0.000 A 
ATOM     28  C   UNL     1       0.260   9.323  22.453  0.00  0.00    +0.000 A 
ATOM     29  C   UNL     1      -0.486  10.500  22.541  0.00  0.00    +0.000 A 
ATOM     30  C   UNL     1      -0.765  11.240  21.393  0.00  0.00    +0.000 A 
ATOM     31  C   UNL     1      -0.286  10.819  20.156  0.00  0.00    +0.000 A 
ATOM     32  C   UNL     1       0.461   9.644  20.068  0.00  0.00    +0.000 A 
ENDBRANCH  26  27
ENDBRANCH  25  26
ENDBRANCH   3  25
TORSDOF 12
ENDMDL
