MODEL 1
REMARK VINA RESULT:      -8.4      0.000      0.000
REMARK  Name = 
REMARK  3 active torsions:
REMARK  status: ('A' for Active; 'I' for Inactive)
REMARK    1  A    between atoms: N_2  and  C_4
REMARK    2  A    between atoms: C_8  and  C_9
REMARK    3  A    between atoms: N_19  and  O_20
REMARK                            x       y       z     vdW  Elec       q    Type
REMARK                         _______ _______ _______ _____ _____    ______ ____
ROOT
ATOM      1  C   UNL     1       4.722   4.369  17.119  0.00  0.00    +0.000 A 
ATOM      2  N   UNL     1       3.595   3.715  16.999  0.00  0.00    +0.000 NA
ATOM      3  C   UNL     1       2.718   3.611  18.097  0.00  0.00    +0.000 A 
ATOM      4  C   UNL     1       1.753   2.601  18.088  0.00  0.00    +0.000 A 
ATOM      5  C   UNL     1       0.831   2.489  19.132  0.00  0.00    +0.000 A 
ATOM      6  C   UNL     1       0.865   3.390  20.196  0.00  0.00    +0.000 A 
ATOM      7  C   UNL     1       1.812   4.414  20.210  0.00  0.00    +0.000 A 
ATOM      8  C   UNL     1       2.727   4.529  19.158  0.00  0.00    +0.000 A 
ATOM      9  S   UNL     1       3.930   5.841  19.133  0.00  0.00    +0.000 S 
ATOM     10  C   UNL     1       5.224   4.929  18.433  0.00  0.00    +0.000 A 
ATOM     11  N   UNL     1       6.381   4.804  18.999  0.00  0.00    +0.000 NA
ENDROOT
BRANCH   1  16
ATOM     12  C   UNL     1       6.062   3.979  13.594  0.00  0.00    +0.000 A 
ATOM     13  C   UNL     1       7.198   4.799  13.622  0.00  0.00    +0.000 A 
ATOM     14  C   UNL     1       7.490   5.530  14.774  0.00  0.00    +0.000 A 
ATOM     15  C   UNL     1       6.671   5.419  15.901  0.00  0.00    +0.000 A 
ATOM     16  C   UNL     1       5.568   4.553  15.895  0.00  0.00    +0.000 A 
ATOM     17  C   UNL     1       5.245   3.849  14.728  0.00  0.00    +0.000 A 
BRANCH  12  19
ATOM     18  O   UNL     1       6.621   2.599  11.814  0.00  0.00    +0.000 OA
ATOM     19  N   UNL     1       5.725   3.259  12.359  0.00  0.00    +0.000 N 
ATOM     20  O   UNL     1       4.567   3.361  11.928  0.00  0.00    +0.000 OA
ENDBRANCH  12  19
ENDBRANCH   1  16
BRANCH  11  21
ATOM     21  O   UNL     1       7.240   3.977  18.268  0.00  0.00    +0.000 OA
ATOM     22  H   UNL     1       7.328   3.198  18.851  0.00  0.00    +0.000 HD
ENDBRANCH  11  21
TORSDOF 3
ENDMDL
MODEL 2
REMARK VINA RESULT:      -8.3      1.296      1.655
REMARK  Name = 
REMARK  3 active torsions:
REMARK  status: ('A' for Active; 'I' for Inactive)
REMARK    1  A    between atoms: N_2  and  C_4
REMARK    2  A    between atoms: C_8  and  C_9
REMARK    3  A    between atoms: N_19  and  O_20
REMARK                            x       y       z     vdW  Elec       q    Type
REMARK                         _______ _______ _______ _____ _____    ______ ____
ROOT
ATOM      1  C   UNL     1       5.440   4.744  15.990  0.00  0.00    +0.000 A 
ATOM      2  N   UNL     1       4.221   4.320  16.207  0.00  0.00    +0.000 NA
ATOM      3  C   UNL     1       3.590   4.581  17.440  0.00  0.00    +0.000 A 
ATOM      4  C   UNL     1       2.492   3.799  17.807  0.00  0.00    +0.000 A 
ATOM      5  C   UNL     1       1.805   4.052  18.998  0.00  0.00    +0.000 A 
ATOM      6  C   UNL     1       2.211   5.094  19.832  0.00  0.00    +0.000 A 
ATOM      7  C   UNL     1       3.294   5.893  19.469  0.00  0.00    +0.000 A 
ATOM      8  C   UNL     1       3.973   5.644  18.272  0.00  0.00    +0.000 A 
ATOM      9  S   UNL     1       5.342   6.664  17.768  0.00  0.00    +0.000 S 
ATOM     10  C   UNL     1       6.292   5.405  17.053  0.00  0.00    +0.000 A 
ATOM     11  N   UNL     1       7.505   5.147  17.420  0.00  0.00    +0.000 NA
ENDROOT
BRANCH   1  16
ATOM     12  C   UNL     1       6.002   3.404  12.489  0.00  0.00    +0.000 A 
ATOM     13  C   UNL     1       7.170   4.077  12.104  0.00  0.00    +0.000 A 
ATOM     14  C   UNL     1       7.737   5.017  12.965  0.00  0.00    +0.000 A 
ATOM     15  C   UNL     1       7.161   5.261  14.214  0.00  0.00    +0.000 A 
ATOM     16  C   UNL     1       6.027   4.546  14.625  0.00  0.00    +0.000 A 
ATOM     17  C   UNL     1       5.428   3.631  13.749  0.00  0.00    +0.000 A 
BRANCH  12  19
ATOM     18  O   UNL     1       6.018   1.451  11.236  0.00  0.00    +0.000 OA
ATOM     19  N   UNL     1       5.374   2.461  11.554  0.00  0.00    +0.000 N 
ATOM     20  O   UNL     1       4.242   2.734  11.131  0.00  0.00    +0.000 OA
ENDBRANCH  12  19
ENDBRANCH   1  16
BRANCH  11  21
ATOM     21  O   UNL     1       8.044   4.053  16.734  0.00  0.00    +0.000 OA
ATOM     22  H   UNL     1       8.512   4.482  15.990  0.00  0.00    +0.000 HD
ENDBRANCH  11  21
TORSDOF 3
ENDMDL
MODEL 3
REMARK VINA RESULT:      -8.3      2.929      6.611
REMARK  Name = 
REMARK  3 active torsions:
REMARK  status: ('A' for Active; 'I' for Inactive)
REMARK    1  A    between atoms: N_2  and  C_4
REMARK    2  A    between atoms: C_8  and  C_9
REMARK    3  A    between atoms: N_19  and  O_20
REMARK                            x       y       z     vdW  Elec       q    Type
REMARK                         _______ _______ _______ _____ _____    ______ ____
ROOT
ATOM      1  C   UNL     1       4.649   4.392  16.580  0.00  0.00    +0.000 A 
ATOM      2  N   UNL     1       4.787   3.747  15.450  0.00  0.00    +0.000 NA
ATOM      3  C   UNL     1       5.760   4.155  14.516  0.00  0.00    +0.000 A 
ATOM      4  C   UNL     1       5.628   3.741  13.189  0.00  0.00    +0.000 A 
ATOM      5  C   UNL     1       6.595   4.081  12.238  0.00  0.00    +0.000 A 
ATOM      6  C   UNL     1       7.705   4.838  12.609  0.00  0.00    +0.000 A 
ATOM      7  C   UNL     1       7.859   5.243  13.934  0.00  0.00    +0.000 A 
ATOM      8  C   UNL     1       6.895   4.893  14.885  0.00  0.00    +0.000 A 
ATOM      9  S   UNL     1       7.077   5.372  16.590  0.00  0.00    +0.000 S 
ATOM     10  C   UNL     1       5.401   5.666  16.907  0.00  0.00    +0.000 A 
ATOM     11  N   UNL     1       4.957   6.798  17.348  0.00  0.00    +0.000 NA
ENDROOT
BRANCH   1  16
ATOM     12  C   UNL     1       3.276   2.811  19.739  0.00  0.00    +0.000 A 
ATOM     13  C   UNL     1       1.904   2.741  19.458  0.00  0.00    +0.000 A 
ATOM     14  C   UNL     1       1.421   3.270  18.261  0.00  0.00    +0.000 A 
ATOM     15  C   UNL     1       2.304   3.837  17.337  0.00  0.00    +0.000 A 
ATOM     16  C   UNL     1       3.683   3.853  17.591  0.00  0.00    +0.000 A 
ATOM     17  C   UNL     1       4.170   3.362  18.809  0.00  0.00    +0.000 A 
BRANCH  12  19
ATOM     18  O   UNL     1       3.007   2.364  22.001  0.00  0.00    +0.000 OA
ATOM     19  N   UNL     1       3.771   2.308  21.027  0.00  0.00    +0.000 N 
ATOM     20  O   UNL     1       4.929   1.865  21.068  0.00  0.00    +0.000 OA
ENDBRANCH  12  19
ENDBRANCH   1  16
BRANCH  11  21
ATOM     21  O   UNL     1       3.564   6.808  17.475  0.00  0.00    +0.000 OA
ATOM     22  H   UNL     1       3.371   7.759  17.592  0.00  0.00    +0.000 HD
ENDBRANCH  11  21
TORSDOF 3
ENDMDL
MODEL 4
REMARK VINA RESULT:      -7.9      1.810      2.138
REMARK  Name = 
REMARK  3 active torsions:
REMARK  status: ('A' for Active; 'I' for Inactive)
REMARK    1  A    between atoms: N_2  and  C_4
REMARK    2  A    between atoms: C_8  and  C_9
REMARK    3  A    between atoms: N_19  and  O_20
REMARK                            x       y       z     vdW  Elec       q    Type
REMARK                         _______ _______ _______ _____ _____    ______ ____
ROOT
ATOM      1  C   UNL     1       4.237   4.476  17.654  0.00  0.00    +0.000 A 
ATOM      2  N   UNL     1       4.358   3.526  18.545  0.00  0.00    +0.000 NA
ATOM      3  C   UNL     1       3.342   3.318  19.499  0.00  0.00    +0.000 A 
ATOM      4  C   UNL     1       3.651   2.606  20.660  0.00  0.00    +0.000 A 
ATOM      5  C   UNL     1       2.665   2.333  21.612  0.00  0.00    +0.000 A 
ATOM      6  C   UNL     1       1.357   2.771  21.409  0.00  0.00    +0.000 A 
ATOM      7  C   UNL     1       1.030   3.468  20.246  0.00  0.00    +0.000 A 
ATOM      8  C   UNL     1       2.017   3.730  19.291  0.00  0.00    +0.000 A 
ATOM      9  S   UNL     1       1.625   4.593  17.784  0.00  0.00    +0.000 S 
ATOM     10  C   UNL     1       3.105   5.482  17.658  0.00  0.00    +0.000 A 
ATOM     11  N   UNL     1       3.144   6.773  17.582  0.00  0.00    +0.000 NA
ENDROOT
BRANCH   1  16
ATOM     12  C   UNL     1       6.002   4.156  14.314  0.00  0.00    +0.000 A 
ATOM     13  C   UNL     1       7.268   4.682  14.602  0.00  0.00    +0.000 A 
ATOM     14  C   UNL     1       7.524   5.201  15.871  0.00  0.00    +0.000 A 
ATOM     15  C   UNL     1       6.533   5.166  16.856  0.00  0.00    +0.000 A 
ATOM     16  C   UNL     1       5.285   4.586  16.587  0.00  0.00    +0.000 A 
ATOM     17  C   UNL     1       5.007   4.102  15.303  0.00  0.00    +0.000 A 
BRANCH  12  19
ATOM     18  O   UNL     1       4.536   3.662  12.583  0.00  0.00    +0.000 OA
ATOM     19  N   UNL     1       5.717   3.667  12.958  0.00  0.00    +0.000 N 
ATOM     20  O   UNL     1       6.674   3.281  12.270  0.00  0.00    +0.000 OA
ENDBRANCH  12  19
ENDBRANCH   1  16
BRANCH  11  21
ATOM     21  O   UNL     1       4.455   7.261  17.542  0.00  0.00    +0.000 OA
ATOM     22  H   UNL     1       4.760   7.118  18.460  0.00  0.00    +0.000 HD
ENDBRANCH  11  21
TORSDOF 3
ENDMDL
MODEL 5
REMARK VINA RESULT:      -7.6      3.098      6.754
REMARK  Name = 
REMARK  3 active torsions:
REMARK  status: ('A' for Active; 'I' for Inactive)
REMARK    1  A    between atoms: N_2  and  C_4
REMARK    2  A    between atoms: C_8  and  C_9
REMARK    3  A    between atoms: N_19  and  O_20
REMARK                            x       y       z     vdW  Elec       q    Type
REMARK                         _______ _______ _______ _____ _____    ______ ____
ROOT
ATOM      1  C   UNL     1       3.928   4.480  17.306  0.00  0.00    +0.000 A 
ATOM      2  N   UNL     1       4.248   3.830  16.217  0.00  0.00    +0.000 NA
ATOM      3  C   UNL     1       5.347   4.248  15.440  0.00  0.00    +0.000 A 
ATOM      4  C   UNL     1       5.427   3.823  14.112  0.00  0.00    +0.000 A 
ATOM      5  C   UNL     1       6.522   4.173  13.317  0.00  0.00    +0.000 A 
ATOM      6  C   UNL     1       7.550   4.952  13.846  0.00  0.00    +0.000 A 
ATOM      7  C   UNL     1       7.492   5.370  15.176  0.00  0.00    +0.000 A 
ATOM      8  C   UNL     1       6.399   5.009  15.971  0.00  0.00    +0.000 A 
ATOM      9  S   UNL     1       6.309   5.503  17.679  0.00  0.00    +0.000 S 
ATOM     10  C   UNL     1       4.599   5.769  17.733  0.00  0.00    +0.000 A 
ATOM     11  N   UNL     1       4.075   6.897  18.089  0.00  0.00    +0.000 NA
ENDROOT
BRANCH   1  16
ATOM     12  C   UNL     1       2.102   2.958  20.259  0.00  0.00    +0.000 A 
ATOM     13  C   UNL     1       0.806   2.801  19.750  0.00  0.00    +0.000 A 
ATOM     14  C   UNL     1       0.514   3.253  18.462  0.00  0.00    +0.000 A 
ATOM     15  C   UNL     1       1.516   3.828  17.677  0.00  0.00    +0.000 A 
ATOM     16  C   UNL     1       2.827   3.931  18.162  0.00  0.00    +0.000 A 
ATOM     17  C   UNL     1       3.117   3.519  19.469  0.00  0.00    +0.000 A 
BRANCH  12  19
ATOM     18  O   UNL     1       1.466   2.596  22.461  0.00  0.00    +0.000 OA
ATOM     19  N   UNL     1       2.389   2.538  21.637  0.00  0.00    +0.000 N 
ATOM     20  O   UNL     1       3.540   2.158  21.897  0.00  0.00    +0.000 OA
ENDBRANCH  12  19
ENDBRANCH   1  16
BRANCH  11  21
ATOM     21  O   UNL     1       2.679   6.883  18.001  0.00  0.00    +0.000 OA
ATOM     22  H   UNL     1       2.422   6.417  18.821  0.00  0.00    +0.000 HD
ENDBRANCH  11  21
TORSDOF 3
ENDMDL
MODEL 6
REMARK VINA RESULT:      -7.6      3.291      4.056
REMARK  Name = 
REMARK  3 active torsions:
REMARK  status: ('A' for Active; 'I' for Inactive)
REMARK    1  A    between atoms: N_2  and  C_4
REMARK    2  A    between atoms: C_8  and  C_9
REMARK    3  A    between atoms: N_19  and  O_20
REMARK                            x       y       z     vdW  Elec       q    Type
REMARK                         _______ _______ _______ _____ _____    ______ ____
ROOT
ATOM      1  C   UNL     1       3.761   6.403  18.079  0.00  0.00    +0.000 A 
ATOM      2  N   UNL     1       3.557   7.666  17.805  0.00  0.00    +0.000 NA
ATOM      3  C   UNL     1       2.453   8.341  18.364  0.00  0.00    +0.000 A 
ATOM      4  C   UNL     1       2.021   9.526  17.763  0.00  0.00    +0.000 A 
ATOM      5  C   UNL     1       0.961  10.255  18.310  0.00  0.00    +0.000 A 
ATOM      6  C   UNL     1       0.325   9.805  19.466  0.00  0.00    +0.000 A 
ATOM      7  C   UNL     1       0.758   8.633  20.086  0.00  0.00    +0.000 A 
ATOM      8  C   UNL     1       1.825   7.911  19.542  0.00  0.00    +0.000 A 
ATOM      9  S   UNL     1       2.418   6.427  20.326  0.00  0.00    +0.000 S 
ATOM     10  C   UNL     1       2.791   5.557  18.876  0.00  0.00    +0.000 A 
ATOM     11  N   UNL     1       2.288   4.396  18.605  0.00  0.00    +0.000 NA
ENDROOT
BRANCH   1  16
ATOM     12  C   UNL     1       6.308   4.937  15.684  0.00  0.00    +0.000 A 
ATOM     13  C   UNL     1       7.289   4.455  16.561  0.00  0.00    +0.000 A 
ATOM     14  C   UNL     1       7.148   4.667  17.933  0.00  0.00    +0.000 A 
ATOM     15  C   UNL     1       6.020   5.327  18.429  0.00  0.00    +0.000 A 
ATOM     16  C   UNL     1       5.010   5.757  17.557  0.00  0.00    +0.000 A 
ATOM     17  C   UNL     1       5.165   5.585  16.176  0.00  0.00    +0.000 A 
BRANCH  12  19
ATOM     18  O   UNL     1       5.743   3.970  13.652  0.00  0.00    +0.000 OA
ATOM     19  N   UNL     1       6.491   4.765  14.237  0.00  0.00    +0.000 N 
ATOM     20  O   UNL     1       7.389   5.419  13.686  0.00  0.00    +0.000 OA
ENDBRANCH  12  19
ENDBRANCH   1  16
BRANCH  11  21
ATOM     21  O   UNL     1       2.697   3.921  17.355  0.00  0.00    +0.000 OA
ATOM     22  H   UNL     1       2.560   4.700  16.780  0.00  0.00    +0.000 HD
ENDBRANCH  11  21
TORSDOF 3
ENDMDL
MODEL 7
REMARK VINA RESULT:      -7.5      3.500      5.086
REMARK  Name = 
REMARK  3 active torsions:
REMARK  status: ('A' for Active; 'I' for Inactive)
REMARK    1  A    between atoms: N_2  and  C_4
REMARK    2  A    between atoms: C_8  and  C_9
REMARK    3  A    between atoms: N_19  and  O_20
REMARK                            x       y       z     vdW  Elec       q    Type
REMARK                         _______ _______ _______ _____ _____    ______ ____
ROOT
ATOM      1  C   UNL     1       3.275   6.908  18.126  0.00  0.00    +0.000 A 
ATOM      2  N   UNL     1       2.958   8.154  17.883  0.00  0.00    +0.000 NA
ATOM      3  C   UNL     1       1.895   8.762  18.581  0.00  0.00    +0.000 A 
ATOM      4  C   UNL     1       1.315   9.913  18.043  0.00  0.00    +0.000 A 
ATOM      5  C   UNL     1       0.291  10.579  18.723  0.00  0.00    +0.000 A 
ATOM      6  C   UNL     1      -0.160  10.098  19.952  0.00  0.00    +0.000 A 
ATOM      7  C   UNL     1       0.422   8.960  20.509  0.00  0.00    +0.000 A 
ATOM      8  C   UNL     1       1.453   8.302  19.831  0.00  0.00    +0.000 A 
ATOM      9  S   UNL     1       2.235   6.864  20.529  0.00  0.00    +0.000 S 
ATOM     10  C   UNL     1       2.471   6.009  19.042  0.00  0.00    +0.000 A 
ATOM     11  N   UNL     1       2.012   4.817  18.837  0.00  0.00    +0.000 NA
ENDROOT
BRANCH   1  16
ATOM     12  C   UNL     1       6.698   5.368  17.595  0.00  0.00    +0.000 A 
ATOM     13  C   UNL     1       6.802   5.365  16.198  0.00  0.00    +0.000 A 
ATOM     14  C   UNL     1       5.726   5.806  15.428  0.00  0.00    +0.000 A 
ATOM     15  C   UNL     1       4.566   6.278  16.048  0.00  0.00    +0.000 A 
ATOM     16  C   UNL     1       4.484   6.338  17.446  0.00  0.00    +0.000 A 
ATOM     17  C   UNL     1       5.543   5.857  18.226  0.00  0.00    +0.000 A 
BRANCH  12  19
ATOM     18  O   UNL     1       7.921   5.255  19.564  0.00  0.00    +0.000 OA
ATOM     19  N   UNL     1       7.810   4.845  18.400  0.00  0.00    +0.000 N 
ATOM     20  O   UNL     1       8.576   4.030  17.867  0.00  0.00    +0.000 OA
ENDBRANCH  12  19
ENDBRANCH   1  16
BRANCH  11  21
ATOM     21  O   UNL     1       2.285   4.360  17.543  0.00  0.00    +0.000 OA
ATOM     22  H   UNL     1       1.428   3.976  17.271  0.00  0.00    +0.000 HD
ENDBRANCH  11  21
TORSDOF 3
ENDMDL
MODEL 8
REMARK VINA RESULT:      -7.5      4.481      6.380
REMARK  Name = 
REMARK  3 active torsions:
REMARK  status: ('A' for Active; 'I' for Inactive)
REMARK    1  A    between atoms: N_2  and  C_4
REMARK    2  A    between atoms: C_8  and  C_9
REMARK    3  A    between atoms: N_19  and  O_20
REMARK                            x       y       z     vdW  Elec       q    Type
REMARK                         _______ _______ _______ _____ _____    ______ ____
ROOT
ATOM      1  C   UNL     1       2.223   6.694  19.213  0.00  0.00    +0.000 A 
ATOM      2  N   UNL     1       1.670   7.079  20.334  0.00  0.00    +0.000 NA
ATOM      3  C   UNL     1       1.365   8.439  20.542  0.00  0.00    +0.000 A 
ATOM      4  C   UNL     1       1.166   8.887  21.850  0.00  0.00    +0.000 A 
ATOM      5  C   UNL     1       0.814  10.216  22.101  0.00  0.00    +0.000 A 
ATOM      6  C   UNL     1       0.655  11.110  21.043  0.00  0.00    +0.000 A 
ATOM      7  C   UNL     1       0.833  10.672  19.731  0.00  0.00    +0.000 A 
ATOM      8  C   UNL     1       1.175   9.339  19.482  0.00  0.00    +0.000 A 
ATOM      9  S   UNL     1       1.382   8.744  17.818  0.00  0.00    +0.000 S 
ATOM     10  C   UNL     1       2.691   7.658  18.142  0.00  0.00    +0.000 A 
ATOM     11  N   UNL     1       3.829   7.727  17.531  0.00  0.00    +0.000 NA
ENDROOT
BRANCH   1  16
ATOM     12  C   UNL     1       3.281   3.095  19.758  0.00  0.00    +0.000 A 
ATOM     13  C   UNL     1       2.906   2.495  18.548  0.00  0.00    +0.000 A 
ATOM     14  C   UNL     1       2.248   3.254  17.580  0.00  0.00    +0.000 A 
ATOM     15  C   UNL     1       1.995   4.610  17.803  0.00  0.00    +0.000 A 
ATOM     16  C   UNL     1       2.423   5.225  18.988  0.00  0.00    +0.000 A 
ATOM     17  C   UNL     1       3.046   4.460  19.983  0.00  0.00    +0.000 A 
BRANCH  12  19
ATOM     18  O   UNL     1       5.022   1.778  20.545  0.00  0.00    +0.000 OA
ATOM     19  N   UNL     1       3.917   2.277  20.799  0.00  0.00    +0.000 N 
ATOM     20  O   UNL     1       3.308   2.126  21.868  0.00  0.00    +0.000 OA
ENDBRANCH  12  19
ENDBRANCH   1  16
BRANCH  11  21
ATOM     21  O   UNL     1       4.742   6.778  18.003  0.00  0.00    +0.000 OA
ATOM     22  H   UNL     1       4.496   5.980  17.494  0.00  0.00    +0.000 HD
ENDBRANCH  11  21
TORSDOF 3
ENDMDL
MODEL 9
REMARK VINA RESULT:      -7.5      1.676      1.891
REMARK  Name = 
REMARK  3 active torsions:
REMARK  status: ('A' for Active; 'I' for Inactive)
REMARK    1  A    between atoms: N_2  and  C_4
REMARK    2  A    between atoms: C_8  and  C_9
REMARK    3  A    between atoms: N_19  and  O_20
REMARK                            x       y       z     vdW  Elec       q    Type
REMARK                         _______ _______ _______ _____ _____    ______ ____
ROOT
ATOM      1  C   UNL     1       5.399   4.902  16.091  0.00  0.00    +0.000 A 
ATOM      2  N   UNL     1       4.835   3.901  16.715  0.00  0.00    +0.000 NA
ATOM      3  C   UNL     1       4.193   4.110  17.952  0.00  0.00    +0.000 A 
ATOM      4  C   UNL     1       3.965   3.009  18.782  0.00  0.00    +0.000 A 
ATOM      5  C   UNL     1       3.289   3.160  19.996  0.00  0.00    +0.000 A 
ATOM      6  C   UNL     1       2.833   4.417  20.390  0.00  0.00    +0.000 A 
ATOM      7  C   UNL     1       3.038   5.522  19.564  0.00  0.00    +0.000 A 
ATOM      8  C   UNL     1       3.705   5.366  18.346  0.00  0.00    +0.000 A 
ATOM      9  S   UNL     1       3.958   6.751  17.257  0.00  0.00    +0.000 S 
ATOM     10  C   UNL     1       5.526   6.289  16.687  0.00  0.00    +0.000 A 
ATOM     11  N   UNL     1       6.564   7.054  16.788  0.00  0.00    +0.000 NA
ENDROOT
BRANCH   1  16
ATOM     12  C   UNL     1       5.832   3.545  12.578  0.00  0.00    +0.000 A 
ATOM     13  C   UNL     1       7.064   4.097  12.202  0.00  0.00    +0.000 A 
ATOM     14  C   UNL     1       7.722   4.965  13.074  0.00  0.00    +0.000 A 
ATOM     15  C   UNL     1       7.170   5.256  14.324  0.00  0.00    +0.000 A 
ATOM     16  C   UNL     1       5.968   4.657  14.726  0.00  0.00    +0.000 A 
ATOM     17  C   UNL     1       5.280   3.818  13.839  0.00  0.00    +0.000 A 
BRANCH  12  19
ATOM     18  O   UNL     1       5.624   1.588  11.348  0.00  0.00    +0.000 OA
ATOM     19  N   UNL     1       5.113   2.680  11.633  0.00  0.00    +0.000 N 
ATOM     20  O   UNL     1       4.042   3.097  11.168  0.00  0.00    +0.000 OA
ENDBRANCH  12  19
ENDBRANCH   1  16
BRANCH  11  21
ATOM     21  O   UNL     1       7.724   6.440  16.305  0.00  0.00    +0.000 OA
ATOM     22  H   UNL     1       8.431   6.989  16.699  0.00  0.00    +0.000 HD
ENDBRANCH  11  21
TORSDOF 3
ENDMDL
