MODEL 1
REMARK VINA RESULT:      -6.8      0.000      0.000
REMARK  Name = 
REMARK  8 active torsions:
REMARK  status: ('A' for Active; 'I' for Inactive)
REMARK    1  A    between atoms: C_1  and  C_2
REMARK    2  A    between atoms: C_2  and  C_4
REMARK    3  A    between atoms: C_9  and  O_10
REMARK    4  A    between atoms: O_10  and  C_11
REMARK    5  A    between atoms: C_11  and  C_12
REMARK    6  A    between atoms: C_12  and  O_13
REMARK    7  A    between atoms: C_12  and  C_14
REMARK    8  A    between atoms: C_14  and  N_15
REMARK                            x       y       z     vdW  Elec       q    Type
REMARK                         _______ _______ _______ _____ _____    ______ ____
ROOT
ATOM      1  C   UNL     1       3.402   6.063  19.096  0.00  0.00    +0.000 C 
ENDROOT
BRANCH   1   2
ATOM      2  O   UNL     1       4.739   5.519  19.203  0.00  0.00    +0.000 OA
BRANCH   2   8
ATOM      3  C   UNL     1       6.702   5.383  17.763  0.00  0.00    +0.000 A 
ATOM      4  C   UNL     1       7.234   4.975  16.511  0.00  0.00    +0.000 A 
ATOM      5  C   UNL     1       6.448   4.395  15.518  0.00  0.00    +0.000 A 
ATOM      6  C   UNL     1       5.098   4.210  15.749  0.00  0.00    +0.000 A 
ATOM      7  C   UNL     1       4.548   4.599  16.970  0.00  0.00    +0.000 A 
ATOM      8  C   UNL     1       5.328   5.160  18.006  0.00  0.00    +0.000 A 
BRANCH   3  10
ATOM      9  C   UNL     1       8.213   7.427  18.466  0.00  0.00    +0.000 C 
ATOM     10  C   UNL     1       7.721   6.024  18.668  0.00  0.00    +0.000 C 
ATOM     11  O   UNL     1       8.203   5.365  19.591  0.00  0.00    +0.000 OA
ENDBRANCH   3  10
ENDBRANCH   2   8
ENDBRANCH   1   2
BRANCH   1  12
ATOM     12  C   UNL     1       2.428   5.457  20.123  0.00  0.00    +0.000 C 
BRANCH  12  13
ATOM     13  O   UNL     1       1.797   6.499  20.866  0.00  0.00    +0.000 OA
ATOM     14  H   UNL     1       1.831   7.303  20.319  0.00  0.00    +0.000 HD
ENDBRANCH  12  13
BRANCH  12  15
ATOM     15  C   UNL     1       1.410   4.525  19.416  0.00  0.00    +0.000 C 
BRANCH  15  16
ATOM     16  N   UNL     1       1.341   3.141  19.921  0.00  0.00    +0.000 NA
ATOM     17  C   UNL     1       2.532   2.705  20.684  0.00  0.00    +0.000 C 
ATOM     18  C   UNL     1       3.771   2.382  19.824  0.00  0.00    +0.000 C 
ATOM     19  O   UNL     1       3.470   1.440  18.788  0.00  0.00    +0.000 OA
ATOM     20  C   UNL     1       2.394   1.912  17.971  0.00  0.00    +0.000 C 
ATOM     21  C   UNL     1       1.133   2.180  18.811  0.00  0.00    +0.000 C 
ENDBRANCH  15  16
ENDBRANCH  12  15
ENDBRANCH   1  12
TORSDOF 7
ENDMDL
MODEL 2
REMARK VINA RESULT:      -6.6      1.635      3.765
REMARK  Name = 
REMARK  8 active torsions:
REMARK  status: ('A' for Active; 'I' for Inactive)
REMARK    1  A    between atoms: C_1  and  C_2
REMARK    2  A    between atoms: C_2  and  C_4
REMARK    3  A    between atoms: C_9  and  O_10
REMARK    4  A    between atoms: O_10  and  C_11
REMARK    5  A    between atoms: C_11  and  C_12
REMARK    6  A    between atoms: C_12  and  O_13
REMARK    7  A    between atoms: C_12  and  C_14
REMARK    8  A    between atoms: C_14  and  N_15
REMARK                            x       y       z     vdW  Elec       q    Type
REMARK                         _______ _______ _______ _____ _____    ______ ____
ROOT
ATOM      1  C   UNL     1       4.490   2.932  17.379  0.00  0.00    +0.000 C 
ENDROOT
BRANCH   1   2
ATOM      2  O   UNL     1       4.302   4.295  17.826  0.00  0.00    +0.000 OA
BRANCH   2   8
ATOM      3  C   UNL     1       6.019   5.775  16.930  0.00  0.00    +0.000 A 
ATOM      4  C   UNL     1       7.208   6.511  17.183  0.00  0.00    +0.000 A 
ATOM      5  C   UNL     1       7.846   6.497  18.420  0.00  0.00    +0.000 A 
ATOM      6  C   UNL     1       7.314   5.737  19.445  0.00  0.00    +0.000 A 
ATOM      7  C   UNL     1       6.147   5.006  19.226  0.00  0.00    +0.000 A 
ATOM      8  C   UNL     1       5.462   5.028  17.991  0.00  0.00    +0.000 A 
BRANCH   3  10
ATOM      9  C   UNL     1       5.605   4.775  14.525  0.00  0.00    +0.000 C 
ATOM     10  C   UNL     1       5.526   5.901  15.512  0.00  0.00    +0.000 C 
ATOM     11  O   UNL     1       5.072   6.981  15.129  0.00  0.00    +0.000 OA
ENDBRANCH   3  10
ENDBRANCH   2   8
ENDBRANCH   1   2
BRANCH   1  12
ATOM     12  C   UNL     1       3.722   1.911  18.239  0.00  0.00    +0.000 C 
BRANCH  12  13
ATOM     13  O   UNL     1       4.307   0.618  18.094  0.00  0.00    +0.000 OA
ATOM     14  H   UNL     1       5.215   0.673  18.439  0.00  0.00    +0.000 HD
ENDBRANCH  12  13
BRANCH  12  15
ATOM     15  C   UNL     1       3.669   2.382  19.716  0.00  0.00    +0.000 C 
BRANCH  15  16
ATOM     16  N   UNL     1       2.351   2.302  20.374  0.00  0.00    +0.000 NA
ATOM     17  C   UNL     1       1.209   2.673  19.507  0.00  0.00    +0.000 C 
ATOM     18  C   UNL     1       1.049   4.186  19.258  0.00  0.00    +0.000 C 
ATOM     19  O   UNL     1       1.007   4.928  20.482  0.00  0.00    +0.000 OA
ATOM     20  C   UNL     1       2.170   4.664  21.274  0.00  0.00    +0.000 C 
ATOM     21  C   UNL     1       2.307   3.163  21.580  0.00  0.00    +0.000 C 
ENDBRANCH  15  16
ENDBRANCH  12  15
ENDBRANCH   1  12
TORSDOF 7
ENDMDL
MODEL 3
REMARK VINA RESULT:      -6.5      1.261      1.342
REMARK  Name = 
REMARK  8 active torsions:
REMARK  status: ('A' for Active; 'I' for Inactive)
REMARK    1  A    between atoms: C_1  and  C_2
REMARK    2  A    between atoms: C_2  and  C_4
REMARK    3  A    between atoms: C_9  and  O_10
REMARK    4  A    between atoms: O_10  and  C_11
REMARK    5  A    between atoms: C_11  and  C_12
REMARK    6  A    between atoms: C_12  and  O_13
REMARK    7  A    between atoms: C_12  and  C_14
REMARK    8  A    between atoms: C_14  and  N_15
REMARK                            x       y       z     vdW  Elec       q    Type
REMARK                         _______ _______ _______ _____ _____    ______ ____
ROOT
ATOM      1  C   UNL     1       3.443   7.317  17.612  0.00  0.00    +0.000 C 
ENDROOT
BRANCH   1   2
ATOM      2  O   UNL     1       4.874   7.414  17.421  0.00  0.00    +0.000 OA
BRANCH   2   8
ATOM      3  C   UNL     1       6.486   5.586  17.392  0.00  0.00    +0.000 A 
ATOM      4  C   UNL     1       7.028   4.488  16.672  0.00  0.00    +0.000 A 
ATOM      5  C   UNL     1       6.605   4.153  15.388  0.00  0.00    +0.000 A 
ATOM      6  C   UNL     1       5.624   4.915  14.782  0.00  0.00    +0.000 A 
ATOM      7  C   UNL     1       5.071   5.998  15.465  0.00  0.00    +0.000 A 
ATOM      8  C   UNL     1       5.459   6.339  16.780  0.00  0.00    +0.000 A 
BRANCH   3  10
ATOM      9  C   UNL     1       8.256   6.743  18.967  0.00  0.00    +0.000 C 
ATOM     10  C   UNL     1       7.121   5.790  18.743  0.00  0.00    +0.000 C 
ATOM     11  O   UNL     1       6.721   5.124  19.700  0.00  0.00    +0.000 OA
ENDBRANCH   3  10
ENDBRANCH   2   8
ENDBRANCH   1   2
BRANCH   1  12
ATOM     12  C   UNL     1       3.057   6.369  18.762  0.00  0.00    +0.000 C 
BRANCH  12  13
ATOM     13  O   UNL     1       2.302   7.078  19.742  0.00  0.00    +0.000 OA
ATOM     14  H   UNL     1       1.391   7.147  19.408  0.00  0.00    +0.000 HD
ENDBRANCH  12  13
BRANCH  12  15
ATOM     15  C   UNL     1       2.307   5.129  18.209  0.00  0.00    +0.000 C 
BRANCH  15  16
ATOM     16  N   UNL     1       1.981   4.078  19.192  0.00  0.00    +0.000 NA
ATOM     17  C   UNL     1       3.128   3.627  20.012  0.00  0.00    +0.000 C 
ATOM     18  C   UNL     1       4.124   2.704  19.281  0.00  0.00    +0.000 C 
ATOM     19  O   UNL     1       3.468   1.582  18.679  0.00  0.00    +0.000 OA
ATOM     20  C   UNL     1       2.432   2.015  17.791  0.00  0.00    +0.000 C 
ATOM     21  C   UNL     1       1.400   2.889  18.525  0.00  0.00    +0.000 C 
ENDBRANCH  15  16
ENDBRANCH  12  15
ENDBRANCH   1  12
TORSDOF 7
ENDMDL
MODEL 4
REMARK VINA RESULT:      -6.4      1.705      2.432
REMARK  Name = 
REMARK  8 active torsions:
REMARK  status: ('A' for Active; 'I' for Inactive)
REMARK    1  A    between atoms: C_1  and  C_2
REMARK    2  A    between atoms: C_2  and  C_4
REMARK    3  A    between atoms: C_9  and  O_10
REMARK    4  A    between atoms: O_10  and  C_11
REMARK    5  A    between atoms: C_11  and  C_12
REMARK    6  A    between atoms: C_12  and  O_13
REMARK    7  A    between atoms: C_12  and  C_14
REMARK    8  A    between atoms: C_14  and  N_15
REMARK                            x       y       z     vdW  Elec       q    Type
REMARK                         _______ _______ _______ _____ _____    ______ ____
ROOT
ATOM      1  C   UNL     1       5.460   4.047  19.296  0.00  0.00    +0.000 C 
ENDROOT
BRANCH   1   2
ATOM      2  O   UNL     1       4.952   4.957  18.292  0.00  0.00    +0.000 OA
BRANCH   2   8
ATOM      3  C   UNL     1       6.663   5.682  16.714  0.00  0.00    +0.000 A 
ATOM      4  C   UNL     1       7.238   5.523  15.424  0.00  0.00    +0.000 A 
ATOM      5  C   UNL     1       6.737   4.621  14.489  0.00  0.00    +0.000 A 
ATOM      6  C   UNL     1       5.637   3.852  14.816  0.00  0.00    +0.000 A 
ATOM      7  C   UNL     1       5.052   3.984  16.075  0.00  0.00    +0.000 A 
ATOM      8  C   UNL     1       5.559   4.868  17.054  0.00  0.00    +0.000 A 
BRANCH   3  10
ATOM      9  C   UNL     1       8.021   6.437  18.844  0.00  0.00    +0.000 C 
ATOM     10  C   UNL     1       7.337   6.742  17.545  0.00  0.00    +0.000 C 
ATOM     11  O   UNL     1       7.297   7.915  17.168  0.00  0.00    +0.000 OA
ENDBRANCH   3  10
ENDBRANCH   2   8
ENDBRANCH   1   2
BRANCH   1  12
ATOM     12  C   UNL     1       4.480   2.902  19.614  0.00  0.00    +0.000 C 
BRANCH  12  13
ATOM     13  O   UNL     1       5.184   1.811  20.203  0.00  0.00    +0.000 OA
ATOM     14  H   UNL     1       5.648   2.157  20.985  0.00  0.00    +0.000 HD
ENDBRANCH  12  13
BRANCH  12  15
ATOM     15  C   UNL     1       3.320   3.417  20.505  0.00  0.00    +0.000 C 
BRANCH  15  16
ATOM     16  N   UNL     1       1.961   3.014  20.096  0.00  0.00    +0.000 NA
ATOM     17  C   UNL     1       1.920   1.937  19.080  0.00  0.00    +0.000 C 
ATOM     18  C   UNL     1       2.273   2.383  17.648  0.00  0.00    +0.000 C 
ATOM     19  O   UNL     1       1.481   3.498  17.225  0.00  0.00    +0.000 OA
ATOM     20  C   UNL     1       1.610   4.589  18.142  0.00  0.00    +0.000 C 
ATOM     21  C   UNL     1       1.202   4.172  19.565  0.00  0.00    +0.000 C 
ENDBRANCH  15  16
ENDBRANCH  12  15
ENDBRANCH   1  12
TORSDOF 7
ENDMDL
MODEL 5
REMARK VINA RESULT:      -6.4      2.308      5.729
REMARK  Name = 
REMARK  8 active torsions:
REMARK  status: ('A' for Active; 'I' for Inactive)
REMARK    1  A    between atoms: C_1  and  C_2
REMARK    2  A    between atoms: C_2  and  C_4
REMARK    3  A    between atoms: C_9  and  O_10
REMARK    4  A    between atoms: O_10  and  C_11
REMARK    5  A    between atoms: C_11  and  C_12
REMARK    6  A    between atoms: C_12  and  O_13
REMARK    7  A    between atoms: C_12  and  C_14
REMARK    8  A    between atoms: C_14  and  N_15
REMARK                            x       y       z     vdW  Elec       q    Type
REMARK                         _______ _______ _______ _____ _____    ______ ____
ROOT
ATOM      1  C   UNL     1       6.105   5.487  19.638  0.00  0.00    +0.000 C 
ENDROOT
BRANCH   1   2
ATOM      2  O   UNL     1       5.055   4.932  18.811  0.00  0.00    +0.000 OA
BRANCH   2   8
ATOM      3  C   UNL     1       3.419   3.431  19.817  0.00  0.00    +0.000 A 
ATOM      4  C   UNL     1       2.169   3.304  20.481  0.00  0.00    +0.000 A 
ATOM      5  C   UNL     1       1.352   4.399  20.751  0.00  0.00    +0.000 A 
ATOM      6  C   UNL     1       1.762   5.659  20.359  0.00  0.00    +0.000 A 
ATOM      7  C   UNL     1       2.985   5.815  19.708  0.00  0.00    +0.000 A 
ATOM      8  C   UNL     1       3.847   4.726  19.450  0.00  0.00    +0.000 A 
BRANCH   3  10
ATOM      9  C   UNL     1       3.758   1.196  18.460  0.00  0.00    +0.000 C 
ATOM     10  C   UNL     1       4.114   2.114  19.590  0.00  0.00    +0.000 C 
ATOM     11  O   UNL     1       4.986   1.752  20.383  0.00  0.00    +0.000 OA
ENDBRANCH   3  10
ENDBRANCH   2   8
ENDBRANCH   1   2
BRANCH   1  12
ATOM     12  C   UNL     1       7.467   5.534  18.921  0.00  0.00    +0.000 C 
BRANCH  12  13
ATOM     13  O   UNL     1       8.511   5.226  19.842  0.00  0.00    +0.000 OA
ATOM     14  H   UNL     1       8.640   6.010  20.403  0.00  0.00    +0.000 HD
ENDBRANCH  12  13
BRANCH  12  15
ATOM     15  C   UNL     1       7.460   4.594  17.688  0.00  0.00    +0.000 C 
BRANCH  15  16
ATOM     16  N   UNL     1       7.611   5.248  16.374  0.00  0.00    +0.000 NA
ATOM     17  C   UNL     1       6.998   6.592  16.283  0.00  0.00    +0.000 C 
ATOM     18  C   UNL     1       5.461   6.596  16.164  0.00  0.00    +0.000 C 
ATOM     19  O   UNL     1       5.006   5.767  15.089  0.00  0.00    +0.000 OA
ATOM     20  C   UNL     1       5.500   4.431  15.235  0.00  0.00    +0.000 C 
ATOM     21  C   UNL     1       7.037   4.409  15.294  0.00  0.00    +0.000 C 
ENDBRANCH  15  16
ENDBRANCH  12  15
ENDBRANCH   1  12
TORSDOF 7
ENDMDL
MODEL 6
REMARK VINA RESULT:      -6.4      2.506      5.635
REMARK  Name = 
REMARK  8 active torsions:
REMARK  status: ('A' for Active; 'I' for Inactive)
REMARK    1  A    between atoms: C_1  and  C_2
REMARK    2  A    between atoms: C_2  and  C_4
REMARK    3  A    between atoms: C_9  and  O_10
REMARK    4  A    between atoms: O_10  and  C_11
REMARK    5  A    between atoms: C_11  and  C_12
REMARK    6  A    between atoms: C_12  and  O_13
REMARK    7  A    between atoms: C_12  and  C_14
REMARK    8  A    between atoms: C_14  and  N_15
REMARK                            x       y       z     vdW  Elec       q    Type
REMARK                         _______ _______ _______ _____ _____    ______ ____
ROOT
ATOM      1  C   UNL     1       5.553   4.994  19.620  0.00  0.00    +0.000 C 
ENDROOT
BRANCH   1   2
ATOM      2  O   UNL     1       5.075   3.962  18.725  0.00  0.00    +0.000 OA
BRANCH   2   8
ATOM      3  C   UNL     1       3.025   3.069  19.695  0.00  0.00    +0.000 A 
ATOM      4  C   UNL     1       1.612   2.954  19.596  0.00  0.00    +0.000 A 
ATOM      5  C   UNL     1       0.890   3.506  18.541  0.00  0.00    +0.000 A 
ATOM      6  C   UNL     1       1.564   4.188  17.546  0.00  0.00    +0.000 A 
ATOM      7  C   UNL     1       2.950   4.319  17.618  0.00  0.00    +0.000 A 
ATOM      8  C   UNL     1       3.704   3.797  18.693  0.00  0.00    +0.000 A 
BRANCH   3  10
ATOM      9  C   UNL     1       4.875   1.570  20.829  0.00  0.00    +0.000 C 
ATOM     10  C   UNL     1       3.603   2.361  20.893  0.00  0.00    +0.000 C 
ATOM     11  O   UNL     1       2.992   2.396  21.962  0.00  0.00    +0.000 OA
ENDBRANCH   3  10
ENDBRANCH   2   8
ENDBRANCH   1   2
BRANCH   1  12
ATOM     12  C   UNL     1       6.928   5.553  19.207  0.00  0.00    +0.000 C 
BRANCH  12  13
ATOM     13  O   UNL     1       7.842   5.443  20.295  0.00  0.00    +0.000 OA
ATOM     14  H   UNL     1       8.052   6.347  20.588  0.00  0.00    +0.000 HD
ENDBRANCH  12  13
BRANCH  12  15
ATOM     15  C   UNL     1       7.434   4.844  17.924  0.00  0.00    +0.000 C 
BRANCH  15  16
ATOM     16  N   UNL     1       7.670   5.712  16.755  0.00  0.00    +0.000 NA
ATOM     17  C   UNL     1       6.988   7.025  16.817  0.00  0.00    +0.000 C 
ATOM     18  C   UNL     1       5.471   6.982  16.542  0.00  0.00    +0.000 C 
ATOM     19  O   UNL     1       5.172   6.322  15.307  0.00  0.00    +0.000 OA
ATOM     20  C   UNL     1       5.729   5.004  15.288  0.00  0.00    +0.000 C 
ATOM     21  C   UNL     1       7.252   5.040  15.501  0.00  0.00    +0.000 C 
ENDBRANCH  15  16
ENDBRANCH  12  15
ENDBRANCH   1  12
TORSDOF 7
ENDMDL
MODEL 7
REMARK VINA RESULT:      -6.4      2.279      5.869
REMARK  Name = 
REMARK  8 active torsions:
REMARK  status: ('A' for Active; 'I' for Inactive)
REMARK    1  A    between atoms: C_1  and  C_2
REMARK    2  A    between atoms: C_2  and  C_4
REMARK    3  A    between atoms: C_9  and  O_10
REMARK    4  A    between atoms: O_10  and  C_11
REMARK    5  A    between atoms: C_11  and  C_12
REMARK    6  A    between atoms: C_12  and  O_13
REMARK    7  A    between atoms: C_12  and  C_14
REMARK    8  A    between atoms: C_14  and  N_15
REMARK                            x       y       z     vdW  Elec       q    Type
REMARK                         _______ _______ _______ _____ _____    ______ ____
ROOT
ATOM      1  C   UNL     1       3.954   3.534  17.751  0.00  0.00    +0.000 C 
ENDROOT
BRANCH   1   2
ATOM      2  O   UNL     1       2.593   4.025  17.736  0.00  0.00    +0.000 OA
BRANCH   2   8
ATOM      3  C   UNL     1       1.774   4.893  19.862  0.00  0.00    +0.000 A 
ATOM      4  C   UNL     1       1.555   6.037  20.676  0.00  0.00    +0.000 A 
ATOM      5  C   UNL     1       1.850   7.328  20.247  0.00  0.00    +0.000 A 
ATOM      6  C   UNL     1       2.372   7.514  18.980  0.00  0.00    +0.000 A 
ATOM      7  C   UNL     1       2.601   6.410  18.159  0.00  0.00    +0.000 A 
ATOM      8  C   UNL     1       2.340   5.088  18.582  0.00  0.00    +0.000 A 
BRANCH   3  10
ATOM      9  C   UNL     1       1.955   3.093  21.780  0.00  0.00    +0.000 C 
ATOM     10  C   UNL     1       1.343   3.603  20.510  0.00  0.00    +0.000 C 
ATOM     11  O   UNL     1       0.481   2.915  19.960  0.00  0.00    +0.000 OA
ENDBRANCH   3  10
ENDBRANCH   2   8
ENDBRANCH   1   2
BRANCH   1  12
ATOM     12  C   UNL     1       4.620   3.659  19.133  0.00  0.00    +0.000 C 
BRANCH  12  13
ATOM     13  O   UNL     1       5.213   2.415  19.500  0.00  0.00    +0.000 OA
ATOM     14  H   UNL     1       5.037   2.281  20.447  0.00  0.00    +0.000 HD
ENDBRANCH  12  13
BRANCH  12  15
ATOM     15  C   UNL     1       5.634   4.832  19.139  0.00  0.00    +0.000 C 
BRANCH  15  16
ATOM     16  N   UNL     1       6.805   4.680  18.254  0.00  0.00    +0.000 NA
ATOM     17  C   UNL     1       8.000   5.442  18.680  0.00  0.00    +0.000 C 
ATOM     18  C   UNL     1       7.932   6.959  18.411  0.00  0.00    +0.000 C 
ATOM     19  O   UNL     1       7.619   7.245  17.044  0.00  0.00    +0.000 OA
ATOM     20  C   UNL     1       6.398   6.606  16.658  0.00  0.00    +0.000 C 
ATOM     21  C   UNL     1       6.477   5.084  16.865  0.00  0.00    +0.000 C 
ENDBRANCH  15  16
ENDBRANCH  12  15
ENDBRANCH   1  12
TORSDOF 7
ENDMDL
MODEL 8
REMARK VINA RESULT:      -6.3      1.392      1.829
REMARK  Name = 
REMARK  8 active torsions:
REMARK  status: ('A' for Active; 'I' for Inactive)
REMARK    1  A    between atoms: C_1  and  C_2
REMARK    2  A    between atoms: C_2  and  C_4
REMARK    3  A    between atoms: C_9  and  O_10
REMARK    4  A    between atoms: O_10  and  C_11
REMARK    5  A    between atoms: C_11  and  C_12
REMARK    6  A    between atoms: C_12  and  O_13
REMARK    7  A    between atoms: C_12  and  C_14
REMARK    8  A    between atoms: C_14  and  N_15
REMARK                            x       y       z     vdW  Elec       q    Type
REMARK                         _______ _______ _______ _____ _____    ______ ____
ROOT
ATOM      1  C   UNL     1       3.552   6.787  17.849  0.00  0.00    +0.000 C 
ENDROOT
BRANCH   1   2
ATOM      2  O   UNL     1       4.853   7.189  17.359  0.00  0.00    +0.000 OA
BRANCH   2   8
ATOM      3  C   UNL     1       6.758   5.685  17.130  0.00  0.00    +0.000 A 
ATOM      4  C   UNL     1       7.400   4.686  16.349  0.00  0.00    +0.000 A 
ATOM      5  C   UNL     1       6.889   4.248  15.131  0.00  0.00    +0.000 A 
ATOM      6  C   UNL     1       5.717   4.802  14.652  0.00  0.00    +0.000 A 
ATOM      7  C   UNL     1       5.063   5.782  15.398  0.00  0.00    +0.000 A 
ATOM      8  C   UNL     1       5.542   6.223  16.652  0.00  0.00    +0.000 A 
BRANCH   3  10
ATOM      9  C   UNL     1       8.230   7.338  18.563  0.00  0.00    +0.000 C 
ATOM     10  C   UNL     1       7.507   6.036  18.389  0.00  0.00    +0.000 C 
ATOM     11  O   UNL     1       7.565   5.210  19.302  0.00  0.00    +0.000 OA
ENDBRANCH   3  10
ENDBRANCH   2   8
ENDBRANCH   1   2
BRANCH   1  12
ATOM     12  C   UNL     1       3.620   5.581  18.804  0.00  0.00    +0.000 C 
BRANCH  12  13
ATOM     13  O   UNL     1       4.506   5.867  19.884  0.00  0.00    +0.000 OA
ATOM     14  H   UNL     1       4.779   5.015  20.266  0.00  0.00    +0.000 HD
ENDBRANCH  12  13
BRANCH  12  15
ATOM     15  C   UNL     1       2.197   5.192  19.282  0.00  0.00    +0.000 C 
BRANCH  15  16
ATOM     16  N   UNL     1       1.806   3.785  19.075  0.00  0.00    +0.000 NA
ATOM     17  C   UNL     1       0.796   3.280  20.033  0.00  0.00    +0.000 C 
ATOM     18  C   UNL     1       1.336   2.976  21.445  0.00  0.00    +0.000 C 
ATOM     19  O   UNL     1       2.467   2.099  21.406  0.00  0.00    +0.000 OA
ATOM     20  C   UNL     1       3.499   2.638  20.573  0.00  0.00    +0.000 C 
ATOM     21  C   UNL     1       2.987   2.891  19.145  0.00  0.00    +0.000 C 
ENDBRANCH  15  16
ENDBRANCH  12  15
ENDBRANCH   1  12
TORSDOF 7
ENDMDL
MODEL 9
REMARK VINA RESULT:      -6.2      2.132      5.636
REMARK  Name = 
REMARK  8 active torsions:
REMARK  status: ('A' for Active; 'I' for Inactive)
REMARK    1  A    between atoms: C_1  and  C_2
REMARK    2  A    between atoms: C_2  and  C_4
REMARK    3  A    between atoms: C_9  and  O_10
REMARK    4  A    between atoms: O_10  and  C_11
REMARK    5  A    between atoms: C_11  and  C_12
REMARK    6  A    between atoms: C_12  and  O_13
REMARK    7  A    between atoms: C_12  and  C_14
REMARK    8  A    between atoms: C_14  and  N_15
REMARK                            x       y       z     vdW  Elec       q    Type
REMARK                         _______ _______ _______ _____ _____    ______ ____
ROOT
ATOM      1  C   UNL     1       2.682   3.240  16.795  0.00  0.00    +0.000 C 
ENDROOT
BRANCH   1   2
ATOM      2  O   UNL     1       1.686   4.009  17.509  0.00  0.00    +0.000 OA
BRANCH   2   8
ATOM      3  C   UNL     1       2.332   4.748  19.740  0.00  0.00    +0.000 A 
ATOM      4  C   UNL     1       2.267   4.508  21.139  0.00  0.00    +0.000 A 
ATOM      5  C   UNL     1       1.611   3.405  21.679  0.00  0.00    +0.000 A 
ATOM      6  C   UNL     1       1.002   2.501  20.830  0.00  0.00    +0.000 A 
ATOM      7  C   UNL     1       1.046   2.711  19.452  0.00  0.00    +0.000 A 
ATOM      8  C   UNL     1       1.677   3.838  18.879  0.00  0.00    +0.000 A 
BRANCH   3  10
ATOM      9  C   UNL     1       2.501   7.193  18.766  0.00  0.00    +0.000 C 
ATOM     10  C   UNL     1       3.127   5.975  19.377  0.00  0.00    +0.000 C 
ATOM     11  O   UNL     1       4.347   5.971  19.552  0.00  0.00    +0.000 OA
ENDBRANCH   3  10
ENDBRANCH   2   8
ENDBRANCH   1   2
BRANCH   1  12
ATOM     12  C   UNL     1       3.909   2.901  17.663  0.00  0.00    +0.000 C 
BRANCH  12  13
ATOM     13  O   UNL     1       4.016   1.488  17.820  0.00  0.00    +0.000 OA
ATOM     14  H   UNL     1       3.683   1.082  17.001  0.00  0.00    +0.000 HD
ENDBRANCH  12  13
BRANCH  12  15
ATOM     15  C   UNL     1       5.188   3.535  17.057  0.00  0.00    +0.000 C 
BRANCH  15  16
ATOM     16  N   UNL     1       4.973   4.622  16.082  0.00  0.00    +0.000 NA
ATOM     17  C   UNL     1       5.533   4.359  14.737  0.00  0.00    +0.000 C 
ATOM     18  C   UNL     1       7.065   4.501  14.633  0.00  0.00    +0.000 C 
ATOM     19  O   UNL     1       7.518   5.768  15.123  0.00  0.00    +0.000 OA
ATOM     20  C   UNL     1       7.079   5.978  16.469  0.00  0.00    +0.000 C 
ATOM     21  C   UNL     1       5.546   5.898  16.574  0.00  0.00    +0.000 C 
ENDBRANCH  15  16
ENDBRANCH  12  15
ENDBRANCH   1  12
TORSDOF 7
ENDMDL
