MODEL 1
REMARK VINA RESULT:      -7.5      0.000      0.000
REMARK  Name = 
REMARK  11 active torsions:
REMARK  status: ('A' for Active; 'I' for Inactive)
REMARK    1  A    between atoms: C_1  and  C_2
REMARK    2  A    between atoms: C_4  and  N_5
REMARK    3  A    between atoms: C_7  and  C_8
REMARK    4  A    between atoms: C_8  and  O_9
REMARK    5  A    between atoms: O_9  and  C_10
REMARK    6  A    between atoms: C_10  and  C_11
REMARK    7  A    between atoms: C_13  and  O_14
REMARK    8  A    between atoms: O_14  and  C_15
REMARK    9  A    between atoms: C_15  and  C_16
REMARK   10  A    between atoms: C_18  and  C_19
REMARK   11  A    between atoms: C_21  and  N_22
REMARK                            x       y       z     vdW  Elec       q    Type
REMARK                         _______ _______ _______ _____ _____    ______ ____
ROOT
ATOM      1  C   UNL     1       2.886   3.175  17.715  0.00  0.00    +0.000 C 
ATOM      2  C   UNL     1       2.248   4.465  18.175  0.00  0.00    +0.000 C 
ATOM      3  C   UNL     1       1.526   4.045  19.446  0.00  0.00    +0.000 C 
ATOM      4  C   UNL     1       2.428   2.937  20.015  0.00  0.00    +0.000 C 
ATOM      5  N   UNL     1       3.422   2.632  18.973  0.00  0.00    +0.000 NA
ATOM      6  H   UNL     1       3.575   1.627  18.880  0.00  0.00    +0.000 HD
ENDROOT
BRANCH   1   7
ATOM      7  C   UNL     1       3.953   3.421  16.650  0.00  0.00    +0.000 C 
BRANCH   7   8
ATOM      8  O   UNL     1       5.192   3.675  17.307  0.00  0.00    +0.000 OA
BRANCH   8   9
ATOM      9  C   UNL     1       6.058   4.479  16.503  0.00  0.00    +0.000 C 
BRANCH   9  15
ATOM     10  C   UNL     1       7.953   9.023  17.499  0.00  0.00    +0.000 C 
ATOM     11  C   UNL     1       7.771   7.582  17.858  0.00  0.00    +0.000 A 
ATOM     12  C   UNL     1       8.271   7.051  19.046  0.00  0.00    +0.000 A 
ATOM     13  C   UNL     1       8.059   5.708  19.332  0.00  0.00    +0.000 A 
ATOM     14  N   UNL     1       7.365   4.887  18.530  0.00  0.00    +0.000 NA
ATOM     15  C   UNL     1       6.856   5.411  17.384  0.00  0.00    +0.000 A 
ATOM     16  C   UNL     1       7.062   6.736  17.008  0.00  0.00    +0.000 A 
BRANCH  13  17
ATOM     17  N   UNL     1       8.538   5.155  20.518  0.00  0.00    +0.000 N 
ATOM     18  H   UNL     1       7.855   4.540  20.941  0.00  0.00    +0.000 HD
ATOM     19  H   UNL     1       8.776   5.936  21.124  0.00  0.00    +0.000 HD
ENDBRANCH  13  17
ENDBRANCH   9  15
ENDBRANCH   8   9
ENDBRANCH   7   8
ENDBRANCH   1   7
BRANCH   3  20
ATOM     20  O   UNL     1       1.372   5.126  20.359  0.00  0.00    +0.000 OA
BRANCH  20  21
ATOM     21  C   UNL     1       2.330   6.167  20.131  0.00  0.00    +0.000 C 
BRANCH  21  22
ATOM     22  C   UNL     1       1.698   7.536  20.110  0.00  0.00    +0.000 A 
ATOM     23  C   UNL     1       1.078   8.056  21.244  0.00  0.00    +0.000 A 
ATOM     24  C   UNL     1       0.609   9.367  21.216  0.00  0.00    +0.000 A 
ATOM     25  C   UNL     1      -0.053   9.975  22.413  0.00  0.00    +0.000 C 
ATOM     26  C   UNL     1       0.791  10.111  20.049  0.00  0.00    +0.000 A 
ATOM     27  C   UNL     1       1.421   9.523  18.962  0.00  0.00    +0.000 A 
ATOM     28  N   UNL     1       1.878   8.262  18.977  0.00  0.00    +0.000 NA
BRANCH  27  29
ATOM     29  N   UNL     1       1.660  10.251  17.800  0.00  0.00    +0.000 N 
ATOM     30  H   UNL     1       0.797  10.473  17.320  0.00  0.00    +0.000 HD
ATOM     31  H   UNL     1       2.280   9.686  17.225  0.00  0.00    +0.000 HD
ENDBRANCH  27  29
ENDBRANCH  21  22
ENDBRANCH  20  21
ENDBRANCH   3  20
TORSDOF 9
ENDMDL
MODEL 2
REMARK VINA RESULT:      -7.3      1.564      2.054
REMARK  Name = 
REMARK  11 active torsions:
REMARK  status: ('A' for Active; 'I' for Inactive)
REMARK    1  A    between atoms: C_1  and  C_2
REMARK    2  A    between atoms: C_4  and  N_5
REMARK    3  A    between atoms: C_7  and  C_8
REMARK    4  A    between atoms: C_8  and  O_9
REMARK    5  A    between atoms: O_9  and  C_10
REMARK    6  A    between atoms: C_10  and  C_11
REMARK    7  A    between atoms: C_13  and  O_14
REMARK    8  A    between atoms: O_14  and  C_15
REMARK    9  A    between atoms: C_15  and  C_16
REMARK   10  A    between atoms: C_18  and  C_19
REMARK   11  A    between atoms: C_21  and  N_22
REMARK                            x       y       z     vdW  Elec       q    Type
REMARK                         _______ _______ _______ _____ _____    ______ ____
ROOT
ATOM      1  C   UNL     1       3.467   4.573  17.791  0.00  0.00    +0.000 C 
ATOM      2  C   UNL     1       2.717   5.805  18.237  0.00  0.00    +0.000 C 
ATOM      3  C   UNL     1       2.155   5.385  19.586  0.00  0.00    +0.000 C 
ATOM      4  C   UNL     1       3.227   4.427  20.132  0.00  0.00    +0.000 C 
ATOM      5  N   UNL     1       4.164   4.175  19.025  0.00  0.00    +0.000 NA
ATOM      6  H   UNL     1       4.429   3.190  18.972  0.00  0.00    +0.000 HD
ENDROOT
BRANCH   1   7
ATOM      7  C   UNL     1       4.408   4.874  16.627  0.00  0.00    +0.000 C 
BRANCH   7   8
ATOM      8  O   UNL     1       5.424   3.875  16.600  0.00  0.00    +0.000 OA
BRANCH   8   9
ATOM      9  C   UNL     1       6.671   4.404  16.146  0.00  0.00    +0.000 C 
BRANCH   9  15
ATOM     10  C   UNL     1       7.922   9.060  17.556  0.00  0.00    +0.000 C 
ATOM     11  C   UNL     1       7.830   7.594  17.842  0.00  0.00    +0.000 A 
ATOM     12  C   UNL     1       8.185   7.063  19.081  0.00  0.00    +0.000 A 
ATOM     13  C   UNL     1       8.065   5.696  19.293  0.00  0.00    +0.000 A 
ATOM     14  N   UNL     1       7.592   4.847  18.368  0.00  0.00    +0.000 NA
ATOM     15  C   UNL     1       7.223   5.368  17.169  0.00  0.00    +0.000 A 
ATOM     16  C   UNL     1       7.352   6.722  16.867  0.00  0.00    +0.000 A 
BRANCH  13  17
ATOM     17  N   UNL     1       8.403   5.140  20.526  0.00  0.00    +0.000 N 
ATOM     18  H   UNL     1       9.135   4.449  20.431  0.00  0.00    +0.000 HD
ATOM     19  H   UNL     1       7.548   4.742  20.906  0.00  0.00    +0.000 HD
ENDBRANCH  13  17
ENDBRANCH   9  15
ENDBRANCH   8   9
ENDBRANCH   7   8
ENDBRANCH   1   7
BRANCH   3  20
ATOM     20  O   UNL     1       1.946   6.496  20.452  0.00  0.00    +0.000 OA
BRANCH  20  21
ATOM     21  C   UNL     1       2.036   7.746  19.759  0.00  0.00    +0.000 C 
BRANCH  21  22
ATOM     22  C   UNL     1       1.172   8.813  20.382  0.00  0.00    +0.000 A 
ATOM     23  C   UNL     1       0.549   9.780  19.596  0.00  0.00    +0.000 A 
ATOM     24  C   UNL     1      -0.332  10.675  20.198  0.00  0.00    +0.000 A 
ATOM     25  C   UNL     1      -1.034  11.724  19.393  0.00  0.00    +0.000 C 
ATOM     26  C   UNL     1      -0.563  10.557  21.569  0.00  0.00    +0.000 A 
ATOM     27  C   UNL     1       0.093   9.564  22.283  0.00  0.00    +0.000 A 
ATOM     28  N   UNL     1       0.942   8.695  21.715  0.00  0.00    +0.000 NA
BRANCH  27  29
ATOM     29  N   UNL     1      -0.150   9.389  23.643  0.00  0.00    +0.000 N 
ATOM     30  H   UNL     1      -0.682   8.546  23.817  0.00  0.00    +0.000 HD
ATOM     31  H   UNL     1      -0.642  10.220  23.960  0.00  0.00    +0.000 HD
ENDBRANCH  27  29
ENDBRANCH  21  22
ENDBRANCH  20  21
ENDBRANCH   3  20
TORSDOF 9
ENDMDL
MODEL 3
REMARK VINA RESULT:      -7.3      3.396      8.859
REMARK  Name = 
REMARK  11 active torsions:
REMARK  status: ('A' for Active; 'I' for Inactive)
REMARK    1  A    between atoms: C_1  and  C_2
REMARK    2  A    between atoms: C_4  and  N_5
REMARK    3  A    between atoms: C_7  and  C_8
REMARK    4  A    between atoms: C_8  and  O_9
REMARK    5  A    between atoms: O_9  and  C_10
REMARK    6  A    between atoms: C_10  and  C_11
REMARK    7  A    between atoms: C_13  and  O_14
REMARK    8  A    between atoms: O_14  and  C_15
REMARK    9  A    between atoms: C_15  and  C_16
REMARK   10  A    between atoms: C_18  and  C_19
REMARK   11  A    between atoms: C_21  and  N_22
REMARK                            x       y       z     vdW  Elec       q    Type
REMARK                         _______ _______ _______ _____ _____    ______ ____
ROOT
ATOM      1  C   UNL     1       2.407   8.572  18.618  0.00  0.00    +0.000 C 
ATOM      2  C   UNL     1       2.455   7.392  17.678  0.00  0.00    +0.000 C 
ATOM      3  C   UNL     1       2.927   6.263  18.581  0.00  0.00    +0.000 C 
ATOM      4  C   UNL     1       2.320   6.626  19.946  0.00  0.00    +0.000 C 
ATOM      5  N   UNL     1       1.776   7.987  19.813  0.00  0.00    +0.000 NA
ATOM      6  H   UNL     1       1.985   8.560  20.631  0.00  0.00    +0.000 HD
ENDROOT
BRANCH   1   7
ATOM      7  C   UNL     1       1.623   9.739  18.022  0.00  0.00    +0.000 C 
BRANCH   7   8
ATOM      8  O   UNL     1       0.244   9.386  17.992  0.00  0.00    +0.000 OA
BRANCH   8   9
ATOM      9  C   UNL     1      -0.552  10.307  18.741  0.00  0.00    +0.000 C 
BRANCH   9  15
ATOM     10  C   UNL     1      -3.370   9.995  14.594  0.00  0.00    +0.000 C 
ATOM     11  C   UNL     1      -3.150  10.507  15.983  0.00  0.00    +0.000 A 
ATOM     12  C   UNL     1      -4.115  11.262  16.649  0.00  0.00    +0.000 A 
ATOM     13  C   UNL     1      -3.861  11.697  17.944  0.00  0.00    +0.000 A 
ATOM     14  N   UNL     1      -2.734  11.404  18.610  0.00  0.00    +0.000 NA
ATOM     15  C   UNL     1      -1.805  10.647  17.969  0.00  0.00    +0.000 A 
ATOM     16  C   UNL     1      -1.969  10.208  16.658  0.00  0.00    +0.000 A 
BRANCH  13  17
ATOM     17  N   UNL     1      -4.811  12.444  18.636  0.00  0.00    +0.000 N 
ATOM     18  H   UNL     1      -5.703  12.441  18.159  0.00  0.00    +0.000 HD
ATOM     19  H   UNL     1      -4.430  13.383  18.727  0.00  0.00    +0.000 HD
ENDBRANCH  13  17
ENDBRANCH   9  15
ENDBRANCH   8   9
ENDBRANCH   7   8
ENDBRANCH   1   7
BRANCH   3  20
ATOM     20  O   UNL     1       2.487   4.988  18.126  0.00  0.00    +0.000 OA
BRANCH  20  21
ATOM     21  C   UNL     1       3.395   3.941  18.488  0.00  0.00    +0.000 C 
BRANCH  21  22
ATOM     22  C   UNL     1       4.724   4.065  17.787  0.00  0.00    +0.000 A 
ATOM     23  C   UNL     1       4.812   3.988  16.400  0.00  0.00    +0.000 A 
ATOM     24  C   UNL     1       6.040   4.222  15.786  0.00  0.00    +0.000 A 
ATOM     25  C   UNL     1       6.182   4.163  14.297  0.00  0.00    +0.000 C 
ATOM     26  C   UNL     1       7.135   4.536  16.593  0.00  0.00    +0.000 A 
ATOM     27  C   UNL     1       6.966   4.597  17.969  0.00  0.00    +0.000 A 
ATOM     28  N   UNL     1       5.789   4.375  18.571  0.00  0.00    +0.000 NA
BRANCH  27  29
ATOM     29  N   UNL     1       8.025   4.953  18.800  0.00  0.00    +0.000 N 
ATOM     30  H   UNL     1       8.857   5.167  18.265  0.00  0.00    +0.000 HD
ATOM     31  H   UNL     1       8.172   4.172  19.434  0.00  0.00    +0.000 HD
ENDBRANCH  27  29
ENDBRANCH  21  22
ENDBRANCH  20  21
ENDBRANCH   3  20
TORSDOF 9
ENDMDL
MODEL 4
REMARK VINA RESULT:      -7.3      1.764      2.288
REMARK  Name = 
REMARK  11 active torsions:
REMARK  status: ('A' for Active; 'I' for Inactive)
REMARK    1  A    between atoms: C_1  and  C_2
REMARK    2  A    between atoms: C_4  and  N_5
REMARK    3  A    between atoms: C_7  and  C_8
REMARK    4  A    between atoms: C_8  and  O_9
REMARK    5  A    between atoms: O_9  and  C_10
REMARK    6  A    between atoms: C_10  and  C_11
REMARK    7  A    between atoms: C_13  and  O_14
REMARK    8  A    between atoms: O_14  and  C_15
REMARK    9  A    between atoms: C_15  and  C_16
REMARK   10  A    between atoms: C_18  and  C_19
REMARK   11  A    between atoms: C_21  and  N_22
REMARK                            x       y       z     vdW  Elec       q    Type
REMARK                         _______ _______ _______ _____ _____    ______ ____
ROOT
ATOM      1  C   UNL     1       1.716   2.591  19.279  0.00  0.00    +0.000 C 
ATOM      2  C   UNL     1       1.611   4.098  19.306  0.00  0.00    +0.000 C 
ATOM      3  C   UNL     1       1.376   4.390  20.780  0.00  0.00    +0.000 C 
ATOM      4  C   UNL     1       2.161   3.274  21.491  0.00  0.00    +0.000 C 
ATOM      5  N   UNL     1       2.570   2.321  20.447  0.00  0.00    +0.000 NA
ATOM      6  H   UNL     1       2.449   1.354  20.749  0.00  0.00    +0.000 HD
ENDROOT
BRANCH   1   7
ATOM      7  C   UNL     1       2.303   2.089  17.961  0.00  0.00    +0.000 C 
BRANCH   7   8
ATOM      8  O   UNL     1       3.638   2.573  17.851  0.00  0.00    +0.000 OA
BRANCH   8   9
ATOM      9  C   UNL     1       3.793   3.438  16.724  0.00  0.00    +0.000 C 
BRANCH   9  15
ATOM     10  C   UNL     1       7.368   5.626  19.492  0.00  0.00    +0.000 C 
ATOM     11  C   UNL     1       6.798   5.255  18.159  0.00  0.00    +0.000 A 
ATOM     12  C   UNL     1       7.468   5.538  16.969  0.00  0.00    +0.000 A 
ATOM     13  C   UNL     1       6.897   5.157  15.762  0.00  0.00    +0.000 A 
ATOM     14  N   UNL     1       5.732   4.497  15.675  0.00  0.00    +0.000 NA
ATOM     15  C   UNL     1       5.091   4.200  16.836  0.00  0.00    +0.000 A 
ATOM     16  C   UNL     1       5.579   4.585  18.083  0.00  0.00    +0.000 A 
BRANCH  13  17
ATOM     17  N   UNL     1       7.551   5.416  14.559  0.00  0.00    +0.000 N 
ATOM     18  H   UNL     1       7.326   4.721  13.859  0.00  0.00    +0.000 HD
ATOM     19  H   UNL     1       8.545   5.437  14.770  0.00  0.00    +0.000 HD
ENDBRANCH  13  17
ENDBRANCH   9  15
ENDBRANCH   8   9
ENDBRANCH   7   8
ENDBRANCH   1   7
BRANCH   3  20
ATOM     20  O   UNL     1       1.837   5.684  21.153  0.00  0.00    +0.000 OA
BRANCH  20  21
ATOM     21  C   UNL     1       2.252   6.457  20.021  0.00  0.00    +0.000 C 
BRANCH  21  22
ATOM     22  C   UNL     1       1.630   7.830  20.002  0.00  0.00    +0.000 A 
ATOM     23  C   UNL     1       1.000   8.346  21.132  0.00  0.00    +0.000 A 
ATOM     24  C   UNL     1       0.540   9.661  21.108  0.00  0.00    +0.000 A 
ATOM     25  C   UNL     1      -0.132  10.264  22.302  0.00  0.00    +0.000 C 
ATOM     26  C   UNL     1       0.742  10.412  19.950  0.00  0.00    +0.000 A 
ATOM     27  C   UNL     1       1.381   9.828  18.866  0.00  0.00    +0.000 A 
ATOM     28  N   UNL     1       1.829   8.564  18.877  0.00  0.00    +0.000 NA
BRANCH  27  29
ATOM     29  N   UNL     1       1.639  10.563  17.712  0.00  0.00    +0.000 N 
ATOM     30  H   UNL     1       1.825  11.534  17.927  0.00  0.00    +0.000 HD
ATOM     31  H   UNL     1       0.825  10.456  17.111  0.00  0.00    +0.000 HD
ENDBRANCH  27  29
ENDBRANCH  21  22
ENDBRANCH  20  21
ENDBRANCH   3  20
TORSDOF 9
ENDMDL
MODEL 5
REMARK VINA RESULT:      -7.3      2.670      4.182
REMARK  Name = 
REMARK  11 active torsions:
REMARK  status: ('A' for Active; 'I' for Inactive)
REMARK    1  A    between atoms: C_1  and  C_2
REMARK    2  A    between atoms: C_4  and  N_5
REMARK    3  A    between atoms: C_7  and  C_8
REMARK    4  A    between atoms: C_8  and  O_9
REMARK    5  A    between atoms: O_9  and  C_10
REMARK    6  A    between atoms: C_10  and  C_11
REMARK    7  A    between atoms: C_13  and  O_14
REMARK    8  A    between atoms: O_14  and  C_15
REMARK    9  A    between atoms: C_15  and  C_16
REMARK   10  A    between atoms: C_18  and  C_19
REMARK   11  A    between atoms: C_21  and  N_22
REMARK                            x       y       z     vdW  Elec       q    Type
REMARK                         _______ _______ _______ _____ _____    ______ ____
ROOT
ATOM      1  C   UNL     1       2.589   6.022  19.807  0.00  0.00    +0.000 C 
ATOM      2  C   UNL     1       1.580   6.831  20.587  0.00  0.00    +0.000 C 
ATOM      3  C   UNL     1       1.820   8.245  20.078  0.00  0.00    +0.000 C 
ATOM      4  C   UNL     1       2.242   8.026  18.616  0.00  0.00    +0.000 C 
ATOM      5  N   UNL     1       2.447   6.578  18.452  0.00  0.00    +0.000 NA
ATOM      6  H   UNL     1       3.285   6.375  17.904  0.00  0.00    +0.000 HD
ENDROOT
BRANCH   1   7
ATOM      7  C   UNL     1       2.299   4.525  19.889  0.00  0.00    +0.000 C 
BRANCH   7   8
ATOM      8  O   UNL     1       2.545   3.950  18.609  0.00  0.00    +0.000 OA
BRANCH   8   9
ATOM      9  C   UNL     1       3.672   3.072  18.635  0.00  0.00    +0.000 C 
BRANCH   9  15
ATOM     10  C   UNL     1       6.101   4.691  14.547  0.00  0.00    +0.000 C 
ATOM     11  C   UNL     1       6.027   4.509  16.031  0.00  0.00    +0.000 A 
ATOM     12  C   UNL     1       7.014   5.005  16.882  0.00  0.00    +0.000 A 
ATOM     13  C   UNL     1       6.884   4.818  18.252  0.00  0.00    +0.000 A 
ATOM     14  N   UNL     1       5.833   4.203  18.814  0.00  0.00    +0.000 NA
ATOM     15  C   UNL     1       4.859   3.742  17.986  0.00  0.00    +0.000 A 
ATOM     16  C   UNL     1       4.938   3.854  16.600  0.00  0.00    +0.000 A 
BRANCH  13  17
ATOM     17  N   UNL     1       7.850   5.313  19.126  0.00  0.00    +0.000 N 
ATOM     18  H   UNL     1       7.620   6.248  19.440  0.00  0.00    +0.000 HD
ATOM     19  H   UNL     1       8.734   5.285  18.625  0.00  0.00    +0.000 HD
ENDBRANCH  13  17
ENDBRANCH   9  15
ENDBRANCH   8   9
ENDBRANCH   7   8
ENDBRANCH   1   7
BRANCH   3  20
ATOM     20  O   UNL     1       0.656   9.058  20.179  0.00  0.00    +0.000 OA
BRANCH  20  21
ATOM     21  C   UNL     1       0.774  10.267  19.420  0.00  0.00    +0.000 C 
BRANCH  21  22
ATOM     22  C   UNL     1      -0.535  10.685  18.799  0.00  0.00    +0.000 A 
ATOM     23  C   UNL     1      -1.020  10.054  17.656  0.00  0.00    +0.000 A 
ATOM     24  C   UNL     1      -2.285  10.392  17.182  0.00  0.00    +0.000 A 
ATOM     25  C   UNL     1      -2.855   9.732  15.965  0.00  0.00    +0.000 C 
ATOM     26  C   UNL     1      -3.022  11.347  17.884  0.00  0.00    +0.000 A 
ATOM     27  C   UNL     1      -2.471  11.930  19.016  0.00  0.00    +0.000 A 
ATOM     28  N   UNL     1      -1.254  11.612  19.483  0.00  0.00    +0.000 NA
BRANCH  27  29
ATOM     29  N   UNL     1      -3.196  12.852  19.765  0.00  0.00    +0.000 N 
ATOM     30  H   UNL     1      -3.056  12.713  20.758  0.00  0.00    +0.000 HD
ATOM     31  H   UNL     1      -4.172  12.739  19.500  0.00  0.00    +0.000 HD
ENDBRANCH  27  29
ENDBRANCH  21  22
ENDBRANCH  20  21
ENDBRANCH   3  20
TORSDOF 9
ENDMDL
MODEL 6
REMARK VINA RESULT:      -7.2      1.344      1.670
REMARK  Name = 
REMARK  11 active torsions:
REMARK  status: ('A' for Active; 'I' for Inactive)
REMARK    1  A    between atoms: C_1  and  C_2
REMARK    2  A    between atoms: C_4  and  N_5
REMARK    3  A    between atoms: C_7  and  C_8
REMARK    4  A    between atoms: C_8  and  O_9
REMARK    5  A    between atoms: O_9  and  C_10
REMARK    6  A    between atoms: C_10  and  C_11
REMARK    7  A    between atoms: C_13  and  O_14
REMARK    8  A    between atoms: O_14  and  C_15
REMARK    9  A    between atoms: C_15  and  C_16
REMARK   10  A    between atoms: C_18  and  C_19
REMARK   11  A    between atoms: C_21  and  N_22
REMARK                            x       y       z     vdW  Elec       q    Type
REMARK                         _______ _______ _______ _____ _____    ______ ____
ROOT
ATOM      1  C   UNL     1       3.460   4.304  17.888  0.00  0.00    +0.000 C 
ATOM      2  C   UNL     1       2.728   5.623  17.831  0.00  0.00    +0.000 C 
ATOM      3  C   UNL     1       2.384   5.878  19.291  0.00  0.00    +0.000 C 
ATOM      4  C   UNL     1       3.564   5.245  20.047  0.00  0.00    +0.000 C 
ATOM      5  N   UNL     1       4.343   4.493  19.051  0.00  0.00    +0.000 NA
ATOM      6  H   UNL     1       4.641   3.585  19.411  0.00  0.00    +0.000 HD
ENDROOT
BRANCH   1   7
ATOM      7  C   UNL     1       4.211   4.017  16.590  0.00  0.00    +0.000 C 
BRANCH   7   8
ATOM      8  O   UNL     1       5.542   3.630  16.916  0.00  0.00    +0.000 OA
BRANCH   8   9
ATOM      9  C   UNL     1       6.507   4.442  16.243  0.00  0.00    +0.000 C 
BRANCH   9  15
ATOM     10  C   UNL     1       7.927   9.084  17.536  0.00  0.00    +0.000 C 
ATOM     11  C   UNL     1       7.829   7.621  17.837  0.00  0.00    +0.000 A 
ATOM     12  C   UNL     1       8.256   7.091  19.054  0.00  0.00    +0.000 A 
ATOM     13  C   UNL     1       8.127   5.727  19.283  0.00  0.00    +0.000 A 
ATOM     14  N   UNL     1       7.580   4.882  18.397  0.00  0.00    +0.000 NA
ATOM     15  C   UNL     1       7.141   5.403  17.221  0.00  0.00    +0.000 A 
ATOM     16  C   UNL     1       7.273   6.752  16.902  0.00  0.00    +0.000 A 
BRANCH  13  17
ATOM     17  N   UNL     1       8.535   5.173  20.495  0.00  0.00    +0.000 N 
ATOM     18  H   UNL     1       8.666   4.172  20.418  0.00  0.00    +0.000 HD
ATOM     19  H   UNL     1       7.821   5.413  21.177  0.00  0.00    +0.000 HD
ENDBRANCH  13  17
ENDBRANCH   9  15
ENDBRANCH   8   9
ENDBRANCH   7   8
ENDBRANCH   1   7
BRANCH   3  20
ATOM     20  O   UNL     1       2.253   7.266  19.578  0.00  0.00    +0.000 OA
BRANCH  20  21
ATOM     21  C   UNL     1       2.023   8.044  18.397  0.00  0.00    +0.000 C 
BRANCH  21  22
ATOM     22  C   UNL     1       1.551   9.441  18.712  0.00  0.00    +0.000 A 
ATOM     23  C   UNL     1       0.641   9.675  19.740  0.00  0.00    +0.000 A 
ATOM     24  C   UNL     1       0.320  10.989  20.072  0.00  0.00    +0.000 A 
ATOM     25  C   UNL     1      -0.643  11.292  21.177  0.00  0.00    +0.000 C 
ATOM     26  C   UNL     1       0.936  12.021  19.362  0.00  0.00    +0.000 A 
ATOM     27  C   UNL     1       1.834  11.707  18.352  0.00  0.00    +0.000 A 
ATOM     28  N   UNL     1       2.153  10.446  18.025  0.00  0.00    +0.000 NA
BRANCH  27  29
ATOM     29  N   UNL     1       2.501  12.711  17.656  0.00  0.00    +0.000 N 
ATOM     30  H   UNL     1       3.088  12.328  16.927  0.00  0.00    +0.000 HD
ATOM     31  H   UNL     1       3.039  13.233  18.343  0.00  0.00    +0.000 HD
ENDBRANCH  27  29
ENDBRANCH  21  22
ENDBRANCH  20  21
ENDBRANCH   3  20
TORSDOF 9
ENDMDL
MODEL 7
REMARK VINA RESULT:      -7.2      3.627      5.940
REMARK  Name = 
REMARK  11 active torsions:
REMARK  status: ('A' for Active; 'I' for Inactive)
REMARK    1  A    between atoms: C_1  and  C_2
REMARK    2  A    between atoms: C_4  and  N_5
REMARK    3  A    between atoms: C_7  and  C_8
REMARK    4  A    between atoms: C_8  and  O_9
REMARK    5  A    between atoms: O_9  and  C_10
REMARK    6  A    between atoms: C_10  and  C_11
REMARK    7  A    between atoms: C_13  and  O_14
REMARK    8  A    between atoms: O_14  and  C_15
REMARK    9  A    between atoms: C_15  and  C_16
REMARK   10  A    between atoms: C_18  and  C_19
REMARK   11  A    between atoms: C_21  and  N_22
REMARK                            x       y       z     vdW  Elec       q    Type
REMARK                         _______ _______ _______ _____ _____    ______ ____
ROOT
ATOM      1  C   UNL     1       7.918   7.381  17.612  0.00  0.00    +0.000 C 
ATOM      2  C   UNL     1       6.620   6.749  17.169  0.00  0.00    +0.000 C 
ATOM      3  C   UNL     1       6.819   5.286  17.534  0.00  0.00    +0.000 C 
ATOM      4  C   UNL     1       7.698   5.353  18.793  0.00  0.00    +0.000 C 
ATOM      5  N   UNL     1       8.133   6.753  18.926  0.00  0.00    +0.000 NA
ATOM      6  H   UNL     1       9.117   6.820  19.186  0.00  0.00    +0.000 HD
ENDROOT
BRANCH   1   7
ATOM      7  C   UNL     1       7.814   8.903  17.671  0.00  0.00    +0.000 C 
BRANCH   7   8
ATOM      8  O   UNL     1       8.736   9.379  18.647  0.00  0.00    +0.000 OA
BRANCH   8   9
ATOM      9  C   UNL     1       9.354  10.601  18.237  0.00  0.00    +0.000 C 
BRANCH   9  15
ATOM     10  C   UNL     1      10.961  14.906  20.266  0.00  0.00    +0.000 C 
ATOM     11  C   UNL     1      10.318  13.562  20.405  0.00  0.00    +0.000 A 
ATOM     12  C   UNL     1       9.808  13.113  21.623  0.00  0.00    +0.000 A 
ATOM     13  C   UNL     1       9.209  11.861  21.688  0.00  0.00    +0.000 A 
ATOM     14  N   UNL     1       9.067  11.058  20.623  0.00  0.00    +0.000 NA
ATOM     15  C   UNL     1       9.542  11.506  19.431  0.00  0.00    +0.000 A 
ATOM     16  C   UNL     1      10.191  12.731  19.294  0.00  0.00    +0.000 A 
BRANCH  13  17
ATOM     17  N   UNL     1       8.682  11.393  22.889  0.00  0.00    +0.000 N 
ATOM     18  H   UNL     1       9.043  10.476  23.119  0.00  0.00    +0.000 HD
ATOM     19  H   UNL     1       7.671  11.388  22.777  0.00  0.00    +0.000 HD
ENDBRANCH  13  17
ENDBRANCH   9  15
ENDBRANCH   8   9
ENDBRANCH   7   8
ENDBRANCH   1   7
BRANCH   3  20
ATOM     20  O   UNL     1       5.586   4.620  17.782  0.00  0.00    +0.000 OA
BRANCH  20  21
ATOM     21  C   UNL     1       4.455   5.448  17.484  0.00  0.00    +0.000 C 
BRANCH  21  22
ATOM     22  C   UNL     1       3.374   5.344  18.530  0.00  0.00    +0.000 A 
ATOM     23  C   UNL     1       2.875   4.105  18.925  0.00  0.00    +0.000 A 
ATOM     24  C   UNL     1       1.962   4.047  19.974  0.00  0.00    +0.000 A 
ATOM     25  C   UNL     1       1.407   2.738  20.442  0.00  0.00    +0.000 C 
ATOM     26  C   UNL     1       1.591   5.240  20.597  0.00  0.00    +0.000 A 
ATOM     27  C   UNL     1       2.135   6.435  20.149  0.00  0.00    +0.000 A 
ATOM     28  N   UNL     1       3.016   6.504  19.140  0.00  0.00    +0.000 NA
BRANCH  27  29
ATOM     29  N   UNL     1       1.822   7.637  20.777  0.00  0.00    +0.000 N 
ATOM     30  H   UNL     1       2.140   7.645  21.737  0.00  0.00    +0.000 HD
ATOM     31  H   UNL     1       0.813   7.747  20.709  0.00  0.00    +0.000 HD
ENDBRANCH  27  29
ENDBRANCH  21  22
ENDBRANCH  20  21
ENDBRANCH   3  20
TORSDOF 9
ENDMDL
MODEL 8
REMARK VINA RESULT:      -7.2      3.561      6.475
REMARK  Name = 
REMARK  11 active torsions:
REMARK  status: ('A' for Active; 'I' for Inactive)
REMARK    1  A    between atoms: C_1  and  C_2
REMARK    2  A    between atoms: C_4  and  N_5
REMARK    3  A    between atoms: C_7  and  C_8
REMARK    4  A    between atoms: C_8  and  O_9
REMARK    5  A    between atoms: O_9  and  C_10
REMARK    6  A    between atoms: C_10  and  C_11
REMARK    7  A    between atoms: C_13  and  O_14
REMARK    8  A    between atoms: O_14  and  C_15
REMARK    9  A    between atoms: C_15  and  C_16
REMARK   10  A    between atoms: C_18  and  C_19
REMARK   11  A    between atoms: C_21  and  N_22
REMARK                            x       y       z     vdW  Elec       q    Type
REMARK                         _______ _______ _______ _____ _____    ______ ____
ROOT
ATOM      1  C   UNL     1       7.495   6.986  17.357  0.00  0.00    +0.000 C 
ATOM      2  C   UNL     1       5.987   7.048  17.332  0.00  0.00    +0.000 C 
ATOM      3  C   UNL     1       5.633   6.126  16.175  0.00  0.00    +0.000 C 
ATOM      4  C   UNL     1       6.744   5.063  16.219  0.00  0.00    +0.000 C 
ATOM      5  N   UNL     1       7.746   5.546  17.182  0.00  0.00    +0.000 NA
ATOM      6  H   UNL     1       8.698   5.398  16.843  0.00  0.00    +0.000 HD
ENDROOT
BRANCH   1   7
ATOM      7  C   UNL     1       8.063   7.553  18.656  0.00  0.00    +0.000 C 
BRANCH   7   8
ATOM      8  O   UNL     1       8.921   8.643  18.334  0.00  0.00    +0.000 OA
BRANCH   8   9
ATOM      9  C   UNL     1       8.178   9.814  17.988  0.00  0.00    +0.000 C 
BRANCH   9  15
ATOM     10  C   UNL     1      12.324  12.009  19.785  0.00  0.00    +0.000 C 
ATOM     11  C   UNL     1      10.996  12.098  19.100  0.00  0.00    +0.000 A 
ATOM     12  C   UNL     1      10.506  13.304  18.602  0.00  0.00    +0.000 A 
ATOM     13  C   UNL     1       9.273  13.323  17.962  0.00  0.00    +0.000 A 
ATOM     14  N   UNL     1       8.528  12.224  17.769  0.00  0.00    +0.000 NA
ATOM     15  C   UNL     1       9.018  11.045  18.233  0.00  0.00    +0.000 A 
ATOM     16  C   UNL     1      10.225  10.952  18.920  0.00  0.00    +0.000 A 
BRANCH  13  17
ATOM     17  N   UNL     1       8.764  14.513  17.444  0.00  0.00    +0.000 N 
ATOM     18  H   UNL     1       9.506  15.160  17.209  0.00  0.00    +0.000 HD
ATOM     19  H   UNL     1       8.138  14.890  18.152  0.00  0.00    +0.000 HD
ENDBRANCH  13  17
ENDBRANCH   9  15
ENDBRANCH   8   9
ENDBRANCH   7   8
ENDBRANCH   1   7
BRANCH   3  20
ATOM     20  O   UNL     1       4.340   5.549  16.322  0.00  0.00    +0.000 OA
BRANCH  20  21
ATOM     21  C   UNL     1       3.767   5.826  17.605  0.00  0.00    +0.000 C 
BRANCH  21  22
ATOM     22  C   UNL     1       3.365   4.571  18.338  0.00  0.00    +0.000 A 
ATOM     23  C   UNL     1       2.070   4.069  18.242  0.00  0.00    +0.000 A 
ATOM     24  C   UNL     1       1.772   2.847  18.841  0.00  0.00    +0.000 A 
ATOM     25  C   UNL     1       0.398   2.261  18.755  0.00  0.00    +0.000 C 
ATOM     26  C   UNL     1       2.795   2.169  19.506  0.00  0.00    +0.000 A 
ATOM     27  C   UNL     1       4.062   2.733  19.555  0.00  0.00    +0.000 A 
ATOM     28  N   UNL     1       4.361   3.908  18.981  0.00  0.00    +0.000 NA
BRANCH  27  29
ATOM     29  N   UNL     1       5.115   2.062  20.170  0.00  0.00    +0.000 N 
ATOM     30  H   UNL     1       5.989   2.557  20.049  0.00  0.00    +0.000 HD
ATOM     31  H   UNL     1       5.145   1.131  19.761  0.00  0.00    +0.000 HD
ENDBRANCH  27  29
ENDBRANCH  21  22
ENDBRANCH  20  21
ENDBRANCH   3  20
TORSDOF 9
ENDMDL
MODEL 9
REMARK VINA RESULT:      -7.2      2.999      4.316
REMARK  Name = 
REMARK  11 active torsions:
REMARK  status: ('A' for Active; 'I' for Inactive)
REMARK    1  A    between atoms: C_1  and  C_2
REMARK    2  A    between atoms: C_4  and  N_5
REMARK    3  A    between atoms: C_7  and  C_8
REMARK    4  A    between atoms: C_8  and  O_9
REMARK    5  A    between atoms: O_9  and  C_10
REMARK    6  A    between atoms: C_10  and  C_11
REMARK    7  A    between atoms: C_13  and  O_14
REMARK    8  A    between atoms: O_14  and  C_15
REMARK    9  A    between atoms: C_15  and  C_16
REMARK   10  A    between atoms: C_18  and  C_19
REMARK   11  A    between atoms: C_21  and  N_22
REMARK                            x       y       z     vdW  Elec       q    Type
REMARK                         _______ _______ _______ _____ _____    ______ ____
ROOT
ATOM      1  C   UNL     1       4.161   5.899  18.379  0.00  0.00    +0.000 C 
ATOM      2  C   UNL     1       3.696   7.209  17.790  0.00  0.00    +0.000 C 
ATOM      3  C   UNL     1       2.258   7.302  18.274  0.00  0.00    +0.000 C 
ATOM      4  C   UNL     1       2.300   6.603  19.643  0.00  0.00    +0.000 C 
ATOM      5  N   UNL     1       3.624   5.970  19.748  0.00  0.00    +0.000 NA
ATOM      6  H   UNL     1       3.564   5.032  20.146  0.00  0.00    +0.000 HD
ENDROOT
BRANCH   1   7
ATOM      7  C   UNL     1       5.681   5.761  18.324  0.00  0.00    +0.000 C 
BRANCH   7   8
ATOM      8  O   UNL     1       6.078   5.713  16.956  0.00  0.00    +0.000 OA
BRANCH   8   9
ATOM      9  C   UNL     1       6.011   4.385  16.434  0.00  0.00    +0.000 C 
BRANCH   9  15
ATOM     10  C   UNL     1       5.353   2.835  11.701  0.00  0.00    +0.000 C 
ATOM     11  C   UNL     1       6.106   3.637  12.716  0.00  0.00    +0.000 A 
ATOM     12  C   UNL     1       7.167   4.467  12.355  0.00  0.00    +0.000 A 
ATOM     13  C   UNL     1       7.820   5.199  13.339  0.00  0.00    +0.000 A 
ATOM     14  N   UNL     1       7.464   5.174  14.632  0.00  0.00    +0.000 NA
ATOM     15  C   UNL     1       6.414   4.385  14.979  0.00  0.00    +0.000 A 
ATOM     16  C   UNL     1       5.736   3.590  14.058  0.00  0.00    +0.000 A 
BRANCH  13  17
ATOM     17  N   UNL     1       8.876   6.045  13.005  0.00  0.00    +0.000 N 
ATOM     18  H   UNL     1       8.589   6.749  12.337  0.00  0.00    +0.000 HD
ATOM     19  H   UNL     1       9.616   5.451  12.639  0.00  0.00    +0.000 HD
ENDBRANCH  13  17
ENDBRANCH   9  15
ENDBRANCH   8   9
ENDBRANCH   7   8
ENDBRANCH   1   7
BRANCH   3  20
ATOM     20  O   UNL     1       1.811   8.650  18.379  0.00  0.00    +0.000 OA
BRANCH  20  21
ATOM     21  C   UNL     1       1.362   8.969  19.702  0.00  0.00    +0.000 C 
BRANCH  21  22
ATOM     22  C   UNL     1       0.262   9.999  19.703  0.00  0.00    +0.000 A 
ATOM     23  C   UNL     1      -0.212  10.540  20.896  0.00  0.00    +0.000 A 
ATOM     24  C   UNL     1      -1.148  11.570  20.846  0.00  0.00    +0.000 A 
ATOM     25  C   UNL     1      -1.678  12.191  22.101  0.00  0.00    +0.000 C 
ATOM     26  C   UNL     1      -1.564  12.027  19.595  0.00  0.00    +0.000 A 
ATOM     27  C   UNL     1      -1.042  11.440  18.451  0.00  0.00    +0.000 A 
ATOM     28  N   UNL     1      -0.140  10.448  18.486  0.00  0.00    +0.000 NA
BRANCH  27  29
ATOM     29  N   UNL     1      -1.401  11.903  17.188  0.00  0.00    +0.000 N 
ATOM     30  H   UNL     1      -1.585  12.897  17.199  0.00  0.00    +0.000 HD
ATOM     31  H   UNL     1      -2.217  11.368  16.903  0.00  0.00    +0.000 HD
ENDBRANCH  27  29
ENDBRANCH  21  22
ENDBRANCH  20  21
ENDBRANCH   3  20
TORSDOF 9
ENDMDL
