MODEL 1
REMARK VINA RESULT:      -6.0      0.000      0.000
REMARK  Name = 
REMARK  9 active torsions:
REMARK  status: ('A' for Active; 'I' for Inactive)
REMARK    1  A    between atoms: C_1  and  C_2
REMARK    2  A    between atoms: C_3  and  N_4
REMARK    3  A    between atoms: N_8  and  C_9
REMARK    4  A    between atoms: C_9  and  C_10
REMARK    5  A    between atoms: C_10  and  O_11
REMARK    6  A    between atoms: O_11  and  C_12
REMARK    7  A    between atoms: C_12  and  P_13
REMARK    8  A    between atoms: P_13  and  O_15
REMARK    9  A    between atoms: P_13  and  O_16
REMARK                            x       y       z     vdW  Elec       q    Type
REMARK                         _______ _______ _______ _____ _____    ______ ____
ROOT
ATOM      1  C   UNL     1       1.967   3.795  19.083  0.00  0.00    +0.000 C 
ATOM      2  C   UNL     1       3.123   3.885  18.122  0.00  0.00    +0.000 A 
ATOM      3  C   UNL     1       3.921   2.885  17.727  0.00  0.00    +0.000 A 
ATOM      4  N   UNL     1       4.947   3.070  16.831  0.00  0.00    +0.000 NA
ATOM      5  C   UNL     1       5.191   4.257  16.374  0.00  0.00    +0.000 A 
ATOM      6  N   UNL     1       6.230   4.353  15.495  0.00  0.00    +0.000 N 
ATOM      7  N   UNL     1       4.476   5.371  16.741  0.00  0.00    +0.000 N 
ATOM      8  C   UNL     1       3.414   5.252  17.615  0.00  0.00    +0.000 A 
ATOM      9  O   UNL     1       2.740   6.202  18.014  0.00  0.00    +0.000 OA
ATOM     10  H   UNL     1       6.773   3.498  15.469  0.00  0.00    +0.000 HD
ATOM     11  H   UNL     1       6.803   5.179  15.522  0.00  0.00    +0.000 HD
ENDROOT
BRANCH   3  12
ATOM     12  N   UNL     1       3.765   1.594  18.190  0.00  0.00    +0.000 N 
ATOM     13  H   UNL     1       4.631   1.068  18.201  0.00  0.00    +0.000 HD
ATOM     14  H   UNL     1       3.340   1.639  19.111  0.00  0.00    +0.000 HD
ENDBRANCH   3  12
BRANCH   7  15
ATOM     15  C   UNL     1       4.822   6.708  16.251  0.00  0.00    +0.000 C 
BRANCH  15  16
ATOM     16  C   UNL     1       5.843   7.461  17.127  0.00  0.00    +0.000 C 
BRANCH  16  17
ATOM     17  O   UNL     1       7.201   7.014  16.988  0.00  0.00    +0.000 OA
BRANCH  17  18
ATOM     18  C   UNL     1       7.864   6.951  18.254  0.00  0.00    +0.000 C 
BRANCH  18  19
ATOM     19  P   UNL     1       7.589   5.442  19.151  0.00  0.00    +0.000 P 
ATOM     20  O   UNL     1       6.212   5.256  19.697  0.00  0.00    +0.000 OA
BRANCH  19  21
ATOM     21  O   UNL     1       7.916   4.234  18.144  0.00  0.00    +0.000 OA
ATOM     22  H   UNL     1       8.007   3.392  18.629  0.00  0.00    +0.000 HD
ENDBRANCH  19  21
BRANCH  19  23
ATOM     23  O   UNL     1       8.677   5.240  20.309  0.00  0.00    +0.000 OA
ATOM     24  H   UNL     1       9.255   4.474  20.141  0.00  0.00    +0.000 HD
ENDBRANCH  19  23
ENDBRANCH  18  19
ENDBRANCH  17  18
ENDBRANCH  16  17
ENDBRANCH  15  16
ENDBRANCH   7  15
TORSDOF 8
ENDMDL
MODEL 2
REMARK VINA RESULT:      -5.9      3.204      5.122
REMARK  Name = 
REMARK  9 active torsions:
REMARK  status: ('A' for Active; 'I' for Inactive)
REMARK    1  A    between atoms: C_1  and  C_2
REMARK    2  A    between atoms: C_3  and  N_4
REMARK    3  A    between atoms: N_8  and  C_9
REMARK    4  A    between atoms: C_9  and  C_10
REMARK    5  A    between atoms: C_10  and  O_11
REMARK    6  A    between atoms: O_11  and  C_12
REMARK    7  A    between atoms: C_12  and  P_13
REMARK    8  A    between atoms: P_13  and  O_15
REMARK    9  A    between atoms: P_13  and  O_16
REMARK                            x       y       z     vdW  Elec       q    Type
REMARK                         _______ _______ _______ _____ _____    ______ ____
ROOT
ATOM      1  C   UNL     1       5.458   3.630  14.098  0.00  0.00    +0.000 C 
ATOM      2  C   UNL     1       6.068   4.366  15.261  0.00  0.00    +0.000 A 
ATOM      3  C   UNL     1       7.108   5.210  15.223  0.00  0.00    +0.000 A 
ATOM      4  N   UNL     1       7.585   5.844  16.345  0.00  0.00    +0.000 NA
ATOM      5  C   UNL     1       7.046   5.598  17.497  0.00  0.00    +0.000 A 
ATOM      6  N   UNL     1       7.583   6.265  18.559  0.00  0.00    +0.000 N 
ATOM      7  N   UNL     1       6.009   4.715  17.673  0.00  0.00    +0.000 N 
ATOM      8  C   UNL     1       5.463   4.065  16.585  0.00  0.00    +0.000 A 
ATOM      9  O   UNL     1       4.551   3.241  16.660  0.00  0.00    +0.000 OA
ATOM     10  H   UNL     1       8.450   6.725  18.306  0.00  0.00    +0.000 HD
ATOM     11  H   UNL     1       7.637   5.790  19.443  0.00  0.00    +0.000 HD
ENDROOT
BRANCH   3  12
ATOM     12  N   UNL     1       7.772   5.505  14.049  0.00  0.00    +0.000 N 
ATOM     13  H   UNL     1       8.507   4.844  13.831  0.00  0.00    +0.000 HD
ATOM     14  H   UNL     1       7.084   5.564  13.304  0.00  0.00    +0.000 HD
ENDBRANCH   3  12
BRANCH   7  15
ATOM     15  C   UNL     1       5.468   4.414  19.002  0.00  0.00    +0.000 C 
BRANCH  15  16
ATOM     16  C   UNL     1       4.050   4.966  19.249  0.00  0.00    +0.000 C 
BRANCH  16  17
ATOM     17  O   UNL     1       3.246   4.183  20.146  0.00  0.00    +0.000 OA
BRANCH  17  18
ATOM     18  C   UNL     1       1.888   4.109  19.705  0.00  0.00    +0.000 C 
BRANCH  18  19
ATOM     19  P   UNL     1       1.572   2.824  18.517  0.00  0.00    +0.000 P 
ATOM     20  O   UNL     1       0.211   2.215  18.570  0.00  0.00    +0.000 OA
BRANCH  19  21
ATOM     21  O   UNL     1       1.797   3.468  17.063  0.00  0.00    +0.000 OA
ATOM     22  H   UNL     1       2.136   4.380  17.135  0.00  0.00    +0.000 HD
ENDBRANCH  19  21
BRANCH  19  23
ATOM     23  O   UNL     1       2.694   1.683  18.574  0.00  0.00    +0.000 OA
ATOM     24  H   UNL     1       2.892   1.318  17.694  0.00  0.00    +0.000 HD
ENDBRANCH  19  23
ENDBRANCH  18  19
ENDBRANCH  17  18
ENDBRANCH  16  17
ENDBRANCH  15  16
ENDBRANCH   7  15
TORSDOF 8
ENDMDL
MODEL 3
REMARK VINA RESULT:      -5.9      3.247      5.062
REMARK  Name = 
REMARK  9 active torsions:
REMARK  status: ('A' for Active; 'I' for Inactive)
REMARK    1  A    between atoms: C_1  and  C_2
REMARK    2  A    between atoms: C_3  and  N_4
REMARK    3  A    between atoms: N_8  and  C_9
REMARK    4  A    between atoms: C_9  and  C_10
REMARK    5  A    between atoms: C_10  and  O_11
REMARK    6  A    between atoms: O_11  and  C_12
REMARK    7  A    between atoms: C_12  and  P_13
REMARK    8  A    between atoms: P_13  and  O_15
REMARK    9  A    between atoms: P_13  and  O_16
REMARK                            x       y       z     vdW  Elec       q    Type
REMARK                         _______ _______ _______ _____ _____    ______ ____
ROOT
ATOM      1  C   UNL     1       5.364   3.914  14.084  0.00  0.00    +0.000 C 
ATOM      2  C   UNL     1       5.991   4.584  15.278  0.00  0.00    +0.000 A 
ATOM      3  C   UNL     1       7.121   5.303  15.295  0.00  0.00    +0.000 A 
ATOM      4  N   UNL     1       7.605   5.887  16.442  0.00  0.00    +0.000 NA
ATOM      5  C   UNL     1       6.980   5.713  17.562  0.00  0.00    +0.000 A 
ATOM      6  N   UNL     1       7.531   6.322  18.651  0.00  0.00    +0.000 N 
ATOM      7  N   UNL     1       5.840   4.956  17.682  0.00  0.00    +0.000 N 
ATOM      8  C   UNL     1       5.283   4.364  16.566  0.00  0.00    +0.000 A 
ATOM      9  O   UNL     1       4.280   3.651  16.592  0.00  0.00    +0.000 OA
ATOM     10  H   UNL     1       8.457   6.678  18.446  0.00  0.00    +0.000 HD
ATOM     11  H   UNL     1       7.481   5.851  19.538  0.00  0.00    +0.000 HD
ENDROOT
BRANCH   3  12
ATOM     12  N   UNL     1       7.878   5.511  14.160  0.00  0.00    +0.000 N 
ATOM     13  H   UNL     1       8.351   6.406  14.156  0.00  0.00    +0.000 HD
ATOM     14  H   UNL     1       8.532   4.738  14.072  0.00  0.00    +0.000 HD
ENDBRANCH   3  12
BRANCH   7  15
ATOM     15  C   UNL     1       5.195   4.729  18.979  0.00  0.00    +0.000 C 
BRANCH  15  16
ATOM     16  C   UNL     1       4.067   5.726  19.310  0.00  0.00    +0.000 C 
BRANCH  16  17
ATOM     17  O   UNL     1       2.755   5.147  19.383  0.00  0.00    +0.000 OA
BRANCH  17  18
ATOM     18  C   UNL     1       2.432   4.747  20.718  0.00  0.00    +0.000 C 
BRANCH  18  19
ATOM     19  P   UNL     1       1.739   3.115  20.845  0.00  0.00    +0.000 P 
ATOM     20  O   UNL     1       1.604   2.576  22.231  0.00  0.00    +0.000 OA
BRANCH  19  21
ATOM     21  O   UNL     1       0.285   3.171  20.167  0.00  0.00    +0.000 OA
ATOM     22  H   UNL     1       0.056   2.312  19.763  0.00  0.00    +0.000 HD
ENDBRANCH  19  21
BRANCH  19  23
ATOM     23  O   UNL     1       2.521   2.070  19.917  0.00  0.00    +0.000 OA
ATOM     24  H   UNL     1       2.968   1.379  20.437  0.00  0.00    +0.000 HD
ENDBRANCH  19  23
ENDBRANCH  18  19
ENDBRANCH  17  18
ENDBRANCH  16  17
ENDBRANCH  15  16
ENDBRANCH   7  15
TORSDOF 8
ENDMDL
MODEL 4
REMARK VINA RESULT:      -5.8      3.201      5.044
REMARK  Name = 
REMARK  9 active torsions:
REMARK  status: ('A' for Active; 'I' for Inactive)
REMARK    1  A    between atoms: C_1  and  C_2
REMARK    2  A    between atoms: C_3  and  N_4
REMARK    3  A    between atoms: N_8  and  C_9
REMARK    4  A    between atoms: C_9  and  C_10
REMARK    5  A    between atoms: C_10  and  O_11
REMARK    6  A    between atoms: O_11  and  C_12
REMARK    7  A    between atoms: C_12  and  P_13
REMARK    8  A    between atoms: P_13  and  O_15
REMARK    9  A    between atoms: P_13  and  O_16
REMARK                            x       y       z     vdW  Elec       q    Type
REMARK                         _______ _______ _______ _____ _____    ______ ____
ROOT
ATOM      1  C   UNL     1       5.338   3.885  13.920  0.00  0.00    +0.000 C 
ATOM      2  C   UNL     1       5.986   4.562  15.099  0.00  0.00    +0.000 A 
ATOM      3  C   UNL     1       7.109   5.292  15.090  0.00  0.00    +0.000 A 
ATOM      4  N   UNL     1       7.615   5.881  16.224  0.00  0.00    +0.000 NA
ATOM      5  C   UNL     1       7.018   5.700  17.360  0.00  0.00    +0.000 A 
ATOM      6  N   UNL     1       7.589   6.315  18.435  0.00  0.00    +0.000 N 
ATOM      7  N   UNL     1       5.889   4.933  17.506  0.00  0.00    +0.000 N 
ATOM      8  C   UNL     1       5.312   4.335  16.404  0.00  0.00    +0.000 A 
ATOM      9  O   UNL     1       4.317   3.612  16.453  0.00  0.00    +0.000 OA
ATOM     10  H   UNL     1       8.506   6.680  18.208  0.00  0.00    +0.000 HD
ATOM     11  H   UNL     1       7.564   5.844  19.323  0.00  0.00    +0.000 HD
ENDROOT
BRANCH   3  12
ATOM     12  N   UNL     1       7.838   5.507  13.937  0.00  0.00    +0.000 N 
ATOM     13  H   UNL     1       8.799   5.769  14.117  0.00  0.00    +0.000 HD
ATOM     14  H   UNL     1       7.775   4.670  13.364  0.00  0.00    +0.000 HD
ENDBRANCH   3  12
BRANCH   7  15
ATOM     15  C   UNL     1       5.278   4.700  18.818  0.00  0.00    +0.000 C 
BRANCH  15  16
ATOM     16  C   UNL     1       4.228   5.752  19.224  0.00  0.00    +0.000 C 
BRANCH  16  17
ATOM     17  O   UNL     1       2.864   5.313  19.122  0.00  0.00    +0.000 OA
BRANCH  17  18
ATOM     18  C   UNL     1       2.306   5.030  20.409  0.00  0.00    +0.000 C 
BRANCH  18  19
ATOM     19  P   UNL     1       1.915   3.317  20.677  0.00  0.00    +0.000 P 
ATOM     20  O   UNL     1       2.793   2.335  19.976  0.00  0.00    +0.000 OA
BRANCH  19  21
ATOM     21  O   UNL     1       2.009   3.059  22.260  0.00  0.00    +0.000 OA
ATOM     22  H   UNL     1       1.136   3.168  22.682  0.00  0.00    +0.000 HD
ENDBRANCH  19  21
BRANCH  19  23
ATOM     23  O   UNL     1       0.375   3.010  20.361  0.00  0.00    +0.000 OA
ATOM     24  H   UNL     1       0.100   2.135  20.688  0.00  0.00    +0.000 HD
ENDBRANCH  19  23
ENDBRANCH  18  19
ENDBRANCH  17  18
ENDBRANCH  16  17
ENDBRANCH  15  16
ENDBRANCH   7  15
TORSDOF 8
ENDMDL
MODEL 5
REMARK VINA RESULT:      -5.8      3.038      5.008
REMARK  Name = 
REMARK  9 active torsions:
REMARK  status: ('A' for Active; 'I' for Inactive)
REMARK    1  A    between atoms: C_1  and  C_2
REMARK    2  A    between atoms: C_3  and  N_4
REMARK    3  A    between atoms: N_8  and  C_9
REMARK    4  A    between atoms: C_9  and  C_10
REMARK    5  A    between atoms: C_10  and  O_11
REMARK    6  A    between atoms: O_11  and  C_12
REMARK    7  A    between atoms: C_12  and  P_13
REMARK    8  A    between atoms: P_13  and  O_15
REMARK    9  A    between atoms: P_13  and  O_16
REMARK                            x       y       z     vdW  Elec       q    Type
REMARK                         _______ _______ _______ _____ _____    ______ ____
ROOT
ATOM      1  C   UNL     1       5.416   3.836  13.658  0.00  0.00    +0.000 C 
ATOM      2  C   UNL     1       5.951   4.615  14.830  0.00  0.00    +0.000 A 
ATOM      3  C   UNL     1       7.093   5.314  14.878  0.00  0.00    +0.000 A 
ATOM      4  N   UNL     1       7.489   6.004  15.999  0.00  0.00    +0.000 NA
ATOM      5  C   UNL     1       6.764   5.954  17.071  0.00  0.00    +0.000 A 
ATOM      6  N   UNL     1       7.232   6.663  18.138  0.00  0.00    +0.000 N 
ATOM      7  N   UNL     1       5.599   5.232  17.163  0.00  0.00    +0.000 N 
ATOM      8  C   UNL     1       5.128   4.539  16.066  0.00  0.00    +0.000 A 
ATOM      9  O   UNL     1       4.109   3.848  16.072  0.00  0.00    +0.000 OA
ATOM     10  H   UNL     1       8.181   6.981  17.983  0.00  0.00    +0.000 HD
ATOM     11  H   UNL     1       7.093   6.285  19.059  0.00  0.00    +0.000 HD
ENDROOT
BRANCH   3  12
ATOM     12  N   UNL     1       7.952   5.393  13.800  0.00  0.00    +0.000 N 
ATOM     13  H   UNL     1       8.455   4.531  13.628  0.00  0.00    +0.000 HD
ATOM     14  H   UNL     1       7.413   5.684  12.989  0.00  0.00    +0.000 HD
ENDBRANCH   3  12
BRANCH   7  15
ATOM     15  C   UNL     1       4.838   5.149  18.413  0.00  0.00    +0.000 C 
BRANCH  15  16
ATOM     16  C   UNL     1       5.353   4.082  19.399  0.00  0.00    +0.000 C 
BRANCH  16  17
ATOM     17  O   UNL     1       4.469   2.968  19.596  0.00  0.00    +0.000 OA
BRANCH  17  18
ATOM     18  C   UNL     1       3.104   3.338  19.384  0.00  0.00    +0.000 C 
BRANCH  18  19
ATOM     19  P   UNL     1       2.178   3.608  20.878  0.00  0.00    +0.000 P 
ATOM     20  O   UNL     1       2.588   2.782  22.051  0.00  0.00    +0.000 OA
BRANCH  19  21
ATOM     21  O   UNL     1       2.343   5.161  21.254  0.00  0.00    +0.000 OA
ATOM     22  H   UNL     1       1.680   5.704  20.787  0.00  0.00    +0.000 HD
ENDBRANCH  19  21
BRANCH  19  23
ATOM     23  O   UNL     1       0.602   3.472  20.625  0.00  0.00    +0.000 OA
ATOM     24  H   UNL     1       0.353   2.577  20.335  0.00  0.00    +0.000 HD
ENDBRANCH  19  23
ENDBRANCH  18  19
ENDBRANCH  17  18
ENDBRANCH  16  17
ENDBRANCH  15  16
ENDBRANCH   7  15
TORSDOF 8
ENDMDL
MODEL 6
REMARK VINA RESULT:      -5.8      2.598      3.579
REMARK  Name = 
REMARK  9 active torsions:
REMARK  status: ('A' for Active; 'I' for Inactive)
REMARK    1  A    between atoms: C_1  and  C_2
REMARK    2  A    between atoms: C_3  and  N_4
REMARK    3  A    between atoms: N_8  and  C_9
REMARK    4  A    between atoms: C_9  and  C_10
REMARK    5  A    between atoms: C_10  and  O_11
REMARK    6  A    between atoms: O_11  and  C_12
REMARK    7  A    between atoms: C_12  and  P_13
REMARK    8  A    between atoms: P_13  and  O_15
REMARK    9  A    between atoms: P_13  and  O_16
REMARK                            x       y       z     vdW  Elec       q    Type
REMARK                         _______ _______ _______ _____ _____    ______ ____
ROOT
ATOM      1  C   UNL     1       2.872   1.777  18.981  0.00  0.00    +0.000 C 
ATOM      2  C   UNL     1       2.643   3.173  19.496  0.00  0.00    +0.000 A 
ATOM      3  C   UNL     1       2.379   3.532  20.759  0.00  0.00    +0.000 A 
ATOM      4  N   UNL     1       2.196   4.842  21.131  0.00  0.00    +0.000 NA
ATOM      5  C   UNL     1       2.236   5.774  20.232  0.00  0.00    +0.000 A 
ATOM      6  N   UNL     1       2.039   7.045  20.686  0.00  0.00    +0.000 N 
ATOM      7  N   UNL     1       2.448   5.529  18.898  0.00  0.00    +0.000 N 
ATOM      8  C   UNL     1       2.667   4.238  18.459  0.00  0.00    +0.000 A 
ATOM      9  O   UNL     1       2.838   3.930  17.279  0.00  0.00    +0.000 OA
ATOM     10  H   UNL     1       1.711   7.049  21.644  0.00  0.00    +0.000 HD
ATOM     11  H   UNL     1       1.538   7.689  20.099  0.00  0.00    +0.000 HD
ENDROOT
BRANCH   3  12
ATOM     12  N   UNL     1       2.277   2.607  21.780  0.00  0.00    +0.000 N 
ATOM     13  H   UNL     1       3.022   2.683  22.460  0.00  0.00    +0.000 HD
ATOM     14  H   UNL     1       1.362   2.712  22.208  0.00  0.00    +0.000 HD
ENDBRANCH   3  12
BRANCH   7  15
ATOM     15  C   UNL     1       2.423   6.603  17.901  0.00  0.00    +0.000 C 
BRANCH  15  16
ATOM     16  C   UNL     1       3.816   7.128  17.500  0.00  0.00    +0.000 C 
BRANCH  16  17
ATOM     17  O   UNL     1       4.913   6.519  18.199  0.00  0.00    +0.000 OA
BRANCH  17  18
ATOM     18  C   UNL     1       6.007   6.243  17.319  0.00  0.00    +0.000 C 
BRANCH  18  19
ATOM     19  P   UNL     1       6.555   4.552  17.339  0.00  0.00    +0.000 P 
ATOM     20  O   UNL     1       8.002   4.338  17.041  0.00  0.00    +0.000 OA
BRANCH  19  21
ATOM     21  O   UNL     1       6.236   3.976  18.804  0.00  0.00    +0.000 OA
ATOM     22  H   UNL     1       5.785   3.113  18.747  0.00  0.00    +0.000 HD
ENDBRANCH  19  21
BRANCH  19  23
ATOM     23  O   UNL     1       5.650   3.629  16.393  0.00  0.00    +0.000 OA
ATOM     24  H   UNL     1       5.185   2.936  16.892  0.00  0.00    +0.000 HD
ENDBRANCH  19  23
ENDBRANCH  18  19
ENDBRANCH  17  18
ENDBRANCH  16  17
ENDBRANCH  15  16
ENDBRANCH   7  15
TORSDOF 8
ENDMDL
MODEL 7
REMARK VINA RESULT:      -5.8      2.539      3.420
REMARK  Name = 
REMARK  9 active torsions:
REMARK  status: ('A' for Active; 'I' for Inactive)
REMARK    1  A    between atoms: C_1  and  C_2
REMARK    2  A    between atoms: C_3  and  N_4
REMARK    3  A    between atoms: N_8  and  C_9
REMARK    4  A    between atoms: C_9  and  C_10
REMARK    5  A    between atoms: C_10  and  O_11
REMARK    6  A    between atoms: O_11  and  C_12
REMARK    7  A    between atoms: C_12  and  P_13
REMARK    8  A    between atoms: P_13  and  O_15
REMARK    9  A    between atoms: P_13  and  O_16
REMARK                            x       y       z     vdW  Elec       q    Type
REMARK                         _______ _______ _______ _____ _____    ______ ____
ROOT
ATOM      1  C   UNL     1       1.216   1.808  18.822  0.00  0.00    +0.000 C 
ATOM      2  C   UNL     1       1.515   3.191  19.339  0.00  0.00    +0.000 A 
ATOM      3  C   UNL     1       1.394   3.621  20.601  0.00  0.00    +0.000 A 
ATOM      4  N   UNL     1       1.705   4.907  20.975  0.00  0.00    +0.000 NA
ATOM      5  C   UNL     1       2.094   5.757  20.079  0.00  0.00    +0.000 A 
ATOM      6  N   UNL     1       2.378   7.011  20.535  0.00  0.00    +0.000 N 
ATOM      7  N   UNL     1       2.211   5.451  18.745  0.00  0.00    +0.000 N 
ATOM      8  C   UNL     1       1.940   4.171  18.305  0.00  0.00    +0.000 A 
ATOM      9  O   UNL     1       1.995   3.821  17.126  0.00  0.00    +0.000 OA
ATOM     10  H   UNL     1       2.068   7.137  21.491  0.00  0.00    +0.000 HD
ATOM     11  H   UNL     1       2.155   7.795  19.945  0.00  0.00    +0.000 HD
ENDROOT
BRANCH   3  12
ATOM     12  N   UNL     1       0.949   2.801  21.618  0.00  0.00    +0.000 N 
ATOM     13  H   UNL     1       0.975   1.818  21.377  0.00  0.00    +0.000 HD
ATOM     14  H   UNL     1       1.500   3.001  22.448  0.00  0.00    +0.000 HD
ENDBRANCH   3  12
BRANCH   7  15
ATOM     15  C   UNL     1       2.593   6.458  17.751  0.00  0.00    +0.000 C 
BRANCH  15  16
ATOM     16  C   UNL     1       4.107   6.736  17.680  0.00  0.00    +0.000 C 
BRANCH  16  17
ATOM     17  O   UNL     1       4.936   5.563  17.693  0.00  0.00    +0.000 OA
BRANCH  17  18
ATOM     18  C   UNL     1       5.578   5.388  18.960  0.00  0.00    +0.000 C 
BRANCH  18  19
ATOM     19  P   UNL     1       7.353   5.456  18.897  0.00  0.00    +0.000 P 
ATOM     20  O   UNL     1       8.016   4.361  18.130  0.00  0.00    +0.000 OA
BRANCH  19  21
ATOM     21  O   UNL     1       7.742   6.865  18.231  0.00  0.00    +0.000 OA
ATOM     22  H   UNL     1       7.012   7.506  18.323  0.00  0.00    +0.000 HD
ENDBRANCH  19  21
BRANCH  19  23
ATOM     23  O   UNL     1       7.989   5.571  20.363  0.00  0.00    +0.000 OA
ATOM     24  H   UNL     1       8.907   5.892  20.340  0.00  0.00    +0.000 HD
ENDBRANCH  19  23
ENDBRANCH  18  19
ENDBRANCH  17  18
ENDBRANCH  16  17
ENDBRANCH  15  16
ENDBRANCH   7  15
TORSDOF 8
ENDMDL
MODEL 8
REMARK VINA RESULT:      -5.8      3.180      5.255
REMARK  Name = 
REMARK  9 active torsions:
REMARK  status: ('A' for Active; 'I' for Inactive)
REMARK    1  A    between atoms: C_1  and  C_2
REMARK    2  A    between atoms: C_3  and  N_4
REMARK    3  A    between atoms: N_8  and  C_9
REMARK    4  A    between atoms: C_9  and  C_10
REMARK    5  A    between atoms: C_10  and  O_11
REMARK    6  A    between atoms: O_11  and  C_12
REMARK    7  A    between atoms: C_12  and  P_13
REMARK    8  A    between atoms: P_13  and  O_15
REMARK    9  A    between atoms: P_13  and  O_16
REMARK                            x       y       z     vdW  Elec       q    Type
REMARK                         _______ _______ _______ _____ _____    ______ ____
ROOT
ATOM      1  C   UNL     1       5.350   3.884  13.759  0.00  0.00    +0.000 C 
ATOM      2  C   UNL     1       5.906   4.601  14.961  0.00  0.00    +0.000 A 
ATOM      3  C   UNL     1       7.071   5.258  15.038  0.00  0.00    +0.000 A 
ATOM      4  N   UNL     1       7.486   5.893  16.184  0.00  0.00    +0.000 NA
ATOM      5  C   UNL     1       6.754   5.830  17.251  0.00  0.00    +0.000 A 
ATOM      6  N   UNL     1       7.242   6.483  18.345  0.00  0.00    +0.000 N 
ATOM      7  N   UNL     1       5.565   5.146  17.313  0.00  0.00    +0.000 N 
ATOM      8  C   UNL     1       5.075   4.509  16.190  0.00  0.00    +0.000 A 
ATOM      9  O   UNL     1       4.033   3.854  16.168  0.00  0.00    +0.000 OA
ATOM     10  H   UNL     1       8.202   6.774  18.204  0.00  0.00    +0.000 HD
ATOM     11  H   UNL     1       7.085   6.078  19.251  0.00  0.00    +0.000 HD
ENDROOT
BRANCH   3  12
ATOM     12  N   UNL     1       7.938   5.346  13.966  0.00  0.00    +0.000 N 
ATOM     13  H   UNL     1       8.646   4.622  13.968  0.00  0.00    +0.000 HD
ATOM     14  H   UNL     1       7.386   5.332  13.113  0.00  0.00    +0.000 HD
ENDBRANCH   3  12
BRANCH   7  15
ATOM     15  C   UNL     1       4.795   5.045  18.556  0.00  0.00    +0.000 C 
BRANCH  15  16
ATOM     16  C   UNL     1       4.922   3.685  19.271  0.00  0.00    +0.000 C 
BRANCH  16  17
ATOM     17  O   UNL     1       3.733   3.247  19.947  0.00  0.00    +0.000 OA
BRANCH  17  18
ATOM     18  C   UNL     1       2.945   2.388  19.118  0.00  0.00    +0.000 C 
BRANCH  18  19
ATOM     19  P   UNL     1       1.343   3.038  18.705  0.00  0.00    +0.000 P 
ATOM     20  O   UNL     1       0.268   2.023  18.495  0.00  0.00    +0.000 OA
BRANCH  19  21
ATOM     21  O   UNL     1       0.910   4.011  19.906  0.00  0.00    +0.000 OA
ATOM     22  H   UNL     1       1.606   4.052  20.589  0.00  0.00    +0.000 HD
ENDBRANCH  19  21
BRANCH  19  23
ATOM     23  O   UNL     1       1.417   4.034  17.453  0.00  0.00    +0.000 OA
ATOM     24  H   UNL     1       1.723   3.586  16.645  0.00  0.00    +0.000 HD
ENDBRANCH  19  23
ENDBRANCH  18  19
ENDBRANCH  17  18
ENDBRANCH  16  17
ENDBRANCH  15  16
ENDBRANCH   7  15
TORSDOF 8
ENDMDL
MODEL 9
REMARK VINA RESULT:      -5.8      1.783      2.754
REMARK  Name = 
REMARK  9 active torsions:
REMARK  status: ('A' for Active; 'I' for Inactive)
REMARK    1  A    between atoms: C_1  and  C_2
REMARK    2  A    between atoms: C_3  and  N_4
REMARK    3  A    between atoms: N_8  and  C_9
REMARK    4  A    between atoms: C_9  and  C_10
REMARK    5  A    between atoms: C_10  and  O_11
REMARK    6  A    between atoms: O_11  and  C_12
REMARK    7  A    between atoms: C_12  and  P_13
REMARK    8  A    between atoms: P_13  and  O_15
REMARK    9  A    between atoms: P_13  and  O_16
REMARK                            x       y       z     vdW  Elec       q    Type
REMARK                         _______ _______ _______ _____ _____    ______ ____
ROOT
ATOM      1  C   UNL     1       2.254   3.943  19.433  0.00  0.00    +0.000 C 
ATOM      2  C   UNL     1       3.073   4.851  18.555  0.00  0.00    +0.000 A 
ATOM      3  C   UNL     1       3.191   6.181  18.663  0.00  0.00    +0.000 A 
ATOM      4  N   UNL     1       3.978   6.922  17.813  0.00  0.00    +0.000 NA
ATOM      5  C   UNL     1       4.602   6.335  16.842  0.00  0.00    +0.000 A 
ATOM      6  N   UNL     1       5.355   7.144  16.044  0.00  0.00    +0.000 N 
ATOM      7  N   UNL     1       4.519   4.986  16.597  0.00  0.00    +0.000 N 
ATOM      8  C   UNL     1       3.770   4.178  17.429  0.00  0.00    +0.000 A 
ATOM      9  O   UNL     1       3.623   2.966  17.264  0.00  0.00    +0.000 OA
ATOM     10  H   UNL     1       5.168   8.123  16.229  0.00  0.00    +0.000 HD
ATOM     11  H   UNL     1       5.404   6.934  15.062  0.00  0.00    +0.000 HD
ENDROOT
BRANCH   3  12
ATOM     12  N   UNL     1       2.534   6.901  19.640  0.00  0.00    +0.000 N 
ATOM     13  H   UNL     1       1.577   7.124  19.394  0.00  0.00    +0.000 HD
ATOM     14  H   UNL     1       2.588   6.376  20.508  0.00  0.00    +0.000 HD
ENDBRANCH   3  12
BRANCH   7  15
ATOM     15  C   UNL     1       5.189   4.366  15.450  0.00  0.00    +0.000 C 
BRANCH  15  16
ATOM     16  C   UNL     1       6.654   3.963  15.713  0.00  0.00    +0.000 C 
BRANCH  16  17
ATOM     17  O   UNL     1       7.419   4.927  16.454  0.00  0.00    +0.000 OA
BRANCH  17  18
ATOM     18  C   UNL     1       7.772   4.432  17.749  0.00  0.00    +0.000 C 
BRANCH  18  19
ATOM     19  P   UNL     1       7.745   5.660  19.035  0.00  0.00    +0.000 P 
ATOM     20  O   UNL     1       8.039   7.057  18.599  0.00  0.00    +0.000 OA
BRANCH  19  21
ATOM     21  O   UNL     1       6.280   5.618  19.690  0.00  0.00    +0.000 OA
ATOM     22  H   UNL     1       6.039   4.707  19.945  0.00  0.00    +0.000 HD
ENDBRANCH  19  21
BRANCH  19  23
ATOM     23  O   UNL     1       8.692   5.249  20.260  0.00  0.00    +0.000 OA
ATOM     24  H   UNL     1       8.330   4.502  20.769  0.00  0.00    +0.000 HD
ENDBRANCH  19  23
ENDBRANCH  18  19
ENDBRANCH  17  18
ENDBRANCH  16  17
ENDBRANCH  15  16
ENDBRANCH   7  15
TORSDOF 8
ENDMDL
