MODEL 1
REMARK VINA RESULT:      -6.1      0.000      0.000
REMARK  Name = 
REMARK  16 active torsions:
REMARK  status: ('A' for Active; 'I' for Inactive)
REMARK    1  A    between atoms: C_1  and  C_2
REMARK    2  A    between atoms: C_2  and  C_3
REMARK    3  A    between atoms: C_3  and  C_4
REMARK    4  A    between atoms: C_4  and  C_5
REMARK    5  A    between atoms: C_5  and  C_6
REMARK    6  A    between atoms: C_7  and  C_8
REMARK    7  A    between atoms: C_8  and  C_9
REMARK    8  A    between atoms: C_10  and  C_11
REMARK    9  A    between atoms: C_11  and  C_12
REMARK   10  A    between atoms: C_13  and  C_14
REMARK   11  A    between atoms: C_14  and  C_15
REMARK   12  A    between atoms: C_16  and  C_17
REMARK   13  A    between atoms: C_17  and  C_18
REMARK   14  A    between atoms: C_18  and  C_19
REMARK   15  A    between atoms: C_19  and  C_20
REMARK   16  A    between atoms: N_22  and  O_23
REMARK                            x       y       z     vdW  Elec       q    Type
REMARK                         _______ _______ _______ _____ _____    ______ ____
ROOT
ATOM      1  C   UNL     1       6.352   6.417  18.492  0.00  0.00    +0.000 C 
ATOM      2  C   UNL     1       7.543   6.805  18.004  0.00  0.00    +0.000 C 
ENDROOT
BRANCH   1   3
ATOM      3  C   UNL     1       6.134   5.129  19.226  0.00  0.00    +0.000 C 
BRANCH   3   5
ATOM      4  C   UNL     1       5.016   4.256  17.155  0.00  0.00    +0.000 C 
ATOM      5  C   UNL     1       5.174   4.244  18.489  0.00  0.00    +0.000 C 
BRANCH   4   6
ATOM      6  C   UNL     1       4.031   3.392  16.428  0.00  0.00    +0.000 C 
BRANCH   6   8
ATOM      7  C   UNL     1       2.428   2.279  17.998  0.00  0.00    +0.000 C 
ATOM      8  C   UNL     1       2.738   3.295  17.179  0.00  0.00    +0.000 C 
BRANCH   7   9
ATOM      9  C   UNL     1       1.129   2.190  18.739  0.00  0.00    +0.000 C 
BRANCH   9  10
ATOM     10  C   UNL     1       0.886   3.451  19.564  0.00  0.00    +0.000 C 
BRANCH  10  11
ATOM     11  C   UNL     1       2.003   3.646  20.586  0.00  0.00    +0.000 C 
BRANCH  11  13
ATOM     12  C   UNL     1       2.397   5.987  19.774  0.00  0.00    +0.000 C 
ATOM     13  C   UNL     1       2.135   5.112  20.987  0.00  0.00    +0.000 C 
ENDBRANCH  11  13
ENDBRANCH  10  11
ENDBRANCH   9  10
ENDBRANCH   7   9
ENDBRANCH   6   8
ENDBRANCH   4   6
ENDBRANCH   3   5
ENDBRANCH   1   3
BRANCH   2  14
ATOM     14  C   UNL     1       7.771   8.108  17.303  0.00  0.00    +0.000 C 
BRANCH  14  15
ATOM     15  C   UNL     1       8.232   9.166  18.261  0.00  0.00    +0.000 C 
ATOM     16  C   UNL     1       9.107  10.131  17.939  0.00  0.00    +0.000 C 
BRANCH  16  17
ATOM     17  C   UNL     1       9.561  11.199  18.894  0.00  0.00    +0.000 C 
BRANCH  17  18
ATOM     18  C   UNL     1      10.704  12.041  18.324  0.00  0.00    +0.000 C 
BRANCH  18  19
ATOM     19  C   UNL     1      10.570  13.533  18.638  0.00  0.00    +0.000 C 
BRANCH  19  20
ATOM     20  C   UNL     1      11.094  14.397  17.512  0.00  0.00    +0.000 C 
ATOM     21  O   UNL     1      12.264  14.423  17.135  0.00  0.00    +0.000 OA
ATOM     22  N   UNL     1      10.128  15.173  16.922  0.00  0.00    +0.000 N 
ATOM     23  H   UNL     1       9.145  15.178  17.169  0.00  0.00    +0.000 HD
BRANCH  22  24
ATOM     24  O   UNL     1      10.538  15.993  15.849  0.00  0.00    +0.000 OA
ATOM     25  H   UNL     1       9.680  16.324  15.501  0.00  0.00    +0.000 HD
ENDBRANCH  22  24
ENDBRANCH  19  20
ENDBRANCH  18  19
ENDBRANCH  17  18
ENDBRANCH  16  17
ENDBRANCH  14  15
ENDBRANCH   2  14
TORSDOF 15
ENDMDL
MODEL 2
REMARK VINA RESULT:      -6.1      2.053      2.338
REMARK  Name = 
REMARK  16 active torsions:
REMARK  status: ('A' for Active; 'I' for Inactive)
REMARK    1  A    between atoms: C_1  and  C_2
REMARK    2  A    between atoms: C_2  and  C_3
REMARK    3  A    between atoms: C_3  and  C_4
REMARK    4  A    between atoms: C_4  and  C_5
REMARK    5  A    between atoms: C_5  and  C_6
REMARK    6  A    between atoms: C_7  and  C_8
REMARK    7  A    between atoms: C_8  and  C_9
REMARK    8  A    between atoms: C_10  and  C_11
REMARK    9  A    between atoms: C_11  and  C_12
REMARK   10  A    between atoms: C_13  and  C_14
REMARK   11  A    between atoms: C_14  and  C_15
REMARK   12  A    between atoms: C_16  and  C_17
REMARK   13  A    between atoms: C_17  and  C_18
REMARK   14  A    between atoms: C_18  and  C_19
REMARK   15  A    between atoms: C_19  and  C_20
REMARK   16  A    between atoms: N_22  and  O_23
REMARK                            x       y       z     vdW  Elec       q    Type
REMARK                         _______ _______ _______ _____ _____    ______ ____
ROOT
ATOM      1  C   UNL     1       6.222   7.012  16.636  0.00  0.00    +0.000 C 
ATOM      2  C   UNL     1       6.779   6.681  17.814  0.00  0.00    +0.000 C 
ENDROOT
BRANCH   1   3
ATOM      3  C   UNL     1       4.939   6.425  16.131  0.00  0.00    +0.000 C 
BRANCH   3   5
ATOM      4  C   UNL     1       4.613   3.955  16.438  0.00  0.00    +0.000 C 
ATOM      5  C   UNL     1       4.555   5.208  16.919  0.00  0.00    +0.000 C 
BRANCH   4   6
ATOM      6  C   UNL     1       4.196   2.747  17.220  0.00  0.00    +0.000 C 
BRANCH   6   8
ATOM      7  C   UNL     1       2.036   2.421  18.444  0.00  0.00    +0.000 C 
ATOM      8  C   UNL     1       3.179   3.099  18.262  0.00  0.00    +0.000 C 
BRANCH   7   9
ATOM      9  C   UNL     1       1.023   2.786  19.486  0.00  0.00    +0.000 C 
BRANCH   9  10
ATOM     10  C   UNL     1       1.624   2.684  20.886  0.00  0.00    +0.000 C 
BRANCH  10  11
ATOM     11  C   UNL     1       2.056   4.060  21.386  0.00  0.00    +0.000 C 
BRANCH  11  13
ATOM     12  C   UNL     1       2.357   6.106  19.965  0.00  0.00    +0.000 C 
ATOM     13  C   UNL     1       1.352   5.173  20.618  0.00  0.00    +0.000 C 
ENDBRANCH  11  13
ENDBRANCH  10  11
ENDBRANCH   9  10
ENDBRANCH   7   9
ENDBRANCH   6   8
ENDBRANCH   4   6
ENDBRANCH   3   5
ENDBRANCH   1   3
BRANCH   2  14
ATOM     14  C   UNL     1       8.042   7.292  18.338  0.00  0.00    +0.000 C 
BRANCH  14  15
ATOM     15  C   UNL     1       8.148   8.736  17.946  0.00  0.00    +0.000 C 
ATOM     16  C   UNL     1       8.891   9.635  18.610  0.00  0.00    +0.000 C 
BRANCH  16  17
ATOM     17  C   UNL     1       9.008  11.079  18.212  0.00  0.00    +0.000 C 
BRANCH  17  18
ATOM     18  C   UNL     1      10.464  11.520  18.044  0.00  0.00    +0.000 C 
BRANCH  18  19
ATOM     19  C   UNL     1      11.274  11.437  19.339  0.00  0.00    +0.000 C 
BRANCH  19  20
ATOM     20  C   UNL     1      10.726  12.355  20.410  0.00  0.00    +0.000 C 
ATOM     21  O   UNL     1      10.028  11.990  21.354  0.00  0.00    +0.000 OA
ATOM     22  N   UNL     1      11.083  13.668  20.239  0.00  0.00    +0.000 N 
ATOM     23  H   UNL     1      11.675  14.028  19.499  0.00  0.00    +0.000 HD
BRANCH  22  24
ATOM     24  O   UNL     1      10.624  14.583  21.211  0.00  0.00    +0.000 OA
ATOM     25  H   UNL     1      10.618  15.430  20.713  0.00  0.00    +0.000 HD
ENDBRANCH  22  24
ENDBRANCH  19  20
ENDBRANCH  18  19
ENDBRANCH  17  18
ENDBRANCH  16  17
ENDBRANCH  14  15
ENDBRANCH   2  14
TORSDOF 15
ENDMDL
MODEL 3
REMARK VINA RESULT:      -6.1      6.465     10.764
REMARK  Name = 
REMARK  16 active torsions:
REMARK  status: ('A' for Active; 'I' for Inactive)
REMARK    1  A    between atoms: C_1  and  C_2
REMARK    2  A    between atoms: C_2  and  C_3
REMARK    3  A    between atoms: C_3  and  C_4
REMARK    4  A    between atoms: C_4  and  C_5
REMARK    5  A    between atoms: C_5  and  C_6
REMARK    6  A    between atoms: C_7  and  C_8
REMARK    7  A    between atoms: C_8  and  C_9
REMARK    8  A    between atoms: C_10  and  C_11
REMARK    9  A    between atoms: C_11  and  C_12
REMARK   10  A    between atoms: C_13  and  C_14
REMARK   11  A    between atoms: C_14  and  C_15
REMARK   12  A    between atoms: C_16  and  C_17
REMARK   13  A    between atoms: C_17  and  C_18
REMARK   14  A    between atoms: C_18  and  C_19
REMARK   15  A    between atoms: C_19  and  C_20
REMARK   16  A    between atoms: N_22  and  O_23
REMARK                            x       y       z     vdW  Elec       q    Type
REMARK                         _______ _______ _______ _____ _____    ______ ____
ROOT
ATOM      1  C   UNL     1       8.294   8.153  18.234  0.00  0.00    +0.000 C 
ATOM      2  C   UNL     1       7.482   7.313  17.567  0.00  0.00    +0.000 C 
ENDROOT
BRANCH   1   3
ATOM      3  C   UNL     1       8.365   9.625  17.967  0.00  0.00    +0.000 C 
BRANCH   3   5
ATOM      4  C   UNL     1      10.240  11.076  18.792  0.00  0.00    +0.000 C 
ATOM      5  C   UNL     1       9.150  10.329  19.033  0.00  0.00    +0.000 C 
BRANCH   4   6
ATOM      6  C   UNL     1      11.038  11.750  19.866  0.00  0.00    +0.000 C 
BRANCH   6   8
ATOM      7  C   UNL     1       9.759  13.233  21.426  0.00  0.00    +0.000 C 
ATOM      8  C   UNL     1      10.201  12.015  21.079  0.00  0.00    +0.000 C 
BRANCH   7   9
ATOM      9  C   UNL     1       8.926  13.487  22.645  0.00  0.00    +0.000 C 
BRANCH   9  10
ATOM     10  C   UNL     1       8.566  12.176  23.339  0.00  0.00    +0.000 C 
BRANCH  10  11
ATOM     11  C   UNL     1       7.083  11.864  23.159  0.00  0.00    +0.000 C 
BRANCH  11  13
ATOM     12  C   UNL     1       7.280  11.983  25.658  0.00  0.00    +0.000 C 
ATOM     13  C   UNL     1       6.325  12.000  24.477  0.00  0.00    +0.000 C 
ENDBRANCH  11  13
ENDBRANCH  10  11
ENDBRANCH   9  10
ENDBRANCH   7   9
ENDBRANCH   6   8
ENDBRANCH   4   6
ENDBRANCH   3   5
ENDBRANCH   1   3
BRANCH   2  14
ATOM     14  C   UNL     1       7.383   5.847  17.857  0.00  0.00    +0.000 C 
BRANCH  14  15
ATOM     15  C   UNL     1       6.163   5.537  18.673  0.00  0.00    +0.000 C 
ATOM     16  C   UNL     1       4.918   5.524  18.175  0.00  0.00    +0.000 C 
BRANCH  16  17
ATOM     17  C   UNL     1       3.696   5.203  18.988  0.00  0.00    +0.000 C 
BRANCH  17  18
ATOM     18  C   UNL     1       2.399   5.491  18.228  0.00  0.00    +0.000 C 
BRANCH  18  19
ATOM     19  C   UNL     1       1.623   4.226  17.854  0.00  0.00    +0.000 C 
BRANCH  19  20
ATOM     20  C   UNL     1       1.552   3.245  19.004  0.00  0.00    +0.000 C 
ATOM     21  O   UNL     1       2.098   2.144  19.019  0.00  0.00    +0.000 OA
ATOM     22  N   UNL     1       0.809   3.699  20.064  0.00  0.00    +0.000 N 
ATOM     23  H   UNL     1       0.357   4.604  20.124  0.00  0.00    +0.000 HD
BRANCH  22  24
ATOM     24  O   UNL     1       0.712   2.845  21.185  0.00  0.00    +0.000 OA
ATOM     25  H   UNL     1       0.705   1.955  20.767  0.00  0.00    +0.000 HD
ENDBRANCH  22  24
ENDBRANCH  19  20
ENDBRANCH  18  19
ENDBRANCH  17  18
ENDBRANCH  16  17
ENDBRANCH  14  15
ENDBRANCH   2  14
TORSDOF 15
ENDMDL
MODEL 4
REMARK VINA RESULT:      -6.0      5.973     11.094
REMARK  Name = 
REMARK  16 active torsions:
REMARK  status: ('A' for Active; 'I' for Inactive)
REMARK    1  A    between atoms: C_1  and  C_2
REMARK    2  A    between atoms: C_2  and  C_3
REMARK    3  A    between atoms: C_3  and  C_4
REMARK    4  A    between atoms: C_4  and  C_5
REMARK    5  A    between atoms: C_5  and  C_6
REMARK    6  A    between atoms: C_7  and  C_8
REMARK    7  A    between atoms: C_8  and  C_9
REMARK    8  A    between atoms: C_10  and  C_11
REMARK    9  A    between atoms: C_11  and  C_12
REMARK   10  A    between atoms: C_13  and  C_14
REMARK   11  A    between atoms: C_14  and  C_15
REMARK   12  A    between atoms: C_16  and  C_17
REMARK   13  A    between atoms: C_17  and  C_18
REMARK   14  A    between atoms: C_18  and  C_19
REMARK   15  A    between atoms: C_19  and  C_20
REMARK   16  A    between atoms: N_22  and  O_23
REMARK                            x       y       z     vdW  Elec       q    Type
REMARK                         _______ _______ _______ _____ _____    ______ ____
ROOT
ATOM      1  C   UNL     1       5.423   6.408  16.694  0.00  0.00    +0.000 C 
ATOM      2  C   UNL     1       4.652   6.847  17.704  0.00  0.00    +0.000 C 
ENDROOT
BRANCH   1   3
ATOM      3  C   UNL     1       6.909   6.243  16.795  0.00  0.00    +0.000 C 
BRANCH   3   5
ATOM      4  C   UNL     1       8.025   8.339  17.607  0.00  0.00    +0.000 C 
ATOM      5  C   UNL     1       7.480   7.137  17.855  0.00  0.00    +0.000 C 
BRANCH   4   6
ATOM      6  C   UNL     1       8.624   9.213  18.667  0.00  0.00    +0.000 C 
BRANCH   6   8
ATOM      7  C   UNL     1      10.131  11.187  18.344  0.00  0.00    +0.000 C 
ATOM      8  C   UNL     1       8.961  10.568  18.126  0.00  0.00    +0.000 C 
BRANCH   7   9
ATOM      9  C   UNL     1      10.455  12.545  17.802  0.00  0.00    +0.000 C 
BRANCH   9  10
ATOM     10  C   UNL     1      11.046  13.438  18.891  0.00  0.00    +0.000 C 
BRANCH  10  11
ATOM     11  C   UNL     1       9.936  14.095  19.707  0.00  0.00    +0.000 C 
BRANCH  11  13
ATOM     12  C   UNL     1      10.387  15.361  21.826  0.00  0.00    +0.000 C 
ATOM     13  C   UNL     1      10.212  13.986  21.203  0.00  0.00    +0.000 C 
ENDBRANCH  11  13
ENDBRANCH  10  11
ENDBRANCH   9  10
ENDBRANCH   7   9
ENDBRANCH   6   8
ENDBRANCH   4   6
ENDBRANCH   3   5
ENDBRANCH   1   3
BRANCH   2  14
ATOM     14  C   UNL     1       3.163   6.979  17.617  0.00  0.00    +0.000 C 
BRANCH  14  15
ATOM     15  C   UNL     1       2.482   6.115  18.638  0.00  0.00    +0.000 C 
ATOM     16  C   UNL     1       2.276   6.488  19.910  0.00  0.00    +0.000 C 
BRANCH  16  17
ATOM     17  C   UNL     1       1.584   5.629  20.930  0.00  0.00    +0.000 C 
BRANCH  17  18
ATOM     18  C   UNL     1       2.072   4.179  20.898  0.00  0.00    +0.000 C 
BRANCH  18  19
ATOM     19  C   UNL     1       0.963   3.175  20.573  0.00  0.00    +0.000 C 
BRANCH  19  20
ATOM     20  C   UNL     1       1.169   2.522  19.223  0.00  0.00    +0.000 C 
ATOM     21  O   UNL     1       0.265   2.220  18.447  0.00  0.00    +0.000 OA
ATOM     22  N   UNL     1       2.487   2.290  18.924  0.00  0.00    +0.000 N 
ATOM     23  H   UNL     1       3.278   2.538  19.508  0.00  0.00    +0.000 HD
BRANCH  22  24
ATOM     24  O   UNL     1       2.760   1.699  17.671  0.00  0.00    +0.000 OA
ATOM     25  H   UNL     1       3.669   1.347  17.800  0.00  0.00    +0.000 HD
ENDBRANCH  22  24
ENDBRANCH  19  20
ENDBRANCH  18  19
ENDBRANCH  17  18
ENDBRANCH  16  17
ENDBRANCH  14  15
ENDBRANCH   2  14
TORSDOF 15
ENDMDL
MODEL 5
REMARK VINA RESULT:      -6.0      1.593      2.527
REMARK  Name = 
REMARK  16 active torsions:
REMARK  status: ('A' for Active; 'I' for Inactive)
REMARK    1  A    between atoms: C_1  and  C_2
REMARK    2  A    between atoms: C_2  and  C_3
REMARK    3  A    between atoms: C_3  and  C_4
REMARK    4  A    between atoms: C_4  and  C_5
REMARK    5  A    between atoms: C_5  and  C_6
REMARK    6  A    between atoms: C_7  and  C_8
REMARK    7  A    between atoms: C_8  and  C_9
REMARK    8  A    between atoms: C_10  and  C_11
REMARK    9  A    between atoms: C_11  and  C_12
REMARK   10  A    between atoms: C_13  and  C_14
REMARK   11  A    between atoms: C_14  and  C_15
REMARK   12  A    between atoms: C_16  and  C_17
REMARK   13  A    between atoms: C_17  and  C_18
REMARK   14  A    between atoms: C_18  and  C_19
REMARK   15  A    between atoms: C_19  and  C_20
REMARK   16  A    between atoms: N_22  and  O_23
REMARK                            x       y       z     vdW  Elec       q    Type
REMARK                         _______ _______ _______ _____ _____    ______ ____
ROOT
ATOM      1  C   UNL     1       7.424   7.551  17.231  0.00  0.00    +0.000 C 
ATOM      2  C   UNL     1       7.867   8.586  17.967  0.00  0.00    +0.000 C 
ENDROOT
BRANCH   1   3
ATOM      3  C   UNL     1       6.903   6.276  17.820  0.00  0.00    +0.000 C 
BRANCH   3   5
ATOM      4  C   UNL     1       4.424   6.610  17.615  0.00  0.00    +0.000 C 
ATOM      5  C   UNL     1       5.522   6.462  18.374  0.00  0.00    +0.000 C 
BRANCH   4   6
ATOM      6  C   UNL     1       3.051   6.829  18.174  0.00  0.00    +0.000 C 
BRANCH   6   8
ATOM      7  C   UNL     1       1.832   5.112  19.530  0.00  0.00    +0.000 C 
ATOM      8  C   UNL     1       2.326   5.531  18.355  0.00  0.00    +0.000 C 
BRANCH   7   9
ATOM      9  C   UNL     1       1.114   3.808  19.700  0.00  0.00    +0.000 C 
BRANCH   9  10
ATOM     10  C   UNL     1       1.846   2.909  20.693  0.00  0.00    +0.000 C 
BRANCH  10  11
ATOM     11  C   UNL     1       3.169   2.426  20.105  0.00  0.00    +0.000 C 
BRANCH  11  13
ATOM     12  C   UNL     1       3.944   2.426  17.718  0.00  0.00    +0.000 C 
ATOM     13  C   UNL     1       2.969   1.826  18.716  0.00  0.00    +0.000 C 
ENDBRANCH  11  13
ENDBRANCH  10  11
ENDBRANCH   9  10
ENDBRANCH   7   9
ENDBRANCH   6   8
ENDBRANCH   4   6
ENDBRANCH   3   5
ENDBRANCH   1   3
BRANCH   2  14
ATOM     14  C   UNL     1       8.354   9.875  17.381  0.00  0.00    +0.000 C 
BRANCH  14  15
ATOM     15  C   UNL     1       9.391  10.512  18.258  0.00  0.00    +0.000 C 
ATOM     16  C   UNL     1       9.237  10.696  19.578  0.00  0.00    +0.000 C 
BRANCH  16  17
ATOM     17  C   UNL     1      10.279  11.322  20.461  0.00  0.00    +0.000 C 
BRANCH  17  18
ATOM     18  C   UNL     1      11.631  11.461  19.758  0.00  0.00    +0.000 C 
BRANCH  18  19
ATOM     19  C   UNL     1      12.125  12.907  19.676  0.00  0.00    +0.000 C 
BRANCH  19  20
ATOM     20  C   UNL     1      11.982  13.476  18.281  0.00  0.00    +0.000 C 
ATOM     21  O   UNL     1      11.613  14.620  18.026  0.00  0.00    +0.000 OA
ATOM     22  N   UNL     1      12.312  12.584  17.292  0.00  0.00    +0.000 N 
ATOM     23  H   UNL     1      12.646  11.638  17.437  0.00  0.00    +0.000 HD
BRANCH  22  24
ATOM     24  O   UNL     1      12.221  13.049  15.962  0.00  0.00    +0.000 OA
ATOM     25  H   UNL     1      13.104  13.459  15.824  0.00  0.00    +0.000 HD
ENDBRANCH  22  24
ENDBRANCH  19  20
ENDBRANCH  18  19
ENDBRANCH  17  18
ENDBRANCH  16  17
ENDBRANCH  14  15
ENDBRANCH   2  14
TORSDOF 15
ENDMDL
MODEL 6
REMARK VINA RESULT:      -5.8      5.381      8.050
REMARK  Name = 
REMARK  16 active torsions:
REMARK  status: ('A' for Active; 'I' for Inactive)
REMARK    1  A    between atoms: C_1  and  C_2
REMARK    2  A    between atoms: C_2  and  C_3
REMARK    3  A    between atoms: C_3  and  C_4
REMARK    4  A    between atoms: C_4  and  C_5
REMARK    5  A    between atoms: C_5  and  C_6
REMARK    6  A    between atoms: C_7  and  C_8
REMARK    7  A    between atoms: C_8  and  C_9
REMARK    8  A    between atoms: C_10  and  C_11
REMARK    9  A    between atoms: C_11  and  C_12
REMARK   10  A    between atoms: C_13  and  C_14
REMARK   11  A    between atoms: C_14  and  C_15
REMARK   12  A    between atoms: C_16  and  C_17
REMARK   13  A    between atoms: C_17  and  C_18
REMARK   14  A    between atoms: C_18  and  C_19
REMARK   15  A    between atoms: C_19  and  C_20
REMARK   16  A    between atoms: N_22  and  O_23
REMARK                            x       y       z     vdW  Elec       q    Type
REMARK                         _______ _______ _______ _____ _____    ______ ____
ROOT
ATOM      1  C   UNL     1       1.263   5.062  20.684  0.00  0.00    +0.000 C 
ATOM      2  C   UNL     1       2.056   5.797  19.885  0.00  0.00    +0.000 C 
ENDROOT
BRANCH   1   3
ATOM      3  C   UNL     1       1.022   3.596  20.492  0.00  0.00    +0.000 C 
BRANCH   3   5
ATOM      4  C   UNL     1       2.725   2.331  19.150  0.00  0.00    +0.000 C 
ATOM      5  C   UNL     1       1.634   3.111  19.211  0.00  0.00    +0.000 C 
BRANCH   4   6
ATOM      6  C   UNL     1       3.351   1.878  17.866  0.00  0.00    +0.000 C 
BRANCH   6   8
ATOM      7  C   UNL     1       3.985   4.133  16.980  0.00  0.00    +0.000 C 
ATOM      8  C   UNL     1       4.328   2.890  17.353  0.00  0.00    +0.000 C 
BRANCH   7   9
ATOM      9  C   UNL     1       4.971   5.135  16.462  0.00  0.00    +0.000 C 
BRANCH   9  10
ATOM     10  C   UNL     1       5.265   6.202  17.515  0.00  0.00    +0.000 C 
BRANCH  10  11
ATOM     11  C   UNL     1       6.207   5.654  18.583  0.00  0.00    +0.000 C 
BRANCH  11  13
ATOM     12  C   UNL     1       7.607   7.506  17.630  0.00  0.00    +0.000 C 
ATOM     13  C   UNL     1       7.620   6.200  18.406  0.00  0.00    +0.000 C 
ENDBRANCH  11  13
ENDBRANCH  10  11
ENDBRANCH   9  10
ENDBRANCH   7   9
ENDBRANCH   6   8
ENDBRANCH   4   6
ENDBRANCH   3   5
ENDBRANCH   1   3
BRANCH   2  14
ATOM     14  C   UNL     1       2.327   7.255  20.096  0.00  0.00    +0.000 C 
BRANCH  14  15
ATOM     15  C   UNL     1       1.152   7.939  20.731  0.00  0.00    +0.000 C 
ATOM     16  C   UNL     1       1.247   9.067  21.450  0.00  0.00    +0.000 C 
BRANCH  16  17
ATOM     17  C   UNL     1       0.070   9.760  22.076  0.00  0.00    +0.000 C 
BRANCH  17  18
ATOM     18  C   UNL     1      -0.038  11.226  21.648  0.00  0.00    +0.000 C 
BRANCH  18  19
ATOM     19  C   UNL     1      -1.312  11.532  20.856  0.00  0.00    +0.000 C 
BRANCH  19  20
ATOM     20  C   UNL     1      -1.084  11.445  19.363  0.00  0.00    +0.000 C 
ATOM     21  O   UNL     1      -0.590  10.478  18.786  0.00  0.00    +0.000 OA
ATOM     22  N   UNL     1      -1.489  12.565  18.682  0.00  0.00    +0.000 N 
ATOM     23  H   UNL     1      -1.924  13.381  19.095  0.00  0.00    +0.000 HD
BRANCH  22  24
ATOM     24  O   UNL     1      -1.325  12.550  17.280  0.00  0.00    +0.000 OA
ATOM     25  H   UNL     1      -0.623  11.873  17.159  0.00  0.00    +0.000 HD
ENDBRANCH  22  24
ENDBRANCH  19  20
ENDBRANCH  18  19
ENDBRANCH  17  18
ENDBRANCH  16  17
ENDBRANCH  14  15
ENDBRANCH   2  14
TORSDOF 15
ENDMDL
MODEL 7
REMARK VINA RESULT:      -5.8      5.543      7.727
REMARK  Name = 
REMARK  16 active torsions:
REMARK  status: ('A' for Active; 'I' for Inactive)
REMARK    1  A    between atoms: C_1  and  C_2
REMARK    2  A    between atoms: C_2  and  C_3
REMARK    3  A    between atoms: C_3  and  C_4
REMARK    4  A    between atoms: C_4  and  C_5
REMARK    5  A    between atoms: C_5  and  C_6
REMARK    6  A    between atoms: C_7  and  C_8
REMARK    7  A    between atoms: C_8  and  C_9
REMARK    8  A    between atoms: C_10  and  C_11
REMARK    9  A    between atoms: C_11  and  C_12
REMARK   10  A    between atoms: C_13  and  C_14
REMARK   11  A    between atoms: C_14  and  C_15
REMARK   12  A    between atoms: C_16  and  C_17
REMARK   13  A    between atoms: C_17  and  C_18
REMARK   14  A    between atoms: C_18  and  C_19
REMARK   15  A    between atoms: C_19  and  C_20
REMARK   16  A    between atoms: N_22  and  O_23
REMARK                            x       y       z     vdW  Elec       q    Type
REMARK                         _______ _______ _______ _____ _____    ______ ____
ROOT
ATOM      1  C   UNL     1       1.491   2.733  18.808  0.00  0.00    +0.000 C 
ATOM      2  C   UNL     1       2.624   2.023  18.951  0.00  0.00    +0.000 C 
ENDROOT
BRANCH   1   3
ATOM      3  C   UNL     1       0.532   3.000  19.927  0.00  0.00    +0.000 C 
BRANCH   3   5
ATOM      4  C   UNL     1       1.818   5.135  20.222  0.00  0.00    +0.000 C 
ATOM      5  C   UNL     1       0.777   4.348  20.538  0.00  0.00    +0.000 C 
BRANCH   4   6
ATOM      6  C   UNL     1       2.075   6.466  20.861  0.00  0.00    +0.000 C 
BRANCH   6   8
ATOM      7  C   UNL     1       2.447   7.600  18.659  0.00  0.00    +0.000 C 
ATOM      8  C   UNL     1       1.890   7.583  19.880  0.00  0.00    +0.000 C 
BRANCH   7   9
ATOM      9  C   UNL     1       2.260   8.726  17.688  0.00  0.00    +0.000 C 
BRANCH   9  10
ATOM     10  C   UNL     1       1.000   9.523  18.018  0.00  0.00    +0.000 C 
BRANCH  10  11
ATOM     11  C   UNL     1       1.365  10.870  18.637  0.00  0.00    +0.000 C 
BRANCH  11  13
ATOM     12  C   UNL     1       0.957  12.137  20.765  0.00  0.00    +0.000 C 
ATOM     13  C   UNL     1       0.323  11.307  19.661  0.00  0.00    +0.000 C 
ENDBRANCH  11  13
ENDBRANCH  10  11
ENDBRANCH   9  10
ENDBRANCH   7   9
ENDBRANCH   6   8
ENDBRANCH   4   6
ENDBRANCH   3   5
ENDBRANCH   1   3
BRANCH   2  14
ATOM     14  C   UNL     1       3.603   1.786  17.843  0.00  0.00    +0.000 C 
BRANCH  14  15
ATOM     15  C   UNL     1       4.576   2.921  17.726  0.00  0.00    +0.000 C 
ATOM     16  C   UNL     1       4.818   3.798  18.712  0.00  0.00    +0.000 C 
BRANCH  16  17
ATOM     17  C   UNL     1       5.801   4.929  18.602  0.00  0.00    +0.000 C 
BRANCH  17  18
ATOM     18  C   UNL     1       5.304   6.045  17.680  0.00  0.00    +0.000 C 
BRANCH  18  19
ATOM     19  C   UNL     1       6.290   6.389  16.561  0.00  0.00    +0.000 C 
BRANCH  19  20
ATOM     20  C   UNL     1       6.778   5.152  15.838  0.00  0.00    +0.000 C 
ATOM     21  O   UNL     1       7.848   4.588  16.061  0.00  0.00    +0.000 OA
ATOM     22  N   UNL     1       5.903   4.694  14.886  0.00  0.00    +0.000 N 
ATOM     23  H   UNL     1       4.998   5.098  14.673  0.00  0.00    +0.000 HD
BRANCH  22  24
ATOM     24  O   UNL     1       6.283   3.531  14.182  0.00  0.00    +0.000 OA
ATOM     25  H   UNL     1       7.148   3.311  14.593  0.00  0.00    +0.000 HD
ENDBRANCH  22  24
ENDBRANCH  19  20
ENDBRANCH  18  19
ENDBRANCH  17  18
ENDBRANCH  16  17
ENDBRANCH  14  15
ENDBRANCH   2  14
TORSDOF 15
ENDMDL
MODEL 8
REMARK VINA RESULT:      -5.8      1.450      2.210
REMARK  Name = 
REMARK  16 active torsions:
REMARK  status: ('A' for Active; 'I' for Inactive)
REMARK    1  A    between atoms: C_1  and  C_2
REMARK    2  A    between atoms: C_2  and  C_3
REMARK    3  A    between atoms: C_3  and  C_4
REMARK    4  A    between atoms: C_4  and  C_5
REMARK    5  A    between atoms: C_5  and  C_6
REMARK    6  A    between atoms: C_7  and  C_8
REMARK    7  A    between atoms: C_8  and  C_9
REMARK    8  A    between atoms: C_10  and  C_11
REMARK    9  A    between atoms: C_11  and  C_12
REMARK   10  A    between atoms: C_13  and  C_14
REMARK   11  A    between atoms: C_14  and  C_15
REMARK   12  A    between atoms: C_16  and  C_17
REMARK   13  A    between atoms: C_17  and  C_18
REMARK   14  A    between atoms: C_18  and  C_19
REMARK   15  A    between atoms: C_19  and  C_20
REMARK   16  A    between atoms: N_22  and  O_23
REMARK                            x       y       z     vdW  Elec       q    Type
REMARK                         _______ _______ _______ _____ _____    ______ ____
ROOT
ATOM      1  C   UNL     1       6.602   6.906  17.317  0.00  0.00    +0.000 C 
ATOM      2  C   UNL     1       7.401   7.987  17.309  0.00  0.00    +0.000 C 
ENDROOT
BRANCH   1   3
ATOM      3  C   UNL     1       5.556   6.638  16.278  0.00  0.00    +0.000 C 
BRANCH   3   5
ATOM      4  C   UNL     1       3.896   6.585  18.160  0.00  0.00    +0.000 C 
ATOM      5  C   UNL     1       4.178   6.753  16.858  0.00  0.00    +0.000 C 
BRANCH   4   6
ATOM      6  C   UNL     1       2.512   6.669  18.727  0.00  0.00    +0.000 C 
BRANCH   6   8
ATOM      7  C   UNL     1       1.596   4.432  18.071  0.00  0.00    +0.000 C 
ATOM      8  C   UNL     1       1.963   5.306  19.020  0.00  0.00    +0.000 C 
BRANCH   7   9
ATOM      9  C   UNL     1       1.043   3.073  18.376  0.00  0.00    +0.000 C 
BRANCH   9  10
ATOM     10  C   UNL     1       1.706   2.484  19.619  0.00  0.00    +0.000 C 
BRANCH  10  11
ATOM     11  C   UNL     1       3.050   1.856  19.263  0.00  0.00    +0.000 C 
BRANCH  11  13
ATOM     12  C   UNL     1       4.946   3.499  19.210  0.00  0.00    +0.000 C 
ATOM     13  C   UNL     1       4.186   2.493  20.057  0.00  0.00    +0.000 C 
ENDBRANCH  11  13
ENDBRANCH  10  11
ENDBRANCH   9  10
ENDBRANCH   7   9
ENDBRANCH   6   8
ENDBRANCH   4   6
ENDBRANCH   3   5
ENDBRANCH   1   3
BRANCH   2  14
ATOM     14  C   UNL     1       8.471   8.239  18.326  0.00  0.00    +0.000 C 
BRANCH  14  15
ATOM     15  C   UNL     1       8.447   9.662  18.798  0.00  0.00    +0.000 C 
ATOM     16  C   UNL     1       9.430  10.225  19.516  0.00  0.00    +0.000 C 
BRANCH  16  17
ATOM     17  C   UNL     1       9.413  11.654  19.980  0.00  0.00    +0.000 C 
BRANCH  17  18
ATOM     18  C   UNL     1      10.728  12.379  19.681  0.00  0.00    +0.000 C 
BRANCH  18  19
ATOM     19  C   UNL     1      11.122  12.332  18.203  0.00  0.00    +0.000 C 
BRANCH  19  20
ATOM     20  C   UNL     1      11.504  13.698  17.676  0.00  0.00    +0.000 C 
ATOM     21  O   UNL     1      12.333  14.442  18.197  0.00  0.00    +0.000 OA
ATOM     22  N   UNL     1      10.833  14.051  16.533  0.00  0.00    +0.000 N 
ATOM     23  H   UNL     1      10.159  13.474  16.042  0.00  0.00    +0.000 HD
BRANCH  22  24
ATOM     24  O   UNL     1      11.151  15.306  15.970  0.00  0.00    +0.000 OA
ATOM     25  H   UNL     1      11.980  15.541  16.443  0.00  0.00    +0.000 HD
ENDBRANCH  22  24
ENDBRANCH  19  20
ENDBRANCH  18  19
ENDBRANCH  17  18
ENDBRANCH  16  17
ENDBRANCH  14  15
ENDBRANCH   2  14
TORSDOF 15
ENDMDL
MODEL 9
REMARK VINA RESULT:      -5.8      1.492      2.779
REMARK  Name = 
REMARK  16 active torsions:
REMARK  status: ('A' for Active; 'I' for Inactive)
REMARK    1  A    between atoms: C_1  and  C_2
REMARK    2  A    between atoms: C_2  and  C_3
REMARK    3  A    between atoms: C_3  and  C_4
REMARK    4  A    between atoms: C_4  and  C_5
REMARK    5  A    between atoms: C_5  and  C_6
REMARK    6  A    between atoms: C_7  and  C_8
REMARK    7  A    between atoms: C_8  and  C_9
REMARK    8  A    between atoms: C_10  and  C_11
REMARK    9  A    between atoms: C_11  and  C_12
REMARK   10  A    between atoms: C_13  and  C_14
REMARK   11  A    between atoms: C_14  and  C_15
REMARK   12  A    between atoms: C_16  and  C_17
REMARK   13  A    between atoms: C_17  and  C_18
REMARK   14  A    between atoms: C_18  and  C_19
REMARK   15  A    between atoms: C_19  and  C_20
REMARK   16  A    between atoms: N_22  and  O_23
REMARK                            x       y       z     vdW  Elec       q    Type
REMARK                         _______ _______ _______ _____ _____    ______ ____
ROOT
ATOM      1  C   UNL     1       5.531   6.446  16.575  0.00  0.00    +0.000 C 
ATOM      2  C   UNL     1       6.310   6.758  17.625  0.00  0.00    +0.000 C 
ENDROOT
BRANCH   1   3
ATOM      3  C   UNL     1       4.046   6.269  16.667  0.00  0.00    +0.000 C 
BRANCH   3   5
ATOM      4  C   UNL     1       2.624   7.070  18.573  0.00  0.00    +0.000 C 
ATOM      5  C   UNL     1       3.590   6.270  18.096  0.00  0.00    +0.000 C 
BRANCH   4   6
ATOM      6  C   UNL     1       2.196   7.089  20.010  0.00  0.00    +0.000 C 
BRANCH   6   8
ATOM      7  C   UNL     1       2.438   4.841  21.086  0.00  0.00    +0.000 C 
ATOM      8  C   UNL     1       1.689   5.748  20.442  0.00  0.00    +0.000 C 
BRANCH   7   9
ATOM      9  C   UNL     1       1.921   3.500  21.509  0.00  0.00    +0.000 C 
BRANCH   9  10
ATOM     10  C   UNL     1       2.829   2.383  20.998  0.00  0.00    +0.000 C 
BRANCH  10  11
ATOM     11  C   UNL     1       3.636   2.856  19.793  0.00  0.00    +0.000 C 
BRANCH  11  13
ATOM     12  C   UNL     1       2.567   2.805  17.522  0.00  0.00    +0.000 C 
ATOM     13  C   UNL     1       3.338   2.007  18.561  0.00  0.00    +0.000 C 
ENDBRANCH  11  13
ENDBRANCH  10  11
ENDBRANCH   9  10
ENDBRANCH   7   9
ENDBRANCH   6   8
ENDBRANCH   4   6
ENDBRANCH   3   5
ENDBRANCH   1   3
BRANCH   2  14
ATOM     14  C   UNL     1       7.789   6.972  17.529  0.00  0.00    +0.000 C 
BRANCH  14  15
ATOM     15  C   UNL     1       8.238   8.077  18.438  0.00  0.00    +0.000 C 
ATOM     16  C   UNL     1       8.502   9.324  18.020  0.00  0.00    +0.000 C 
BRANCH  16  17
ATOM     17  C   UNL     1       8.939  10.436  18.931  0.00  0.00    +0.000 C 
BRANCH  17  18
ATOM     18  C   UNL     1      10.152  11.193  18.385  0.00  0.00    +0.000 C 
BRANCH  18  19
ATOM     19  C   UNL     1      10.330  12.579  19.009  0.00  0.00    +0.000 C 
BRANCH  19  20
ATOM     20  C   UNL     1      10.108  13.686  18.001  0.00  0.00    +0.000 C 
ATOM     21  O   UNL     1      10.842  13.918  17.043  0.00  0.00    +0.000 OA
ATOM     22  N   UNL     1       8.983  14.431  18.248  0.00  0.00    +0.000 N 
ATOM     23  H   UNL     1       8.325  14.275  19.003  0.00  0.00    +0.000 HD
BRANCH  22  24
ATOM     24  O   UNL     1       8.698  15.472  17.338  0.00  0.00    +0.000 OA
ATOM     25  H   UNL     1       9.358  15.314  16.627  0.00  0.00    +0.000 HD
ENDBRANCH  22  24
ENDBRANCH  19  20
ENDBRANCH  18  19
ENDBRANCH  17  18
ENDBRANCH  16  17
ENDBRANCH  14  15
ENDBRANCH   2  14
TORSDOF 15
ENDMDL
