MODEL 1
REMARK VINA RESULT:      -7.5      0.000      0.000
REMARK  Name = 
REMARK  9 active torsions:
REMARK  status: ('A' for Active; 'I' for Inactive)
REMARK    1  A    between atoms: N_1  and  C_2
REMARK    2  A    between atoms: C_2  and  C_3
REMARK    3  A    between atoms: C_5  and  O_6
REMARK    4  A    between atoms: O_6  and  C_7
REMARK    5  A    between atoms: C_7  and  C_8
REMARK    6  A    between atoms: C_12  and  C_13
REMARK    7  A    between atoms: N_15  and  C_16
REMARK    8  A    between atoms: C_16  and  C_17
REMARK    9  A    between atoms: C_17  and  N_18
REMARK                            x       y       z     vdW  Elec       q    Type
REMARK                         _______ _______ _______ _____ _____    ______ ____
ROOT
ATOM      1  C   UNL     1       3.358   3.890  19.528  0.00  0.00    +0.000 A 
ATOM      2  C   UNL     1       2.311   3.061  19.958  0.00  0.00    +0.000 A 
ATOM      3  C   UNL     1       1.146   3.609  20.492  0.00  0.00    +0.000 A 
ATOM      4  C   UNL     1       1.017   4.992  20.598  0.00  0.00    +0.000 A 
ATOM      5  C   UNL     1       2.040   5.837  20.148  0.00  0.00    +0.000 A 
ATOM      6  C   UNL     1       3.211   5.284  19.615  0.00  0.00    +0.000 A 
ENDROOT
BRANCH   5   7
ATOM      7  C   UNL     1       1.859   7.303  20.305  0.00  0.00    +0.000 C 
ATOM      8  O   UNL     1       2.015   8.044  19.346  0.00  0.00    +0.000 OA
ATOM      9  N   UNL     1       1.545   7.759  21.573  0.00  0.00    +0.000 N 
ATOM     10  H   UNL     1       1.522   7.116  22.363  0.00  0.00    +0.000 HD
BRANCH   9  11
ATOM     11  C   UNL     1       1.301   9.167  21.816  0.00  0.00    +0.000 C 
BRANCH  11  12
ATOM     12  C   UNL     1      -0.180   9.555  21.781  0.00  0.00    +0.000 C 
BRANCH  12  13
ATOM     13  N   UNL     1      -0.513  10.587  20.812  0.00  0.00    +0.000 N 
ATOM     14  C   UNL     1      -0.679  10.328  19.416  0.00  0.00    +0.000 C 
ATOM     15  C   UNL     1      -1.047  11.695  18.886  0.00  0.00    +0.000 C 
ATOM     16  O   UNL     1      -0.570  12.619  19.874  0.00  0.00    +0.000 OA
ATOM     17  C   UNL     1      -0.313  11.927  21.025  0.00  0.00    +0.000 C 
ATOM     18  O   UNL     1       0.060  12.440  22.067  0.00  0.00    +0.000 OA
ENDBRANCH  12  13
ENDBRANCH  11  12
ENDBRANCH   9  11
ENDBRANCH   5   7
BRANCH   1  19
ATOM     19  C   UNL     1       4.613   3.284  18.945  0.00  0.00    +0.000 C 
BRANCH  19  20
ATOM     20  O   UNL     1       4.547   3.352  17.523  0.00  0.00    +0.000 OA
BRANCH  20  23
ATOM     21  C   UNL     1       7.111   5.831  17.136  0.00  0.00    +0.000 A 
ATOM     22  C   UNL     1       6.147   5.043  17.735  0.00  0.00    +0.000 A 
ATOM     23  C   UNL     1       5.531   4.114  16.929  0.00  0.00    +0.000 A 
ATOM     24  N   UNL     1       5.869   3.896  15.649  0.00  0.00    +0.000 NA
ATOM     25  C   UNL     1       6.838   4.686  15.171  0.00  0.00    +0.000 A 
ATOM     26  N   UNL     1       7.471   5.662  15.841  0.00  0.00    +0.000 NA
BRANCH  21  27
ATOM     27  C   UNL     1       7.743   6.953  17.944  0.00  0.00    +0.000 C 
BRANCH  27  28
ATOM     28  N   UNL     1       7.705   8.269  17.297  0.00  0.00    +0.000 NA
ATOM     29  H   UNL     1       7.150   8.177  16.445  0.00  0.00    +0.000 HD
ATOM     30  H   UNL     1       7.140   8.881  17.888  0.00  0.00    +0.000 HD
ENDBRANCH  27  28
ENDBRANCH  21  27
ENDBRANCH  20  23
ENDBRANCH  19  20
ENDBRANCH   1  19
TORSDOF 9
ENDMDL
MODEL 2
REMARK VINA RESULT:      -7.5      2.327      3.722
REMARK  Name = 
REMARK  9 active torsions:
REMARK  status: ('A' for Active; 'I' for Inactive)
REMARK    1  A    between atoms: N_1  and  C_2
REMARK    2  A    between atoms: C_2  and  C_3
REMARK    3  A    between atoms: C_5  and  O_6
REMARK    4  A    between atoms: O_6  and  C_7
REMARK    5  A    between atoms: C_7  and  C_8
REMARK    6  A    between atoms: C_12  and  C_13
REMARK    7  A    between atoms: N_15  and  C_16
REMARK    8  A    between atoms: C_16  and  C_17
REMARK    9  A    between atoms: C_17  and  N_18
REMARK                            x       y       z     vdW  Elec       q    Type
REMARK                         _______ _______ _______ _____ _____    ______ ____
ROOT
ATOM      1  C   UNL     1       4.414   5.232  17.043  0.00  0.00    +0.000 A 
ATOM      2  C   UNL     1       3.942   3.944  16.749  0.00  0.00    +0.000 A 
ATOM      3  C   UNL     1       2.911   3.379  17.498  0.00  0.00    +0.000 A 
ATOM      4  C   UNL     1       2.339   4.099  18.545  0.00  0.00    +0.000 A 
ATOM      5  C   UNL     1       2.778   5.398  18.835  0.00  0.00    +0.000 A 
ATOM      6  C   UNL     1       3.817   5.962  18.083  0.00  0.00    +0.000 A 
ENDROOT
BRANCH   5   7
ATOM      7  C   UNL     1       2.149   6.112  19.976  0.00  0.00    +0.000 C 
ATOM      8  O   UNL     1       1.808   5.491  20.972  0.00  0.00    +0.000 OA
ATOM      9  N   UNL     1       1.952   7.473  19.825  0.00  0.00    +0.000 N 
ATOM     10  H   UNL     1       2.161   7.932  18.939  0.00  0.00    +0.000 HD
BRANCH   9  11
ATOM     11  C   UNL     1       1.391   8.264  20.902  0.00  0.00    +0.000 C 
BRANCH  11  12
ATOM     12  C   UNL     1       1.374   9.770  20.623  0.00  0.00    +0.000 C 
BRANCH  12  13
ATOM     13  N   UNL     1       0.337  10.203  19.699  0.00  0.00    +0.000 N 
ATOM     14  C   UNL     1      -0.988  10.546  20.111  0.00  0.00    +0.000 C 
ATOM     15  C   UNL     1      -1.626  10.953  18.804  0.00  0.00    +0.000 C 
ATOM     16  O   UNL     1      -0.819  10.342  17.787  0.00  0.00    +0.000 OA
ATOM     17  C   UNL     1       0.365   9.957  18.350  0.00  0.00    +0.000 C 
ATOM     18  O   UNL     1       1.287   9.448  17.733  0.00  0.00    +0.000 OA
ENDBRANCH  12  13
ENDBRANCH  11  12
ENDBRANCH   9  11
ENDBRANCH   5   7
BRANCH   1  19
ATOM     19  C   UNL     1       5.527   5.836  16.220  0.00  0.00    +0.000 C 
BRANCH  19  20
ATOM     20  O   UNL     1       6.483   4.825  15.915  0.00  0.00    +0.000 OA
BRANCH  20  23
ATOM     21  C   UNL     1       6.381   3.621  12.537  0.00  0.00    +0.000 A 
ATOM     22  C   UNL     1       6.054   3.775  13.871  0.00  0.00    +0.000 A 
ATOM     23  C   UNL     1       6.791   4.698  14.576  0.00  0.00    +0.000 A 
ATOM     24  N   UNL     1       7.729   5.483  14.025  0.00  0.00    +0.000 NA
ATOM     25  C   UNL     1       7.947   5.282  12.720  0.00  0.00    +0.000 A 
ATOM     26  N   UNL     1       7.336   4.375  11.941  0.00  0.00    +0.000 NA
BRANCH  21  27
ATOM     27  C   UNL     1       5.683   2.534  11.735  0.00  0.00    +0.000 C 
BRANCH  27  28
ATOM     28  N   UNL     1       6.554   1.434  11.308  0.00  0.00    +0.000 NA
ATOM     29  H   UNL     1       6.435   1.320  10.301  0.00  0.00    +0.000 HD
ATOM     30  H   UNL     1       7.518   1.757  11.403  0.00  0.00    +0.000 HD
ENDBRANCH  27  28
ENDBRANCH  21  27
ENDBRANCH  20  23
ENDBRANCH  19  20
ENDBRANCH   1  19
TORSDOF 9
ENDMDL
MODEL 3
REMARK VINA RESULT:      -7.4      2.141      3.508
REMARK  Name = 
REMARK  9 active torsions:
REMARK  status: ('A' for Active; 'I' for Inactive)
REMARK    1  A    between atoms: N_1  and  C_2
REMARK    2  A    between atoms: C_2  and  C_3
REMARK    3  A    between atoms: C_5  and  O_6
REMARK    4  A    between atoms: O_6  and  C_7
REMARK    5  A    between atoms: C_7  and  C_8
REMARK    6  A    between atoms: C_12  and  C_13
REMARK    7  A    between atoms: N_15  and  C_16
REMARK    8  A    between atoms: C_16  and  C_17
REMARK    9  A    between atoms: C_17  and  N_18
REMARK                            x       y       z     vdW  Elec       q    Type
REMARK                         _______ _______ _______ _____ _____    ______ ____
ROOT
ATOM      1  C   UNL     1       4.583   4.950  17.501  0.00  0.00    +0.000 A 
ATOM      2  C   UNL     1       5.056   3.712  17.962  0.00  0.00    +0.000 A 
ATOM      3  C   UNL     1       4.536   3.142  19.122  0.00  0.00    +0.000 A 
ATOM      4  C   UNL     1       3.535   3.803  19.831  0.00  0.00    +0.000 A 
ATOM      5  C   UNL     1       3.030   5.026  19.370  0.00  0.00    +0.000 A 
ATOM      6  C   UNL     1       3.557   5.599  18.206  0.00  0.00    +0.000 A 
ENDROOT
BRANCH   5   7
ATOM      7  C   UNL     1       1.979   5.698  20.177  0.00  0.00    +0.000 C 
ATOM      8  O   UNL     1       1.043   5.049  20.622  0.00  0.00    +0.000 OA
ATOM      9  N   UNL     1       2.108   7.064  20.354  0.00  0.00    +0.000 N 
ATOM     10  H   UNL     1       2.850   7.579  19.882  0.00  0.00    +0.000 HD
BRANCH   9  11
ATOM     11  C   UNL     1       1.159   7.799  21.166  0.00  0.00    +0.000 C 
BRANCH  11  12
ATOM     12  C   UNL     1       1.487   9.288  21.308  0.00  0.00    +0.000 C 
BRANCH  12  13
ATOM     13  N   UNL     1       0.332  10.170  21.250  0.00  0.00    +0.000 N 
ATOM     14  C   UNL     1       0.032  10.998  20.124  0.00  0.00    +0.000 C 
ATOM     15  C   UNL     1      -1.256  11.659  20.555  0.00  0.00    +0.000 C 
ATOM     16  O   UNL     1      -1.272  11.549  21.986  0.00  0.00    +0.000 OA
ATOM     17  C   UNL     1      -0.348  10.612  22.356  0.00  0.00    +0.000 C 
ATOM     18  O   UNL     1      -0.156  10.254  23.507  0.00  0.00    +0.000 OA
ENDBRANCH  12  13
ENDBRANCH  11  12
ENDBRANCH   9  11
ENDBRANCH   5   7
BRANCH   1  19
ATOM     19  C   UNL     1       5.150   5.555  16.238  0.00  0.00    +0.000 C 
BRANCH  19  20
ATOM     20  O   UNL     1       6.434   4.991  15.986  0.00  0.00    +0.000 OA
BRANCH  20  23
ATOM     21  C   UNL     1       6.254   3.720  12.637  0.00  0.00    +0.000 A 
ATOM     22  C   UNL     1       5.932   3.933  13.963  0.00  0.00    +0.000 A 
ATOM     23  C   UNL     1       6.739   4.807  14.654  0.00  0.00    +0.000 A 
ATOM     24  N   UNL     1       7.745   5.496  14.093  0.00  0.00    +0.000 NA
ATOM     25  C   UNL     1       7.954   5.246  12.795  0.00  0.00    +0.000 A 
ATOM     26  N   UNL     1       7.273   4.377  12.032  0.00  0.00    +0.000 NA
BRANCH  21  27
ATOM     27  C   UNL     1       5.471   2.678  11.854  0.00  0.00    +0.000 C 
BRANCH  27  28
ATOM     28  N   UNL     1       6.224   1.459  11.537  0.00  0.00    +0.000 NA
ATOM     29  H   UNL     1       7.158   1.744  11.238  0.00  0.00    +0.000 HD
ATOM     30  H   UNL     1       6.391   0.969  12.417  0.00  0.00    +0.000 HD
ENDBRANCH  27  28
ENDBRANCH  21  27
ENDBRANCH  20  23
ENDBRANCH  19  20
ENDBRANCH   1  19
TORSDOF 9
ENDMDL
MODEL 4
REMARK VINA RESULT:      -7.4      3.404      8.978
REMARK  Name = 
REMARK  9 active torsions:
REMARK  status: ('A' for Active; 'I' for Inactive)
REMARK    1  A    between atoms: N_1  and  C_2
REMARK    2  A    between atoms: C_2  and  C_3
REMARK    3  A    between atoms: C_5  and  O_6
REMARK    4  A    between atoms: O_6  and  C_7
REMARK    5  A    between atoms: C_7  and  C_8
REMARK    6  A    between atoms: C_12  and  C_13
REMARK    7  A    between atoms: N_15  and  C_16
REMARK    8  A    between atoms: C_16  and  C_17
REMARK    9  A    between atoms: C_17  and  N_18
REMARK                            x       y       z     vdW  Elec       q    Type
REMARK                         _______ _______ _______ _____ _____    ______ ____
ROOT
ATOM      1  C   UNL     1       0.695   9.442  19.015  0.00  0.00    +0.000 A 
ATOM      2  C   UNL     1       0.670   9.250  20.405  0.00  0.00    +0.000 A 
ATOM      3  C   UNL     1       1.449   8.259  20.998  0.00  0.00    +0.000 A 
ATOM      4  C   UNL     1       2.263   7.451  20.206  0.00  0.00    +0.000 A 
ATOM      5  C   UNL     1       2.323   7.646  18.820  0.00  0.00    +0.000 A 
ATOM      6  C   UNL     1       1.537   8.642  18.226  0.00  0.00    +0.000 A 
ENDROOT
BRANCH   5   7
ATOM      7  C   UNL     1       3.191   6.743  18.022  0.00  0.00    +0.000 C 
ATOM      8  O   UNL     1       4.145   7.198  17.407  0.00  0.00    +0.000 OA
ATOM      9  N   UNL     1       2.839   5.405  17.996  0.00  0.00    +0.000 N 
ATOM     10  H   UNL     1       1.980   5.087  18.442  0.00  0.00    +0.000 HD
BRANCH   9  11
ATOM     11  C   UNL     1       3.653   4.438  17.285  0.00  0.00    +0.000 C 
BRANCH  11  12
ATOM     12  C   UNL     1       3.486   3.000  17.784  0.00  0.00    +0.000 C 
BRANCH  12  13
ATOM     13  N   UNL     1       2.871   2.882  19.097  0.00  0.00    +0.000 N 
ATOM     14  C   UNL     1       3.619   2.697  20.301  0.00  0.00    +0.000 C 
ATOM     15  C   UNL     1       2.528   2.680  21.347  0.00  0.00    +0.000 C 
ATOM     16  O   UNL     1       1.329   2.351  20.631  0.00  0.00    +0.000 OA
ATOM     17  C   UNL     1       1.559   2.537  19.297  0.00  0.00    +0.000 C 
ATOM     18  O   UNL     1       0.716   2.388  18.427  0.00  0.00    +0.000 OA
ENDBRANCH  12  13
ENDBRANCH  11  12
ENDBRANCH   9  11
ENDBRANCH   5   7
BRANCH   1  19
ATOM     19  C   UNL     1      -0.148  10.525  18.384  0.00  0.00    +0.000 C 
BRANCH  19  20
ATOM     20  O   UNL     1      -1.471  10.452  18.910  0.00  0.00    +0.000 OA
BRANCH  20  23
ATOM     21  C   UNL     1      -3.315  10.578  15.836  0.00  0.00    +0.000 A 
ATOM     22  C   UNL     1      -2.330  10.246  16.746  0.00  0.00    +0.000 A 
ATOM     23  C   UNL     1      -2.473  10.759  18.014  0.00  0.00    +0.000 A 
ATOM     24  N   UNL     1      -3.532  11.481  18.412  0.00  0.00    +0.000 NA
ATOM     25  C   UNL     1      -4.448  11.719  17.466  0.00  0.00    +0.000 A 
ATOM     26  N   UNL     1      -4.391  11.322  16.185  0.00  0.00    +0.000 NA
BRANCH  21  27
ATOM     27  C   UNL     1      -3.151  10.138  14.390  0.00  0.00    +0.000 C 
BRANCH  27  28
ATOM     28  N   UNL     1      -4.411   9.874  13.685  0.00  0.00    +0.000 NA
ATOM     29  H   UNL     1      -4.229   9.966  12.685  0.00  0.00    +0.000 HD
ATOM     30  H   UNL     1      -4.622   8.882  13.803  0.00  0.00    +0.000 HD
ENDBRANCH  27  28
ENDBRANCH  21  27
ENDBRANCH  20  23
ENDBRANCH  19  20
ENDBRANCH   1  19
TORSDOF 9
ENDMDL
MODEL 5
REMARK VINA RESULT:      -7.4      2.852      8.764
REMARK  Name = 
REMARK  9 active torsions:
REMARK  status: ('A' for Active; 'I' for Inactive)
REMARK    1  A    between atoms: N_1  and  C_2
REMARK    2  A    between atoms: C_2  and  C_3
REMARK    3  A    between atoms: C_5  and  O_6
REMARK    4  A    between atoms: O_6  and  C_7
REMARK    5  A    between atoms: C_7  and  C_8
REMARK    6  A    between atoms: C_12  and  C_13
REMARK    7  A    between atoms: N_15  and  C_16
REMARK    8  A    between atoms: C_16  and  C_17
REMARK    9  A    between atoms: C_17  and  N_18
REMARK                            x       y       z     vdW  Elec       q    Type
REMARK                         _______ _______ _______ _____ _____    ______ ____
ROOT
ATOM      1  C   UNL     1       1.619   8.291  20.072  0.00  0.00    +0.000 A 
ATOM      2  C   UNL     1       1.577   9.141  18.957  0.00  0.00    +0.000 A 
ATOM      3  C   UNL     1       2.210   8.783  17.768  0.00  0.00    +0.000 A 
ATOM      4  C   UNL     1       2.888   7.568  17.682  0.00  0.00    +0.000 A 
ATOM      5  C   UNL     1       2.916   6.694  18.776  0.00  0.00    +0.000 A 
ATOM      6  C   UNL     1       2.282   7.057  19.971  0.00  0.00    +0.000 A 
ENDROOT
BRANCH   5   7
ATOM      7  C   UNL     1       3.672   5.422  18.638  0.00  0.00    +0.000 C 
ATOM      8  O   UNL     1       4.717   5.262  19.251  0.00  0.00    +0.000 OA
ATOM      9  N   UNL     1       3.148   4.478  17.771  0.00  0.00    +0.000 N 
ATOM     10  H   UNL     1       2.328   4.693  17.206  0.00  0.00    +0.000 HD
BRANCH   9  11
ATOM     11  C   UNL     1       3.787   3.188  17.607  0.00  0.00    +0.000 C 
BRANCH  11  12
ATOM     12  C   UNL     1       3.008   2.025  18.227  0.00  0.00    +0.000 C 
BRANCH  12  13
ATOM     13  N   UNL     1       2.671   2.203  19.631  0.00  0.00    +0.000 N 
ATOM     14  C   UNL     1       1.442   2.782  20.077  0.00  0.00    +0.000 C 
ATOM     15  C   UNL     1       1.582   2.694  21.578  0.00  0.00    +0.000 C 
ATOM     16  O   UNL     1       2.991   2.570  21.816  0.00  0.00    +0.000 OA
ATOM     17  C   UNL     1       3.598   2.223  20.642  0.00  0.00    +0.000 C 
ATOM     18  O   UNL     1       4.791   1.995  20.525  0.00  0.00    +0.000 OA
ENDBRANCH  12  13
ENDBRANCH  11  12
ENDBRANCH   9  11
ENDBRANCH   5   7
BRANCH   1  19
ATOM     19  C   UNL     1       0.923   8.688  21.353  0.00  0.00    +0.000 C 
BRANCH  19  20
ATOM     20  O   UNL     1      -0.400   9.120  21.051  0.00  0.00    +0.000 OA
BRANCH  20  23
ATOM     21  C   UNL     1      -1.064  12.640  20.857  0.00  0.00    +0.000 A 
ATOM     22  C   UNL     1      -0.795  11.345  20.455  0.00  0.00    +0.000 A 
ATOM     23  C   UNL     1      -0.701  10.404  21.454  0.00  0.00    +0.000 A 
ATOM     24  N   UNL     1      -0.927  10.666  22.750  0.00  0.00    +0.000 NA
ATOM     25  C   UNL     1      -1.215  11.942  23.033  0.00  0.00    +0.000 A 
ATOM     26  N   UNL     1      -1.279  12.957  22.156  0.00  0.00    +0.000 NA
BRANCH  21  27
ATOM     27  C   UNL     1      -1.064  13.743  19.811  0.00  0.00    +0.000 C 
BRANCH  27  28
ATOM     28  N   UNL     1      -0.960  13.272  18.426  0.00  0.00    +0.000 NA
ATOM     29  H   UNL     1      -0.277  12.514  18.409  0.00  0.00    +0.000 HD
ATOM     30  H   UNL     1      -1.841  12.810  18.196  0.00  0.00    +0.000 HD
ENDBRANCH  27  28
ENDBRANCH  21  27
ENDBRANCH  20  23
ENDBRANCH  19  20
ENDBRANCH   1  19
TORSDOF 9
ENDMDL
MODEL 6
REMARK VINA RESULT:      -7.4      2.750      9.333
REMARK  Name = 
REMARK  9 active torsions:
REMARK  status: ('A' for Active; 'I' for Inactive)
REMARK    1  A    between atoms: N_1  and  C_2
REMARK    2  A    between atoms: C_2  and  C_3
REMARK    3  A    between atoms: C_5  and  O_6
REMARK    4  A    between atoms: O_6  and  C_7
REMARK    5  A    between atoms: C_7  and  C_8
REMARK    6  A    between atoms: C_12  and  C_13
REMARK    7  A    between atoms: N_15  and  C_16
REMARK    8  A    between atoms: C_16  and  C_17
REMARK    9  A    between atoms: C_17  and  N_18
REMARK                            x       y       z     vdW  Elec       q    Type
REMARK                         _______ _______ _______ _____ _____    ______ ____
ROOT
ATOM      1  C   UNL     1       0.393  10.151  19.680  0.00  0.00    +0.000 A 
ATOM      2  C   UNL     1       0.101   9.941  21.036  0.00  0.00    +0.000 A 
ATOM      3  C   UNL     1       0.619   8.837  21.711  0.00  0.00    +0.000 A 
ATOM      4  C   UNL     1       1.436   7.933  21.035  0.00  0.00    +0.000 A 
ATOM      5  C   UNL     1       1.762   8.141  19.688  0.00  0.00    +0.000 A 
ATOM      6  C   UNL     1       1.238   9.250  19.012  0.00  0.00    +0.000 A 
ENDROOT
BRANCH   5   7
ATOM      7  C   UNL     1       2.620   7.135  19.011  0.00  0.00    +0.000 C 
ATOM      8  O   UNL     1       2.932   7.288  17.839  0.00  0.00    +0.000 OA
ATOM      9  N   UNL     1       3.000   6.035  19.761  0.00  0.00    +0.000 N 
ATOM     10  H   UNL     1       2.635   5.900  20.703  0.00  0.00    +0.000 HD
BRANCH   9  11
ATOM     11  C   UNL     1       3.876   5.025  19.203  0.00  0.00    +0.000 C 
BRANCH  11  12
ATOM     12  C   UNL     1       5.365   5.363  19.317  0.00  0.00    +0.000 C 
BRANCH  12  13
ATOM     13  N   UNL     1       6.148   5.059  18.130  0.00  0.00    +0.000 N 
ATOM     14  C   UNL     1       5.578   4.543  16.925  0.00  0.00    +0.000 C 
ATOM     15  C   UNL     1       6.787   4.448  16.023  0.00  0.00    +0.000 C 
ATOM     16  O   UNL     1       7.914   4.421  16.910  0.00  0.00    +0.000 OA
ATOM     17  C   UNL     1       7.503   4.844  18.143  0.00  0.00    +0.000 C 
ATOM     18  O   UNL     1       8.241   4.978  19.106  0.00  0.00    +0.000 OA
ENDBRANCH  12  13
ENDBRANCH  11  12
ENDBRANCH   9  11
ENDBRANCH   5   7
BRANCH   1  19
ATOM     19  C   UNL     1      -0.169  11.355  18.962  0.00  0.00    +0.000 C 
BRANCH  19  20
ATOM     20  O   UNL     1      -1.335  11.805  19.646  0.00  0.00    +0.000 OA
BRANCH  20  23
ATOM     21  C   UNL     1      -3.532  11.319  16.853  0.00  0.00    +0.000 A 
ATOM     22  C   UNL     1      -2.374  11.333  17.606  0.00  0.00    +0.000 A 
ATOM     23  C   UNL     1      -2.499  11.760  18.908  0.00  0.00    +0.000 A 
ATOM     24  N   UNL     1      -3.670  12.078  19.480  0.00  0.00    +0.000 NA
ATOM     25  C   UNL     1      -4.738  11.998  18.677  0.00  0.00    +0.000 A 
ATOM     26  N   UNL     1      -4.734  11.652  17.380  0.00  0.00    +0.000 NA
BRANCH  21  27
ATOM     27  C   UNL     1      -3.438  10.969  15.376  0.00  0.00    +0.000 C 
BRANCH  27  28
ATOM     28  N   UNL     1      -2.799   9.678  15.094  0.00  0.00    +0.000 NA
ATOM     29  H   UNL     1      -3.425   8.945  15.429  0.00  0.00    +0.000 HD
ATOM     30  H   UNL     1      -2.802   9.554  14.080  0.00  0.00    +0.000 HD
ENDBRANCH  27  28
ENDBRANCH  21  27
ENDBRANCH  20  23
ENDBRANCH  19  20
ENDBRANCH   1  19
TORSDOF 9
ENDMDL
MODEL 7
REMARK VINA RESULT:      -7.3      1.234      2.204
REMARK  Name = 
REMARK  9 active torsions:
REMARK  status: ('A' for Active; 'I' for Inactive)
REMARK    1  A    between atoms: N_1  and  C_2
REMARK    2  A    between atoms: C_2  and  C_3
REMARK    3  A    between atoms: C_5  and  O_6
REMARK    4  A    between atoms: O_6  and  C_7
REMARK    5  A    between atoms: C_7  and  C_8
REMARK    6  A    between atoms: C_12  and  C_13
REMARK    7  A    between atoms: N_15  and  C_16
REMARK    8  A    between atoms: C_16  and  C_17
REMARK    9  A    between atoms: C_17  and  N_18
REMARK                            x       y       z     vdW  Elec       q    Type
REMARK                         _______ _______ _______ _____ _____    ______ ____
ROOT
ATOM      1  C   UNL     1       3.374   3.768  18.919  0.00  0.00    +0.000 A 
ATOM      2  C   UNL     1       2.892   2.962  19.963  0.00  0.00    +0.000 A 
ATOM      3  C   UNL     1       2.151   3.518  21.003  0.00  0.00    +0.000 A 
ATOM      4  C   UNL     1       1.881   4.885  21.009  0.00  0.00    +0.000 A 
ATOM      5  C   UNL     1       2.329   5.700  19.961  0.00  0.00    +0.000 A 
ATOM      6  C   UNL     1       3.076   5.140  18.918  0.00  0.00    +0.000 A 
ENDROOT
BRANCH   5   7
ATOM      7  C   UNL     1       2.031   7.154  20.028  0.00  0.00    +0.000 C 
ATOM      8  O   UNL     1       2.202   7.859  19.044  0.00  0.00    +0.000 OA
ATOM      9  N   UNL     1       1.595   7.645  21.247  0.00  0.00    +0.000 N 
ATOM     10  H   UNL     1       1.562   7.040  22.066  0.00  0.00    +0.000 HD
BRANCH   9  11
ATOM     11  C   UNL     1       1.233   9.040  21.398  0.00  0.00    +0.000 C 
BRANCH  11  12
ATOM     12  C   UNL     1      -0.269   9.309  21.268  0.00  0.00    +0.000 C 
BRANCH  12  13
ATOM     13  N   UNL     1      -0.611  10.428  20.404  0.00  0.00    +0.000 N 
ATOM     14  C   UNL     1      -0.104  10.579  19.076  0.00  0.00    +0.000 C 
ATOM     15  C   UNL     1      -0.785  11.849  18.623  0.00  0.00    +0.000 C 
ATOM     16  O   UNL     1      -1.165  12.521  19.833  0.00  0.00    +0.000 OA
ATOM     17  C   UNL     1      -1.100  11.625  20.863  0.00  0.00    +0.000 C 
ATOM     18  O   UNL     1      -1.411  11.878  22.016  0.00  0.00    +0.000 OA
ENDBRANCH  12  13
ENDBRANCH  11  12
ENDBRANCH   9  11
ENDBRANCH   5   7
BRANCH   1  19
ATOM     19  C   UNL     1       4.171   3.152  17.794  0.00  0.00    +0.000 C 
BRANCH  19  20
ATOM     20  O   UNL     1       4.028   3.957  16.626  0.00  0.00    +0.000 OA
BRANCH  20  23
ATOM     21  C   UNL     1       6.600   4.518  14.190  0.00  0.00    +0.000 A 
ATOM     22  C   UNL     1       5.401   4.108  14.741  0.00  0.00    +0.000 A 
ATOM     23  C   UNL     1       5.212   4.396  16.072  0.00  0.00    +0.000 A 
ATOM     24  N   UNL     1       6.080   5.102  16.814  0.00  0.00    +0.000 NA
ATOM     25  C   UNL     1       7.194   5.484  16.179  0.00  0.00    +0.000 A 
ATOM     26  N   UNL     1       7.516   5.214  14.904  0.00  0.00    +0.000 NA
BRANCH  21  27
ATOM     27  C   UNL     1       6.916   4.126  12.755  0.00  0.00    +0.000 C 
BRANCH  27  28
ATOM     28  N   UNL     1       6.286   2.877  12.310  0.00  0.00    +0.000 NA
ATOM     29  H   UNL     1       6.825   2.104  12.702  0.00  0.00    +0.000 HD
ATOM     30  H   UNL     1       5.384   2.808  12.783  0.00  0.00    +0.000 HD
ENDBRANCH  27  28
ENDBRANCH  21  27
ENDBRANCH  20  23
ENDBRANCH  19  20
ENDBRANCH   1  19
TORSDOF 9
ENDMDL
MODEL 8
REMARK VINA RESULT:      -7.3      3.211      8.976
REMARK  Name = 
REMARK  9 active torsions:
REMARK  status: ('A' for Active; 'I' for Inactive)
REMARK    1  A    between atoms: N_1  and  C_2
REMARK    2  A    between atoms: C_2  and  C_3
REMARK    3  A    between atoms: C_5  and  O_6
REMARK    4  A    between atoms: O_6  and  C_7
REMARK    5  A    between atoms: C_7  and  C_8
REMARK    6  A    between atoms: C_12  and  C_13
REMARK    7  A    between atoms: N_15  and  C_16
REMARK    8  A    between atoms: C_16  and  C_17
REMARK    9  A    between atoms: C_17  and  N_18
REMARK                            x       y       z     vdW  Elec       q    Type
REMARK                         _______ _______ _______ _____ _____    ______ ____
ROOT
ATOM      1  C   UNL     1       0.867   9.429  19.032  0.00  0.00    +0.000 A 
ATOM      2  C   UNL     1       0.699   9.168  20.400  0.00  0.00    +0.000 A 
ATOM      3  C   UNL     1       1.334   8.080  20.997  0.00  0.00    +0.000 A 
ATOM      4  C   UNL     1       2.145   7.245  20.232  0.00  0.00    +0.000 A 
ATOM      5  C   UNL     1       2.348   7.507  18.870  0.00  0.00    +0.000 A 
ATOM      6  C   UNL     1       1.706   8.599  18.271  0.00  0.00    +0.000 A 
ENDROOT
BRANCH   5   7
ATOM      7  C   UNL     1       3.205   6.572  18.097  0.00  0.00    +0.000 C 
ATOM      8  O   UNL     1       4.264   6.962  17.627  0.00  0.00    +0.000 OA
ATOM      9  N   UNL     1       2.724   5.286  17.922  0.00  0.00    +0.000 N 
ATOM     10  H   UNL     1       1.792   5.034  18.246  0.00  0.00    +0.000 HD
BRANCH   9  11
ATOM     11  C   UNL     1       3.511   4.289  17.224  0.00  0.00    +0.000 C 
BRANCH  11  12
ATOM     12  C   UNL     1       3.578   2.938  17.942  0.00  0.00    +0.000 C 
BRANCH  12  13
ATOM     13  N   UNL     1       2.871   2.891  19.211  0.00  0.00    +0.000 N 
ATOM     14  C   UNL     1       3.517   2.641  20.462  0.00  0.00    +0.000 C 
ATOM     15  C   UNL     1       2.365   2.739  21.434  0.00  0.00    +0.000 C 
ATOM     16  O   UNL     1       1.187   2.526  20.642  0.00  0.00    +0.000 OA
ATOM     17  C   UNL     1       1.520   2.678  19.325  0.00  0.00    +0.000 C 
ATOM     18  O   UNL     1       0.725   2.607  18.402  0.00  0.00    +0.000 OA
ENDBRANCH  12  13
ENDBRANCH  11  12
ENDBRANCH   9  11
ENDBRANCH   5   7
BRANCH   1  19
ATOM     19  C   UNL     1       0.179  10.615  18.397  0.00  0.00    +0.000 C 
BRANCH  19  20
ATOM     20  O   UNL     1      -1.175  10.658  18.835  0.00  0.00    +0.000 OA
BRANCH  20  23
ATOM     21  C   UNL     1      -4.211  11.404  17.076  0.00  0.00    +0.000 A 
ATOM     22  C   UNL     1      -3.253  11.409  18.071  0.00  0.00    +0.000 A 
ATOM     23  C   UNL     1      -2.115  10.677  17.826  0.00  0.00    +0.000 A 
ATOM     24  N   UNL     1      -1.870  10.043  16.669  0.00  0.00    +0.000 NA
ATOM     25  C   UNL     1      -2.845  10.127  15.755  0.00  0.00    +0.000 A 
ATOM     26  N   UNL     1      -4.019  10.760  15.900  0.00  0.00    +0.000 NA
BRANCH  21  27
ATOM     27  C   UNL     1      -5.539  12.098  17.337  0.00  0.00    +0.000 C 
BRANCH  27  28
ATOM     28  N   UNL     1      -5.486  13.155  18.353  0.00  0.00    +0.000 NA
ATOM     29  H   UNL     1      -4.580  13.617  18.270  0.00  0.00    +0.000 HD
ATOM     30  H   UNL     1      -6.152  13.877  18.073  0.00  0.00    +0.000 HD
ENDBRANCH  27  28
ENDBRANCH  21  27
ENDBRANCH  20  23
ENDBRANCH  19  20
ENDBRANCH   1  19
TORSDOF 9
ENDMDL
MODEL 9
REMARK VINA RESULT:      -7.3      2.135      3.584
REMARK  Name = 
REMARK  9 active torsions:
REMARK  status: ('A' for Active; 'I' for Inactive)
REMARK    1  A    between atoms: N_1  and  C_2
REMARK    2  A    between atoms: C_2  and  C_3
REMARK    3  A    between atoms: C_5  and  O_6
REMARK    4  A    between atoms: O_6  and  C_7
REMARK    5  A    between atoms: C_7  and  C_8
REMARK    6  A    between atoms: C_12  and  C_13
REMARK    7  A    between atoms: N_15  and  C_16
REMARK    8  A    between atoms: C_16  and  C_17
REMARK    9  A    between atoms: C_17  and  N_18
REMARK                            x       y       z     vdW  Elec       q    Type
REMARK                         _______ _______ _______ _____ _____    ______ ____
ROOT
ATOM      1  C   UNL     1       4.698   5.046  17.467  0.00  0.00    +0.000 A 
ATOM      2  C   UNL     1       5.009   3.734  17.857  0.00  0.00    +0.000 A 
ATOM      3  C   UNL     1       4.393   3.159  18.966  0.00  0.00    +0.000 A 
ATOM      4  C   UNL     1       3.456   3.889  19.695  0.00  0.00    +0.000 A 
ATOM      5  C   UNL     1       3.112   5.190  19.304  0.00  0.00    +0.000 A 
ATOM      6  C   UNL     1       3.735   5.767  18.191  0.00  0.00    +0.000 A 
ENDROOT
BRANCH   5   7
ATOM      7  C   UNL     1       2.123   5.931  20.130  0.00  0.00    +0.000 C 
ATOM      8  O   UNL     1       1.206   5.330  20.670  0.00  0.00    +0.000 OA
ATOM      9  N   UNL     1       2.287   7.302  20.214  0.00  0.00    +0.000 N 
ATOM     10  H   UNL     1       3.007   7.773  19.667  0.00  0.00    +0.000 HD
BRANCH   9  11
ATOM     11  C   UNL     1       1.402   8.105  21.035  0.00  0.00    +0.000 C 
BRANCH  11  12
ATOM     12  C   UNL     1       0.833   9.332  20.318  0.00  0.00    +0.000 C 
BRANCH  12  13
ATOM     13  N   UNL     1       0.377  10.393  21.202  0.00  0.00    +0.000 N 
ATOM     14  C   UNL     1      -0.764  10.269  22.054  0.00  0.00    +0.000 C 
ATOM     15  C   UNL     1      -0.769  11.601  22.767  0.00  0.00    +0.000 C 
ATOM     16  O   UNL     1      -0.003  12.477  21.927  0.00  0.00    +0.000 OA
ATOM     17  C   UNL     1       0.707  11.715  21.043  0.00  0.00    +0.000 C 
ATOM     18  O   UNL     1       1.494  12.164  20.225  0.00  0.00    +0.000 OA
ENDBRANCH  12  13
ENDBRANCH  11  12
ENDBRANCH   9  11
ENDBRANCH   5   7
BRANCH   1  19
ATOM     19  C   UNL     1       5.368   5.656  16.258  0.00  0.00    +0.000 C 
BRANCH  19  20
ATOM     20  O   UNL     1       6.548   4.916  15.956  0.00  0.00    +0.000 OA
BRANCH  20  23
ATOM     21  C   UNL     1       6.276   3.701  12.591  0.00  0.00    +0.000 A 
ATOM     22  C   UNL     1       5.996   3.885  13.932  0.00  0.00    +0.000 A 
ATOM     23  C   UNL     1       6.810   4.761  14.611  0.00  0.00    +0.000 A 
ATOM     24  N   UNL     1       7.783   5.479  14.029  0.00  0.00    +0.000 NA
ATOM     25  C   UNL     1       7.952   5.256  12.720  0.00  0.00    +0.000 A 
ATOM     26  N   UNL     1       7.262   4.388  11.965  0.00  0.00    +0.000 NA
BRANCH  21  27
ATOM     27  C   UNL     1       5.486   2.659  11.817  0.00  0.00    +0.000 C 
BRANCH  27  28
ATOM     28  N   UNL     1       6.214   1.412  11.553  0.00  0.00    +0.000 NA
ATOM     29  H   UNL     1       6.888   1.601  10.810  0.00  0.00    +0.000 HD
ATOM     30  H   UNL     1       6.799   1.225  12.368  0.00  0.00    +0.000 HD
ENDBRANCH  27  28
ENDBRANCH  21  27
ENDBRANCH  20  23
ENDBRANCH  19  20
ENDBRANCH   1  19
TORSDOF 9
ENDMDL
