MODEL 1
REMARK VINA RESULT:      -7.8      0.000      0.000
REMARK  Name = 
REMARK  5 active torsions:
REMARK  status: ('A' for Active; 'I' for Inactive)
REMARK    1  A    between atoms: C_1  and  C_2
REMARK    2  A    between atoms: N_4  and  C_5
REMARK    3  A    between atoms: C_8  and  C_9
REMARK    4  A    between atoms: N_18  and  C_19
REMARK    5  A    between atoms: C_19  and  C_20
REMARK                            x       y       z     vdW  Elec       q    Type
REMARK                         _______ _______ _______ _____ _____    ______ ____
ROOT
ATOM      1  C   UNL     1       2.252   5.067  20.888  0.00  0.00    +0.000 C 
ATOM      2  C   UNL     1       1.735   6.439  20.670  0.00  0.00    +0.000 A 
ATOM      3  N   UNL     1       0.930   6.993  21.585  0.00  0.00    +0.000 NA
ATOM      4  N   UNL     1       0.679   8.240  21.119  0.00  0.00    +0.000 N 
ATOM      5  C   UNL     1      -0.129   9.093  21.958  0.00  0.00    +0.000 C 
ATOM      6  C   UNL     1       1.291   8.494  19.914  0.00  0.00    +0.000 A 
ATOM      7  C   UNL     1       1.968   7.333  19.607  0.00  0.00    +0.000 A 
ATOM      8  C   UNL     1       2.730   7.254  18.408  0.00  0.00    +0.000 A 
ATOM      9  C   UNL     1       2.815   8.348  17.628  0.00  0.00    +0.000 A 
ATOM     10  C   UNL     1       2.129   9.624  17.981  0.00  0.00    +0.000 A 
ATOM     11  O   UNL     1       2.311  10.592  17.241  0.00  0.00    +0.000 OA
ATOM     12  N   UNL     1       1.312   9.652  19.123  0.00  0.00    +0.000 N 
ENDROOT
BRANCH   8  13
ATOM     13  C   UNL     1       3.440   6.060  17.911  0.00  0.00    +0.000 A 
ATOM     14  C   UNL     1       4.822   6.106  17.689  0.00  0.00    +0.000 A 
ATOM     15  C   UNL     1       5.490   4.986  17.188  0.00  0.00    +0.000 A 
ATOM     16  C   UNL     1       4.784   3.821  16.902  0.00  0.00    +0.000 A 
ATOM     17  C   UNL     1       3.407   3.767  17.120  0.00  0.00    +0.000 A 
ATOM     18  C   UNL     1       2.736   4.883  17.624  0.00  0.00    +0.000 A 
ENDBRANCH   8  13
BRANCH  12  19
ATOM     19  C   UNL     1       0.606  10.900  19.390  0.00  0.00    +0.000 C 
BRANCH  19  20
ATOM     20  C   UNL     1      -0.804  10.982  18.842  0.00  0.00    +0.000 A 
ATOM     21  C   UNL     1      -1.760  11.892  19.328  0.00  0.00    +0.000 A 
ATOM     22  C   UNL     1      -3.083  11.833  18.889  0.00  0.00    +0.000 A 
ATOM     23  C   UNL     1      -3.447  10.895  17.933  0.00  0.00    +0.000 A 
ATOM     24  F   UNL     1      -4.725  10.815  17.541  0.00  0.00    +0.000 F 
ATOM     25  C   UNL     1      -2.507  10.032  17.385  0.00  0.00    +0.000 A 
ATOM     26  C   UNL     1      -1.187  10.077  17.835  0.00  0.00    +0.000 A 
ENDBRANCH  19  20
ENDBRANCH  12  19
TORSDOF 3
ENDMDL
MODEL 2
REMARK VINA RESULT:      -7.8      0.190      1.352
REMARK  Name = 
REMARK  5 active torsions:
REMARK  status: ('A' for Active; 'I' for Inactive)
REMARK    1  A    between atoms: C_1  and  C_2
REMARK    2  A    between atoms: N_4  and  C_5
REMARK    3  A    between atoms: C_8  and  C_9
REMARK    4  A    between atoms: N_18  and  C_19
REMARK    5  A    between atoms: C_19  and  C_20
REMARK                            x       y       z     vdW  Elec       q    Type
REMARK                         _______ _______ _______ _____ _____    ______ ____
ROOT
ATOM      1  C   UNL     1       2.330   5.000  20.853  0.00  0.00    +0.000 C 
ATOM      2  C   UNL     1       1.795   6.368  20.650  0.00  0.00    +0.000 A 
ATOM      3  N   UNL     1       0.988   6.903  21.575  0.00  0.00    +0.000 NA
ATOM      4  N   UNL     1       0.718   8.151  21.121  0.00  0.00    +0.000 N 
ATOM      5  C   UNL     1      -0.096   8.987  21.972  0.00  0.00    +0.000 C 
ATOM      6  C   UNL     1       1.321   8.424  19.916  0.00  0.00    +0.000 A 
ATOM      7  C   UNL     1       2.011   7.274  19.594  0.00  0.00    +0.000 A 
ATOM      8  C   UNL     1       2.768   7.217  18.391  0.00  0.00    +0.000 A 
ATOM      9  C   UNL     1       2.836   8.319  17.621  0.00  0.00    +0.000 A 
ATOM     10  C   UNL     1       2.135   9.582  17.989  0.00  0.00    +0.000 A 
ATOM     11  O   UNL     1       2.302  10.559  17.257  0.00  0.00    +0.000 OA
ATOM     12  N   UNL     1       1.324   9.590  19.135  0.00  0.00    +0.000 N 
ENDROOT
BRANCH   8  13
ATOM     13  C   UNL     1       3.491   6.036  17.879  0.00  0.00    +0.000 A 
ATOM     14  C   UNL     1       2.788   4.871  17.546  0.00  0.00    +0.000 A 
ATOM     15  C   UNL     1       3.475   3.743  17.093  0.00  0.00    +0.000 A 
ATOM     16  C   UNL     1       4.862   3.769  16.976  0.00  0.00    +0.000 A 
ATOM     17  C   UNL     1       5.570   4.925  17.307  0.00  0.00    +0.000 A 
ATOM     18  C   UNL     1       4.887   6.057  17.756  0.00  0.00    +0.000 A 
ENDBRANCH   8  13
BRANCH  12  19
ATOM     19  C   UNL     1       0.603  10.826  19.417  0.00  0.00    +0.000 C 
BRANCH  19  20
ATOM     20  C   UNL     1      -0.818  10.886  18.896  0.00  0.00    +0.000 A 
ATOM     21  C   UNL     1      -1.263  10.119  17.805  0.00  0.00    +0.000 A 
ATOM     22  C   UNL     1      -2.540  10.314  17.276  0.00  0.00    +0.000 A 
ATOM     23  C   UNL     1      -3.390  11.243  17.859  0.00  0.00    +0.000 A 
ATOM     24  F   UNL     1      -4.600  11.455  17.326  0.00  0.00    +0.000 F 
ATOM     25  C   UNL     1      -3.000  11.963  18.980  0.00  0.00    +0.000 A 
ATOM     26  C   UNL     1      -1.718  11.782  19.502  0.00  0.00    +0.000 A 
ENDBRANCH  19  20
ENDBRANCH  12  19
TORSDOF 3
ENDMDL
MODEL 3
REMARK VINA RESULT:      -7.4      4.090      7.896
REMARK  Name = 
REMARK  5 active torsions:
REMARK  status: ('A' for Active; 'I' for Inactive)
REMARK    1  A    between atoms: C_1  and  C_2
REMARK    2  A    between atoms: N_4  and  C_5
REMARK    3  A    between atoms: C_8  and  C_9
REMARK    4  A    between atoms: N_18  and  C_19
REMARK    5  A    between atoms: C_19  and  C_20
REMARK                            x       y       z     vdW  Elec       q    Type
REMARK                         _______ _______ _______ _____ _____    ______ ____
ROOT
ATOM      1  C   UNL     1       0.821   4.885  20.031  0.00  0.00    +0.000 C 
ATOM      2  C   UNL     1       2.108   4.591  19.355  0.00  0.00    +0.000 A 
ATOM      3  N   UNL     1       2.541   3.326  19.287  0.00  0.00    +0.000 NA
ATOM      4  N   UNL     1       3.697   3.392  18.583  0.00  0.00    +0.000 N 
ATOM      5  C   UNL     1       4.356   2.138  18.302  0.00  0.00    +0.000 C 
ATOM      6  C   UNL     1       4.025   4.675  18.211  0.00  0.00    +0.000 A 
ATOM      7  C   UNL     1       3.011   5.462  18.716  0.00  0.00    +0.000 A 
ATOM      8  C   UNL     1       3.033   6.868  18.500  0.00  0.00    +0.000 A 
ATOM      9  C   UNL     1       4.025   7.388  17.753  0.00  0.00    +0.000 A 
ATOM     10  C   UNL     1       5.095   6.536  17.160  0.00  0.00    +0.000 A 
ATOM     11  O   UNL     1       5.928   7.089  16.440  0.00  0.00    +0.000 OA
ATOM     12  N   UNL     1       5.102   5.164  17.457  0.00  0.00    +0.000 N 
ENDROOT
BRANCH   8  13
ATOM     13  C   UNL     1       2.064   7.841  19.041  0.00  0.00    +0.000 A 
ATOM     14  C   UNL     1       1.449   8.767  18.190  0.00  0.00    +0.000 A 
ATOM     15  C   UNL     1       0.557   9.710  18.706  0.00  0.00    +0.000 A 
ATOM     16  C   UNL     1       0.279   9.736  20.070  0.00  0.00    +0.000 A 
ATOM     17  C   UNL     1       0.889   8.817  20.925  0.00  0.00    +0.000 A 
ATOM     18  C   UNL     1       1.779   7.871  20.413  0.00  0.00    +0.000 A 
ENDBRANCH   8  13
BRANCH  12  19
ATOM     19  C   UNL     1       6.208   4.384  16.913  0.00  0.00    +0.000 C 
BRANCH  19  20
ATOM     20  C   UNL     1       6.320   4.376  15.402  0.00  0.00    +0.000 A 
ATOM     21  C   UNL     1       5.373   3.754  14.570  0.00  0.00    +0.000 A 
ATOM     22  C   UNL     1       5.593   3.654  13.196  0.00  0.00    +0.000 A 
ATOM     23  C   UNL     1       6.737   4.211  12.643  0.00  0.00    +0.000 A 
ATOM     24  F   UNL     1       6.966   4.081  11.329  0.00  0.00    +0.000 F 
ATOM     25  C   UNL     1       7.653   4.893  13.433  0.00  0.00    +0.000 A 
ATOM     26  C   UNL     1       7.444   4.980  14.810  0.00  0.00    +0.000 A 
ENDBRANCH  19  20
ENDBRANCH  12  19
TORSDOF 3
ENDMDL
MODEL 4
REMARK VINA RESULT:      -7.4      3.823      7.700
REMARK  Name = 
REMARK  5 active torsions:
REMARK  status: ('A' for Active; 'I' for Inactive)
REMARK    1  A    between atoms: C_1  and  C_2
REMARK    2  A    between atoms: N_4  and  C_5
REMARK    3  A    between atoms: C_8  and  C_9
REMARK    4  A    between atoms: N_18  and  C_19
REMARK    5  A    between atoms: C_19  and  C_20
REMARK                            x       y       z     vdW  Elec       q    Type
REMARK                         _______ _______ _______ _____ _____    ______ ____
ROOT
ATOM      1  C   UNL     1       0.915   5.409  20.478  0.00  0.00    +0.000 C 
ATOM      2  C   UNL     1       2.222   5.098  19.850  0.00  0.00    +0.000 A 
ATOM      3  N   UNL     1       2.766   3.888  20.025  0.00  0.00    +0.000 NA
ATOM      4  N   UNL     1       3.909   3.911  19.300  0.00  0.00    +0.000 N 
ATOM      5  C   UNL     1       4.676   2.688  19.261  0.00  0.00    +0.000 C 
ATOM      6  C   UNL     1       4.122   5.118  18.675  0.00  0.00    +0.000 A 
ATOM      7  C   UNL     1       3.043   5.899  19.033  0.00  0.00    +0.000 A 
ATOM      8  C   UNL     1       2.941   7.230  18.542  0.00  0.00    +0.000 A 
ATOM      9  C   UNL     1       3.881   7.674  17.687  0.00  0.00    +0.000 A 
ATOM     10  C   UNL     1       5.021   6.817  17.254  0.00  0.00    +0.000 A 
ATOM     11  O   UNL     1       5.801   7.285  16.423  0.00  0.00    +0.000 OA
ATOM     12  N   UNL     1       5.150   5.538  17.818  0.00  0.00    +0.000 N 
ENDROOT
BRANCH   8  13
ATOM     13  C   UNL     1       1.890   8.204  18.897  0.00  0.00    +0.000 A 
ATOM     14  C   UNL     1       1.206   8.899  17.891  0.00  0.00    +0.000 A 
ATOM     15  C   UNL     1       0.235   9.844  18.228  0.00  0.00    +0.000 A 
ATOM     16  C   UNL     1      -0.053  10.104  19.565  0.00  0.00    +0.000 A 
ATOM     17  C   UNL     1       0.624   9.418  20.573  0.00  0.00    +0.000 A 
ATOM     18  C   UNL     1       1.593   8.469  20.241  0.00  0.00    +0.000 A 
ENDBRANCH   8  13
BRANCH  12  19
ATOM     19  C   UNL     1       6.319   4.763  17.419  0.00  0.00    +0.000 C 
BRANCH  19  20
ATOM     20  C   UNL     1       6.440   4.482  15.935  0.00  0.00    +0.000 A 
ATOM     21  C   UNL     1       7.516   4.945  15.156  0.00  0.00    +0.000 A 
ATOM     22  C   UNL     1       7.510   4.781  13.770  0.00  0.00    +0.000 A 
ATOM     23  C   UNL     1       6.454   4.117  13.163  0.00  0.00    +0.000 A 
ATOM     24  F   UNL     1       6.432   3.993  11.829  0.00  0.00    +0.000 F 
ATOM     25  C   UNL     1       5.414   3.588  13.916  0.00  0.00    +0.000 A 
ATOM     26  C   UNL     1       5.409   3.766  15.301  0.00  0.00    +0.000 A 
ENDBRANCH  19  20
ENDBRANCH  12  19
TORSDOF 3
ENDMDL
MODEL 5
REMARK VINA RESULT:      -7.0      4.351      8.143
REMARK  Name = 
REMARK  5 active torsions:
REMARK  status: ('A' for Active; 'I' for Inactive)
REMARK    1  A    between atoms: C_1  and  C_2
REMARK    2  A    between atoms: N_4  and  C_5
REMARK    3  A    between atoms: C_8  and  C_9
REMARK    4  A    between atoms: N_18  and  C_19
REMARK    5  A    between atoms: C_19  and  C_20
REMARK                            x       y       z     vdW  Elec       q    Type
REMARK                         _______ _______ _______ _____ _____    ______ ____
ROOT
ATOM      1  C   UNL     1       0.927   4.739  19.005  0.00  0.00    +0.000 C 
ATOM      2  C   UNL     1       2.270   4.495  18.428  0.00  0.00    +0.000 A 
ATOM      3  N   UNL     1       2.656   3.241  18.165  0.00  0.00    +0.000 NA
ATOM      4  N   UNL     1       3.888   3.363  17.614  0.00  0.00    +0.000 N 
ATOM      5  C   UNL     1       4.522   2.145  17.170  0.00  0.00    +0.000 C 
ATOM      6  C   UNL     1       4.309   4.670  17.532  0.00  0.00    +0.000 A 
ATOM      7  C   UNL     1       3.277   5.411  18.066  0.00  0.00    +0.000 A 
ATOM      8  C   UNL     1       3.382   6.829  18.127  0.00  0.00    +0.000 A 
ATOM      9  C   UNL     1       4.474   7.415  17.603  0.00  0.00    +0.000 A 
ATOM     10  C   UNL     1       5.571   6.623  16.976  0.00  0.00    +0.000 A 
ATOM     11  O   UNL     1       6.504   7.246  16.468  0.00  0.00    +0.000 OA
ATOM     12  N   UNL     1       5.486   5.222  17.005  0.00  0.00    +0.000 N 
ENDROOT
BRANCH   8  13
ATOM     13  C   UNL     1       2.398   7.744  18.738  0.00  0.00    +0.000 A 
ATOM     14  C   UNL     1       2.091   7.639  20.100  0.00  0.00    +0.000 A 
ATOM     15  C   UNL     1       1.136   8.483  20.671  0.00  0.00    +0.000 A 
ATOM     16  C   UNL     1       0.481   9.428  19.887  0.00  0.00    +0.000 A 
ATOM     17  C   UNL     1       0.780   9.538  18.529  0.00  0.00    +0.000 A 
ATOM     18  C   UNL     1       1.736   8.699  17.954  0.00  0.00    +0.000 A 
ENDBRANCH   8  13
BRANCH  12  19
ATOM     19  C   UNL     1       6.614   4.488  16.442  0.00  0.00    +0.000 C 
BRANCH  19  20
ATOM     20  C   UNL     1       6.682   4.454  14.929  0.00  0.00    +0.000 A 
ATOM     21  C   UNL     1       5.832   3.654  14.145  0.00  0.00    +0.000 A 
ATOM     22  C   UNL     1       6.027   3.552  12.767  0.00  0.00    +0.000 A 
ATOM     23  C   UNL     1       7.041   4.280  12.162  0.00  0.00    +0.000 A 
ATOM     24  F   UNL     1       7.251   4.151  10.845  0.00  0.00    +0.000 F 
ATOM     25  C   UNL     1       7.849   5.132  12.903  0.00  0.00    +0.000 A 
ATOM     26  C   UNL     1       7.668   5.224  14.284  0.00  0.00    +0.000 A 
ENDBRANCH  19  20
ENDBRANCH  12  19
TORSDOF 3
ENDMDL
MODEL 6
REMARK VINA RESULT:      -7.0      3.614      8.422
REMARK  Name = 
REMARK  5 active torsions:
REMARK  status: ('A' for Active; 'I' for Inactive)
REMARK    1  A    between atoms: C_1  and  C_2
REMARK    2  A    between atoms: N_4  and  C_5
REMARK    3  A    between atoms: C_8  and  C_9
REMARK    4  A    between atoms: N_18  and  C_19
REMARK    5  A    between atoms: C_19  and  C_20
REMARK                            x       y       z     vdW  Elec       q    Type
REMARK                         _______ _______ _______ _____ _____    ______ ____
ROOT
ATOM      1  C   UNL     1      -4.976  12.613  19.950  0.00  0.00    +0.000 C 
ATOM      2  C   UNL     1      -3.647  12.122  19.514  0.00  0.00    +0.000 A 
ATOM      3  N   UNL     1      -3.537  11.460  18.356  0.00  0.00    +0.000 NA
ATOM      4  N   UNL     1      -2.214  11.196  18.230  0.00  0.00    +0.000 N 
ATOM      5  C   UNL     1      -1.799  10.533  17.017  0.00  0.00    +0.000 C 
ATOM      6  C   UNL     1      -1.473  11.659  19.292  0.00  0.00    +0.000 A 
ATOM      7  C   UNL     1      -2.389  12.249  20.136  0.00  0.00    +0.000 A 
ATOM      8  C   UNL     1      -1.950  12.849  21.349  0.00  0.00    +0.000 A 
ATOM      9  C   UNL     1      -0.631  12.874  21.613  0.00  0.00    +0.000 A 
ATOM     10  C   UNL     1       0.371  12.284  20.679  0.00  0.00    +0.000 A 
ATOM     11  O   UNL     1       1.562  12.406  20.972  0.00  0.00    +0.000 OA
ATOM     12  N   UNL     1      -0.091  11.621  19.531  0.00  0.00    +0.000 N 
ENDROOT
BRANCH   8  13
ATOM     13  C   UNL     1      -2.819  13.448  22.381  0.00  0.00    +0.000 A 
ATOM     14  C   UNL     1      -3.344  12.651  23.406  0.00  0.00    +0.000 A 
ATOM     15  C   UNL     1      -4.192  13.210  24.365  0.00  0.00    +0.000 A 
ATOM     16  C   UNL     1      -4.522  14.561  24.303  0.00  0.00    +0.000 A 
ATOM     17  C   UNL     1      -4.004  15.362  23.285  0.00  0.00    +0.000 A 
ATOM     18  C   UNL     1      -3.153  14.808  22.326  0.00  0.00    +0.000 A 
ENDBRANCH   8  13
BRANCH  12  19
ATOM     19  C   UNL     1       0.921  10.999  18.685  0.00  0.00    +0.000 C 
BRANCH  19  20
ATOM     20  C   UNL     1       1.295   9.577  19.051  0.00  0.00    +0.000 A 
ATOM     21  C   UNL     1       1.053   9.029  20.323  0.00  0.00    +0.000 A 
ATOM     22  C   UNL     1       1.542   7.765  20.655  0.00  0.00    +0.000 A 
ATOM     23  C   UNL     1       2.234   7.027  19.705  0.00  0.00    +0.000 A 
ATOM     24  F   UNL     1       2.735   5.829  20.037  0.00  0.00    +0.000 F 
ATOM     25  C   UNL     1       2.425   7.516  18.419  0.00  0.00    +0.000 A 
ATOM     26  C   UNL     1       1.952   8.787  18.090  0.00  0.00    +0.000 A 
ENDBRANCH  19  20
ENDBRANCH  12  19
TORSDOF 3
ENDMDL
MODEL 7
REMARK VINA RESULT:      -6.9      1.826      3.375
REMARK  Name = 
REMARK  5 active torsions:
REMARK  status: ('A' for Active; 'I' for Inactive)
REMARK    1  A    between atoms: C_1  and  C_2
REMARK    2  A    between atoms: N_4  and  C_5
REMARK    3  A    between atoms: C_8  and  C_9
REMARK    4  A    between atoms: N_18  and  C_19
REMARK    5  A    between atoms: C_19  and  C_20
REMARK                            x       y       z     vdW  Elec       q    Type
REMARK                         _______ _______ _______ _____ _____    ______ ____
ROOT
ATOM      1  C   UNL     1       3.304   5.709  17.671  0.00  0.00    +0.000 C 
ATOM      2  C   UNL     1       2.801   6.993  18.216  0.00  0.00    +0.000 A 
ATOM      3  N   UNL     1       3.088   8.135  17.580  0.00  0.00    +0.000 NA
ATOM      4  N   UNL     1       2.456   9.098  18.293  0.00  0.00    +0.000 N 
ATOM      5  C   UNL     1       2.548  10.446  17.783  0.00  0.00    +0.000 C 
ATOM      6  C   UNL     1       1.783   8.601  19.384  0.00  0.00    +0.000 A 
ATOM      7  C   UNL     1       2.008   7.242  19.353  0.00  0.00    +0.000 A 
ATOM      8  C   UNL     1       1.437   6.407  20.353  0.00  0.00    +0.000 A 
ATOM      9  C   UNL     1       0.636   6.968  21.278  0.00  0.00    +0.000 A 
ATOM     10  C   UNL     1       0.345   8.430  21.286  0.00  0.00    +0.000 A 
ATOM     11  O   UNL     1      -0.446   8.848  22.133  0.00  0.00    +0.000 OA
ATOM     12  N   UNL     1       0.989   9.247  20.344  0.00  0.00    +0.000 N 
ENDROOT
BRANCH   8  13
ATOM     13  C   UNL     1       1.651   4.953  20.492  0.00  0.00    +0.000 A 
ATOM     14  C   UNL     1       1.001   4.061  19.630  0.00  0.00    +0.000 A 
ATOM     15  C   UNL     1       1.178   2.684  19.782  0.00  0.00    +0.000 A 
ATOM     16  C   UNL     1       1.997   2.192  20.795  0.00  0.00    +0.000 A 
ATOM     17  C   UNL     1       2.647   3.074  21.659  0.00  0.00    +0.000 A 
ATOM     18  C   UNL     1       2.476   4.452  21.508  0.00  0.00    +0.000 A 
ENDBRANCH   8  13
BRANCH  12  19
ATOM     19  C   UNL     1       0.729  10.680  20.435  0.00  0.00    +0.000 C 
BRANCH  19  20
ATOM     20  C   UNL     1      -0.578  11.146  19.825  0.00  0.00    +0.000 A 
ATOM     21  C   UNL     1      -1.374  12.149  20.404  0.00  0.00    +0.000 A 
ATOM     22  C   UNL     1      -2.634  12.444  19.881  0.00  0.00    +0.000 A 
ATOM     23  C   UNL     1      -3.084  11.769  18.755  0.00  0.00    +0.000 A 
ATOM     24  F   UNL     1      -4.309  12.027  18.278  0.00  0.00    +0.000 F 
ATOM     25  C   UNL     1      -2.287  10.824  18.123  0.00  0.00    +0.000 A 
ATOM     26  C   UNL     1      -1.034  10.515  18.653  0.00  0.00    +0.000 A 
ENDBRANCH  19  20
ENDBRANCH  12  19
TORSDOF 3
ENDMDL
MODEL 8
REMARK VINA RESULT:      -6.8      1.793      3.256
REMARK  Name = 
REMARK  5 active torsions:
REMARK  status: ('A' for Active; 'I' for Inactive)
REMARK    1  A    between atoms: C_1  and  C_2
REMARK    2  A    between atoms: N_4  and  C_5
REMARK    3  A    between atoms: C_8  and  C_9
REMARK    4  A    between atoms: N_18  and  C_19
REMARK    5  A    between atoms: C_19  and  C_20
REMARK                            x       y       z     vdW  Elec       q    Type
REMARK                         _______ _______ _______ _____ _____    ______ ____
ROOT
ATOM      1  C   UNL     1       3.497   6.164  17.462  0.00  0.00    +0.000 C 
ATOM      2  C   UNL     1       2.864   7.361  18.066  0.00  0.00    +0.000 A 
ATOM      3  N   UNL     1       2.970   8.544  17.448  0.00  0.00    +0.000 NA
ATOM      4  N   UNL     1       2.259   9.403  18.217  0.00  0.00    +0.000 N 
ATOM      5  C   UNL     1       2.153  10.761  17.740  0.00  0.00    +0.000 C 
ATOM      6  C   UNL     1       1.711   8.801  19.325  0.00  0.00    +0.000 A 
ATOM      7  C   UNL     1       2.105   7.482  19.246  0.00  0.00    +0.000 A 
ATOM      8  C   UNL     1       1.695   6.560  20.248  0.00  0.00    +0.000 A 
ATOM      9  C   UNL     1       0.878   6.994  21.226  0.00  0.00    +0.000 A 
ATOM     10  C   UNL     1       0.405   8.407  21.288  0.00  0.00    +0.000 A 
ATOM     11  O   UNL     1      -0.389   8.702  22.183  0.00  0.00    +0.000 OA
ATOM     12  N   UNL     1       0.891   9.319  20.339  0.00  0.00    +0.000 N 
ENDROOT
BRANCH   8  13
ATOM     13  C   UNL     1       2.099   5.143  20.338  0.00  0.00    +0.000 A 
ATOM     14  C   UNL     1       3.441   4.782  20.164  0.00  0.00    +0.000 A 
ATOM     15  C   UNL     1       3.819   3.439  20.216  0.00  0.00    +0.000 A 
ATOM     16  C   UNL     1       2.862   2.452  20.435  0.00  0.00    +0.000 A 
ATOM     17  C   UNL     1       1.523   2.802  20.608  0.00  0.00    +0.000 A 
ATOM     18  C   UNL     1       1.141   4.144  20.561  0.00  0.00    +0.000 A 
ENDBRANCH   8  13
BRANCH  12  19
ATOM     19  C   UNL     1       0.456  10.704  20.482  0.00  0.00    +0.000 C 
BRANCH  19  20
ATOM     20  C   UNL     1      -0.904  11.025  19.897  0.00  0.00    +0.000 A 
ATOM     21  C   UNL     1      -1.418  10.375  18.761  0.00  0.00    +0.000 A 
ATOM     22  C   UNL     1      -2.612  10.802  18.179  0.00  0.00    +0.000 A 
ATOM     23  C   UNL     1      -3.318  11.850  18.753  0.00  0.00    +0.000 A 
ATOM     24  F   UNL     1      -4.444  12.284  18.171  0.00  0.00    +0.000 F 
ATOM     25  C   UNL     1      -2.869  12.462  19.916  0.00  0.00    +0.000 A 
ATOM     26  C   UNL     1      -1.666  12.048  20.490  0.00  0.00    +0.000 A 
ENDBRANCH  19  20
ENDBRANCH  12  19
TORSDOF 3
ENDMDL
MODEL 9
REMARK VINA RESULT:      -6.7      2.481      3.994
REMARK  Name = 
REMARK  5 active torsions:
REMARK  status: ('A' for Active; 'I' for Inactive)
REMARK    1  A    between atoms: C_1  and  C_2
REMARK    2  A    between atoms: N_4  and  C_5
REMARK    3  A    between atoms: C_8  and  C_9
REMARK    4  A    between atoms: N_18  and  C_19
REMARK    5  A    between atoms: C_19  and  C_20
REMARK                            x       y       z     vdW  Elec       q    Type
REMARK                         _______ _______ _______ _____ _____    ______ ____
ROOT
ATOM      1  C   UNL     1       1.355   9.055  22.606  0.00  0.00    +0.000 C 
ATOM      2  C   UNL     1       0.328  10.035  22.174  0.00  0.00    +0.000 A 
ATOM      3  N   UNL     1      -0.365  10.712  23.097  0.00  0.00    +0.000 NA
ATOM      4  N   UNL     1      -1.170  11.540  22.390  0.00  0.00    +0.000 N 
ATOM      5  C   UNL     1      -1.996  12.446  23.152  0.00  0.00    +0.000 C 
ATOM      6  C   UNL     1      -1.022  11.397  21.030  0.00  0.00    +0.000 A 
ATOM      7  C   UNL     1      -0.064  10.418  20.877  0.00  0.00    +0.000 A 
ATOM      8  C   UNL     1       0.342  10.024  19.572  0.00  0.00    +0.000 A 
ATOM      9  C   UNL     1      -0.184  10.666  18.513  0.00  0.00    +0.000 A 
ATOM     10  C   UNL     1      -1.182  11.763  18.673  0.00  0.00    +0.000 A 
ATOM     11  O   UNL     1      -1.565  12.337  17.652  0.00  0.00    +0.000 OA
ATOM     12  N   UNL     1      -1.633  12.076  19.965  0.00  0.00    +0.000 N 
ENDROOT
BRANCH   8  13
ATOM     13  C   UNL     1       1.295   8.943  19.252  0.00  0.00    +0.000 A 
ATOM     14  C   UNL     1       2.038   8.988  18.066  0.00  0.00    +0.000 A 
ATOM     15  C   UNL     1       2.915   7.950  17.747  0.00  0.00    +0.000 A 
ATOM     16  C   UNL     1       3.052   6.862  18.605  0.00  0.00    +0.000 A 
ATOM     17  C   UNL     1       2.315   6.808  19.789  0.00  0.00    +0.000 A 
ATOM     18  C   UNL     1       1.439   7.846  20.113  0.00  0.00    +0.000 A 
ENDBRANCH   8  13
BRANCH  12  19
ATOM     19  C   UNL     1      -2.660  13.107  20.066  0.00  0.00    +0.000 C 
BRANCH  19  20
ATOM     20  C   UNL     1      -4.090  12.606  20.063  0.00  0.00    +0.000 A 
ATOM     21  C   UNL     1      -4.951  12.751  21.165  0.00  0.00    +0.000 A 
ATOM     22  C   UNL     1      -6.211  12.150  21.165  0.00  0.00    +0.000 A 
ATOM     23  C   UNL     1      -6.631  11.440  20.049  0.00  0.00    +0.000 A 
ATOM     24  F   UNL     1      -7.825  10.832  20.065  0.00  0.00    +0.000 F 
ATOM     25  C   UNL     1      -5.828  11.342  18.920  0.00  0.00    +0.000 A 
ATOM     26  C   UNL     1      -4.561  11.927  18.924  0.00  0.00    +0.000 A 
ENDBRANCH  19  20
ENDBRANCH  12  19
TORSDOF 3
ENDMDL
