MODEL 1
REMARK VINA RESULT:      -8.2      0.000      0.000
REMARK  Name = 
REMARK  4 active torsions:
REMARK  status: ('A' for Active; 'I' for Inactive)
REMARK    1  A    between atoms: C_7  and  C_8
REMARK    2  A    between atoms: C_12  and  O_13
REMARK    3  A    between atoms: O_13  and  C_14
REMARK    4  A    between atoms: N_25  and  C_26
REMARK                            x       y       z     vdW  Elec       q    Type
REMARK                         _______ _______ _______ _____ _____    ______ ____
ROOT
ATOM      1  O   UNL     1      -3.777  15.638  21.148  0.00  0.00    +0.000 OA
ATOM      2  C   UNL     1      -3.358  14.492  21.128  0.00  0.00    +0.000 C 
ATOM      3  O   UNL     1      -2.159  14.186  20.544  0.00  0.00    +0.000 OA
ATOM      4  C   UNL     1      -1.908  12.773  20.650  0.00  0.00    +0.000 C 
ATOM      5  C   UNL     1      -1.970  12.161  19.241  0.00  0.00    +0.000 C 
ATOM      6  C   UNL     1      -0.807  12.605  18.353  0.00  0.00    +0.000 C 
ATOM      7  C   UNL     1       0.555  12.363  19.009  0.00  0.00    +0.000 C 
ATOM      8  C   UNL     1       0.616  13.021  20.397  0.00  0.00    +0.000 C 
ATOM      9  C   UNL     1      -0.539  12.615  21.319  0.00  0.00    +0.000 C 
ATOM     10  C   UNL     1      -3.036  12.241  21.524  0.00  0.00    +0.000 C 
ATOM     11  N   UNL     1      -3.938  13.348  21.644  0.00  0.00    +0.000 N 
ENDROOT
BRANCH   7  12
ATOM     12  C   UNL     1       0.882  10.897  19.083  0.00  0.00    +0.000 A 
ATOM     13  N   UNL     1       0.871  10.133  20.156  0.00  0.00    +0.000 NA
ATOM     14  C   UNL     1       1.398   8.930  19.765  0.00  0.00    +0.000 A 
ATOM     15  C   UNL     1       1.686   7.786  20.519  0.00  0.00    +0.000 A 
ATOM     16  C   UNL     1       2.278   6.684  19.889  0.00  0.00    +0.000 A 
ATOM     17  C   UNL     1       2.608   6.747  18.531  0.00  0.00    +0.000 A 
ATOM     18  C   UNL     1       2.293   7.869  17.749  0.00  0.00    +0.000 A 
ATOM     19  C   UNL     1       1.689   8.939  18.408  0.00  0.00    +0.000 A 
ATOM     20  N   UNL     1       1.281  10.177  17.981  0.00  0.00    +0.000 N 
ATOM     21  H   UNL     1       1.335  10.527  17.036  0.00  0.00    +0.000 HD
BRANCH  16  22
ATOM     22  O   UNL     1       2.552   5.642  20.725  0.00  0.00    +0.000 OA
BRANCH  22  23
ATOM     23  C   UNL     1       1.793   4.445  20.636  0.00  0.00    +0.000 C 
ATOM     24  F   UNL     1       1.848   3.663  21.735  0.00  0.00    +0.000 F 
ATOM     25  F   UNL     1       0.502   4.755  20.391  0.00  0.00    +0.000 F 
ATOM     26  F   UNL     1       2.256   3.720  19.592  0.00  0.00    +0.000 F 
ENDBRANCH  22  23
ENDBRANCH  16  22
ENDBRANCH   7  12
BRANCH  11  27
ATOM     27  C   UNL     1      -5.246  13.221  22.186  0.00  0.00    +0.000 A 
ATOM     28  C   UNL     1      -6.373  13.171  21.352  0.00  0.00    +0.000 A 
ATOM     29  C   UNL     1      -7.654  12.959  21.874  0.00  0.00    +0.000 A 
ATOM     30  C   UNL     1      -7.840  12.806  23.244  0.00  0.00    +0.000 A 
ATOM     31  C   UNL     1      -6.743  12.877  24.094  0.00  0.00    +0.000 A 
ATOM     32  C   UNL     1      -5.466  13.083  23.567  0.00  0.00    +0.000 A 
ATOM     33  F   UNL     1      -4.450  13.149  24.442  0.00  0.00    +0.000 F 
ENDBRANCH  11  27
TORSDOF 4
ENDMDL
MODEL 2
REMARK VINA RESULT:      -8.1      0.949      1.457
REMARK  Name = 
REMARK  4 active torsions:
REMARK  status: ('A' for Active; 'I' for Inactive)
REMARK    1  A    between atoms: C_7  and  C_8
REMARK    2  A    between atoms: C_12  and  O_13
REMARK    3  A    between atoms: O_13  and  C_14
REMARK    4  A    between atoms: N_25  and  C_26
REMARK                            x       y       z     vdW  Elec       q    Type
REMARK                         _______ _______ _______ _____ _____    ______ ____
ROOT
ATOM      1  O   UNL     1      -3.644  15.506  21.696  0.00  0.00    +0.000 OA
ATOM      2  C   UNL     1      -3.236  14.367  21.540  0.00  0.00    +0.000 C 
ATOM      3  O   UNL     1      -2.018  14.123  20.967  0.00  0.00    +0.000 OA
ATOM      4  C   UNL     1      -1.785  12.704  20.894  0.00  0.00    +0.000 C 
ATOM      5  C   UNL     1      -1.796  12.285  19.415  0.00  0.00    +0.000 C 
ATOM      6  C   UNL     1      -0.595  12.825  18.639  0.00  0.00    +0.000 C 
ATOM      7  C   UNL     1       0.737  12.478  19.309  0.00  0.00    +0.000 C 
ATOM      8  C   UNL     1       0.750  12.946  20.773  0.00  0.00    +0.000 C 
ATOM      9  C   UNL     1      -0.446  12.439  21.588  0.00  0.00    +0.000 C 
ATOM     10  C   UNL     1      -2.952  12.078  21.646  0.00  0.00    +0.000 C 
ATOM     11  N   UNL     1      -3.847  13.173  21.877  0.00  0.00    +0.000 N 
ENDROOT
BRANCH   7  12
ATOM     12  C   UNL     1       1.047  11.010  19.200  0.00  0.00    +0.000 A 
ATOM     13  N   UNL     1       0.964  10.107  20.156  0.00  0.00    +0.000 NA
ATOM     14  C   UNL     1       1.504   8.960  19.635  0.00  0.00    +0.000 A 
ATOM     15  C   UNL     1       1.735   7.719  20.241  0.00  0.00    +0.000 A 
ATOM     16  C   UNL     1       2.356   6.704  19.501  0.00  0.00    +0.000 A 
ATOM     17  C   UNL     1       2.768   6.946  18.187  0.00  0.00    +0.000 A 
ATOM     18  C   UNL     1       2.511   8.170  17.549  0.00  0.00    +0.000 A 
ATOM     19  C   UNL     1       1.878   9.150  18.312  0.00  0.00    +0.000 A 
ATOM     20  N   UNL     1       1.507  10.441  18.036  0.00  0.00    +0.000 N 
ATOM     21  H   UNL     1       1.622  10.916  17.152  0.00  0.00    +0.000 HD
BRANCH  16  22
ATOM     22  O   UNL     1       2.569   5.553  20.202  0.00  0.00    +0.000 OA
BRANCH  22  23
ATOM     23  C   UNL     1       1.826   4.385  19.886  0.00  0.00    +0.000 C 
ATOM     24  F   UNL     1       1.380   4.331  18.614  0.00  0.00    +0.000 F 
ATOM     25  F   UNL     1       2.589   3.296  20.123  0.00  0.00    +0.000 F 
ATOM     26  F   UNL     1       0.749   4.327  20.703  0.00  0.00    +0.000 F 
ENDBRANCH  22  23
ENDBRANCH  16  22
ENDBRANCH   7  12
BRANCH  11  27
ATOM     27  C   UNL     1      -5.177  12.996  22.346  0.00  0.00    +0.000 A 
ATOM     28  C   UNL     1      -5.512  13.251  23.684  0.00  0.00    +0.000 A 
ATOM     29  C   UNL     1      -6.836  13.163  24.131  0.00  0.00    +0.000 A 
ATOM     30  C   UNL     1      -7.853  12.803  23.253  0.00  0.00    +0.000 A 
ATOM     31  C   UNL     1      -7.543  12.520  21.928  0.00  0.00    +0.000 A 
ATOM     32  C   UNL     1      -6.222  12.616  21.487  0.00  0.00    +0.000 A 
ATOM     33  F   UNL     1      -5.988  12.323  20.198  0.00  0.00    +0.000 F 
ENDBRANCH  11  27
TORSDOF 4
ENDMDL
MODEL 3
REMARK VINA RESULT:      -7.9      1.389      1.915
REMARK  Name = 
REMARK  4 active torsions:
REMARK  status: ('A' for Active; 'I' for Inactive)
REMARK    1  A    between atoms: C_7  and  C_8
REMARK    2  A    between atoms: C_12  and  O_13
REMARK    3  A    between atoms: O_13  and  C_14
REMARK    4  A    between atoms: N_25  and  C_26
REMARK                            x       y       z     vdW  Elec       q    Type
REMARK                         _______ _______ _______ _____ _____    ______ ____
ROOT
ATOM      1  O   UNL     1      -2.512  14.846  21.006  0.00  0.00    +0.000 OA
ATOM      2  C   UNL     1      -2.160  13.679  21.071  0.00  0.00    +0.000 C 
ATOM      3  O   UNL     1      -1.095  13.220  20.345  0.00  0.00    +0.000 OA
ATOM      4  C   UNL     1      -0.900  11.816  20.597  0.00  0.00    +0.000 C 
ATOM      5  C   UNL     1      -1.230  11.041  19.310  0.00  0.00    +0.000 C 
ATOM      6  C   UNL     1      -0.215  11.290  18.194  0.00  0.00    +0.000 C 
ATOM      7  C   UNL     1       1.225  11.034  18.647  0.00  0.00    +0.000 C 
ATOM      8  C   UNL     1       1.554  11.852  19.906  0.00  0.00    +0.000 C 
ATOM      9  C   UNL     1       0.554  11.645  21.049  0.00  0.00    +0.000 C 
ATOM     10  C   UNL     1      -1.887  11.477  21.706  0.00  0.00    +0.000 C 
ATOM     11  N   UNL     1      -2.699  12.651  21.822  0.00  0.00    +0.000 N 
ENDROOT
BRANCH   7  12
ATOM     12  C   UNL     1       1.488   9.569  18.861  0.00  0.00    +0.000 A 
ATOM     13  N   UNL     1       1.177   8.853  19.922  0.00  0.00    +0.000 NA
ATOM     14  C   UNL     1       1.761   7.628  19.730  0.00  0.00    +0.000 A 
ATOM     15  C   UNL     1       1.814   6.514  20.577  0.00  0.00    +0.000 A 
ATOM     16  C   UNL     1       2.526   5.378  20.168  0.00  0.00    +0.000 A 
ATOM     17  C   UNL     1       3.202   5.379  18.944  0.00  0.00    +0.000 A 
ATOM     18  C   UNL     1       3.129   6.470  18.063  0.00  0.00    +0.000 A 
ATOM     19  C   UNL     1       2.399   7.575  18.498  0.00  0.00    +0.000 A 
ATOM     20  N   UNL     1       2.145   8.798  17.932  0.00  0.00    +0.000 N 
ATOM     21  H   UNL     1       2.454   9.105  17.021  0.00  0.00    +0.000 HD
BRANCH  16  22
ATOM     22  O   UNL     1       2.547   4.371  21.087  0.00  0.00    +0.000 OA
BRANCH  22  23
ATOM     23  C   UNL     1       1.842   3.165  20.830  0.00  0.00    +0.000 C 
ATOM     24  F   UNL     1       2.466   2.321  19.982  0.00  0.00    +0.000 F 
ATOM     25  F   UNL     1       1.623   2.521  21.997  0.00  0.00    +0.000 F 
ATOM     26  F   UNL     1       0.641   3.475  20.291  0.00  0.00    +0.000 F 
ENDBRANCH  22  23
ENDBRANCH  16  22
ENDBRANCH   7  12
BRANCH  11  27
ATOM     27  C   UNL     1      -3.900  12.685  22.581  0.00  0.00    +0.000 A 
ATOM     28  C   UNL     1      -3.877  12.577  23.979  0.00  0.00    +0.000 A 
ATOM     29  C   UNL     1      -5.047  12.697  24.738  0.00  0.00    +0.000 A 
ATOM     30  C   UNL     1      -6.271  12.915  24.113  0.00  0.00    +0.000 A 
ATOM     31  C   UNL     1      -6.325  13.001  22.727  0.00  0.00    +0.000 A 
ATOM     32  C   UNL     1      -5.154  12.885  21.977  0.00  0.00    +0.000 A 
ATOM     33  F   UNL     1      -5.275  12.970  20.642  0.00  0.00    +0.000 F 
ENDBRANCH  11  27
TORSDOF 4
ENDMDL
MODEL 4
REMARK VINA RESULT:      -7.8      1.121      1.381
REMARK  Name = 
REMARK  4 active torsions:
REMARK  status: ('A' for Active; 'I' for Inactive)
REMARK    1  A    between atoms: C_7  and  C_8
REMARK    2  A    between atoms: C_12  and  O_13
REMARK    3  A    between atoms: O_13  and  C_14
REMARK    4  A    between atoms: N_25  and  C_26
REMARK                            x       y       z     vdW  Elec       q    Type
REMARK                         _______ _______ _______ _____ _____    ______ ____
ROOT
ATOM      1  O   UNL     1      -3.063  15.330  20.924  0.00  0.00    +0.000 OA
ATOM      2  C   UNL     1      -2.721  14.159  20.952  0.00  0.00    +0.000 C 
ATOM      3  O   UNL     1      -1.535  13.755  20.403  0.00  0.00    +0.000 OA
ATOM      4  C   UNL     1      -1.380  12.332  20.563  0.00  0.00    +0.000 C 
ATOM      5  C   UNL     1      -1.457  11.676  19.175  0.00  0.00    +0.000 C 
ATOM      6  C   UNL     1      -0.252  12.011  18.296  0.00  0.00    +0.000 C 
ATOM      7  C   UNL     1       1.079  11.703  18.987  0.00  0.00    +0.000 C 
ATOM      8  C   UNL     1       1.159  12.405  20.352  0.00  0.00    +0.000 C 
ATOM      9  C   UNL     1      -0.037  12.109  21.264  0.00  0.00    +0.000 C 
ATOM     10  C   UNL     1      -2.556  11.907  21.432  0.00  0.00    +0.000 C 
ATOM     11  N   UNL     1      -3.384  13.075  21.496  0.00  0.00    +0.000 N 
ENDROOT
BRANCH   7  12
ATOM     12  C   UNL     1       1.307  10.223  19.118  0.00  0.00    +0.000 A 
ATOM     13  N   UNL     1       1.036   9.466  20.162  0.00  0.00    +0.000 NA
ATOM     14  C   UNL     1       1.569   8.235  19.880  0.00  0.00    +0.000 A 
ATOM     15  C   UNL     1       1.636   7.082  20.671  0.00  0.00    +0.000 A 
ATOM     16  C   UNL     1       2.287   5.947  20.169  0.00  0.00    +0.000 A 
ATOM     17  C   UNL     1       2.891   5.986  18.908  0.00  0.00    +0.000 A 
ATOM     18  C   UNL     1       2.802   7.119  18.084  0.00  0.00    +0.000 A 
ATOM     19  C   UNL     1       2.133   8.222  18.612  0.00  0.00    +0.000 A 
ATOM     20  N   UNL     1       1.886   9.478  18.118  0.00  0.00    +0.000 N 
ATOM     21  H   UNL     1       2.151   9.819  17.205  0.00  0.00    +0.000 HD
BRANCH  16  22
ATOM     22  O   UNL     1       2.329   4.896  21.038  0.00  0.00    +0.000 OA
BRANCH  22  23
ATOM     23  C   UNL     1       1.559   3.731  20.777  0.00  0.00    +0.000 C 
ATOM     24  F   UNL     1       1.312   2.968  21.862  0.00  0.00    +0.000 F 
ATOM     25  F   UNL     1       0.380   4.093  20.225  0.00  0.00    +0.000 F 
ATOM     26  F   UNL     1       2.225   2.969  19.881  0.00  0.00    +0.000 F 
ENDBRANCH  22  23
ENDBRANCH  16  22
ENDBRANCH   7  12
BRANCH  11  27
ATOM     27  C   UNL     1      -4.707  13.054  22.015  0.00  0.00    +0.000 A 
ATOM     28  C   UNL     1      -4.998  13.591  23.277  0.00  0.00    +0.000 A 
ATOM     29  C   UNL     1      -6.312  13.652  23.757  0.00  0.00    +0.000 A 
ATOM     30  C   UNL     1      -7.365  13.164  22.989  0.00  0.00    +0.000 A 
ATOM     31  C   UNL     1      -7.100  12.603  21.745  0.00  0.00    +0.000 A 
ATOM     32  C   UNL     1      -5.788  12.550  21.270  0.00  0.00    +0.000 A 
ATOM     33  F   UNL     1      -5.599  11.990  20.065  0.00  0.00    +0.000 F 
ENDBRANCH  11  27
TORSDOF 4
ENDMDL
MODEL 5
REMARK VINA RESULT:      -7.8      1.154      1.783
REMARK  Name = 
REMARK  4 active torsions:
REMARK  status: ('A' for Active; 'I' for Inactive)
REMARK    1  A    between atoms: C_7  and  C_8
REMARK    2  A    between atoms: C_12  and  O_13
REMARK    3  A    between atoms: O_13  and  C_14
REMARK    4  A    between atoms: N_25  and  C_26
REMARK                            x       y       z     vdW  Elec       q    Type
REMARK                         _______ _______ _______ _____ _____    ______ ____
ROOT
ATOM      1  O   UNL     1      -3.496  15.261  20.842  0.00  0.00    +0.000 OA
ATOM      2  C   UNL     1      -2.973  14.162  20.935  0.00  0.00    +0.000 C 
ATOM      3  O   UNL     1      -1.829  13.862  20.248  0.00  0.00    +0.000 OA
ATOM      4  C   UNL     1      -1.431  12.507  20.525  0.00  0.00    +0.000 C 
ATOM      5  C   UNL     1      -1.601  11.677  19.242  0.00  0.00    +0.000 C 
ATOM      6  C   UNL     1      -0.602  12.065  18.152  0.00  0.00    +0.000 C 
ATOM      7  C   UNL     1       0.846  12.035  18.649  0.00  0.00    +0.000 C 
ATOM      8  C   UNL     1       1.009  12.907  19.905  0.00  0.00    +0.000 C 
ATOM      9  C   UNL     1       0.017  12.563  21.022  0.00  0.00    +0.000 C 
ATOM     10  C   UNL     1      -2.389  12.033  21.610  0.00  0.00    +0.000 C 
ATOM     11  N   UNL     1      -3.373  13.072  21.686  0.00  0.00    +0.000 N 
ENDROOT
BRANCH   7  12
ATOM     12  C   UNL     1       1.321  10.630  18.893  0.00  0.00    +0.000 A 
ATOM     13  N   UNL     1       1.881   9.817  18.021  0.00  0.00    +0.000 NA
ATOM     14  C   UNL     1       1.982   8.604  18.651  0.00  0.00    +0.000 A 
ATOM     15  C   UNL     1       2.431   7.371  18.162  0.00  0.00    +0.000 A 
ATOM     16  C   UNL     1       2.389   6.249  18.999  0.00  0.00    +0.000 A 
ATOM     17  C   UNL     1       1.870   6.358  20.293  0.00  0.00    +0.000 A 
ATOM     18  C   UNL     1       1.451   7.592  20.815  0.00  0.00    +0.000 A 
ATOM     19  C   UNL     1       1.522   8.689  19.958  0.00  0.00    +0.000 A 
ATOM     20  N   UNL     1       1.177  10.008  20.111  0.00  0.00    +0.000 N 
ATOM     21  H   UNL     1       0.810  10.431  20.951  0.00  0.00    +0.000 HD
BRANCH  16  22
ATOM     22  O   UNL     1       2.812   5.094  18.407  0.00  0.00    +0.000 OA
BRANCH  22  23
ATOM     23  C   UNL     1       1.862   4.196  17.851  0.00  0.00    +0.000 C 
ATOM     24  F   UNL     1       0.871   4.790  17.155  0.00  0.00    +0.000 F 
ATOM     25  F   UNL     1       2.499   3.325  17.039  0.00  0.00    +0.000 F 
ATOM     26  F   UNL     1       1.295   3.494  18.857  0.00  0.00    +0.000 F 
ENDBRANCH  22  23
ENDBRANCH  16  22
ENDBRANCH   7  12
BRANCH  11  27
ATOM     27  C   UNL     1      -4.589  12.931  22.409  0.00  0.00    +0.000 A 
ATOM     28  C   UNL     1      -5.817  12.808  21.744  0.00  0.00    +0.000 A 
ATOM     29  C   UNL     1      -7.006  12.582  22.447  0.00  0.00    +0.000 A 
ATOM     30  C   UNL     1      -6.995  12.487  23.836  0.00  0.00    +0.000 A 
ATOM     31  C   UNL     1      -5.794  12.631  24.520  0.00  0.00    +0.000 A 
ATOM     32  C   UNL     1      -4.611  12.851  23.812  0.00  0.00    +0.000 A 
ATOM     33  F   UNL     1      -3.487  12.989  24.533  0.00  0.00    +0.000 F 
ENDBRANCH  11  27
TORSDOF 4
ENDMDL
MODEL 6
REMARK VINA RESULT:      -7.6      1.827      2.855
REMARK  Name = 
REMARK  4 active torsions:
REMARK  status: ('A' for Active; 'I' for Inactive)
REMARK    1  A    between atoms: C_7  and  C_8
REMARK    2  A    between atoms: C_12  and  O_13
REMARK    3  A    between atoms: O_13  and  C_14
REMARK    4  A    between atoms: N_25  and  C_26
REMARK                            x       y       z     vdW  Elec       q    Type
REMARK                         _______ _______ _______ _____ _____    ______ ____
ROOT
ATOM      1  O   UNL     1      -2.288  14.385  20.116  0.00  0.00    +0.000 OA
ATOM      2  C   UNL     1      -1.829  13.282  20.369  0.00  0.00    +0.000 C 
ATOM      3  O   UNL     1      -0.835  12.737  19.603  0.00  0.00    +0.000 OA
ATOM      4  C   UNL     1      -0.485  11.435  20.109  0.00  0.00    +0.000 C 
ATOM      5  C   UNL     1      -0.917  10.380  19.078  0.00  0.00    +0.000 C 
ATOM      6  C   UNL     1      -0.089  10.435  17.795  0.00  0.00    +0.000 C 
ATOM      7  C   UNL     1       1.416  10.366  18.068  0.00  0.00    +0.000 C 
ATOM      8  C   UNL     1       1.840  11.458  19.064  0.00  0.00    +0.000 C 
ATOM      9  C   UNL     1       1.025  11.450  20.363  0.00  0.00    +0.000 C 
ATOM     10  C   UNL     1      -1.280  11.292  21.401  0.00  0.00    +0.000 C 
ATOM     11  N   UNL     1      -2.169  12.416  21.391  0.00  0.00    +0.000 N 
ENDROOT
BRANCH   7  12
ATOM     12  C   UNL     1       1.833   9.001  18.541  0.00  0.00    +0.000 A 
ATOM     13  N   UNL     1       2.446   8.070  17.840  0.00  0.00    +0.000 NA
ATOM     14  C   UNL     1       2.463   6.953  18.634  0.00  0.00    +0.000 A 
ATOM     15  C   UNL     1       2.922   5.659  18.359  0.00  0.00    +0.000 A 
ATOM     16  C   UNL     1       2.780   4.662  19.333  0.00  0.00    +0.000 A 
ATOM     17  C   UNL     1       2.153   4.955  20.549  0.00  0.00    +0.000 A 
ATOM     18  C   UNL     1       1.720   6.253  20.860  0.00  0.00    +0.000 A 
ATOM     19  C   UNL     1       1.893   7.222  19.872  0.00  0.00    +0.000 A 
ATOM     20  N   UNL     1       1.569   8.553  19.814  0.00  0.00    +0.000 N 
ATOM     21  H   UNL     1       1.141   9.092  20.553  0.00  0.00    +0.000 HD
BRANCH  16  22
ATOM     22  O   UNL     1       3.224   3.433  18.943  0.00  0.00    +0.000 OA
BRANCH  22  23
ATOM     23  C   UNL     1       2.406   2.615  18.119  0.00  0.00    +0.000 C 
ATOM     24  F   UNL     1       2.497   2.880  16.799  0.00  0.00    +0.000 F 
ATOM     25  F   UNL     1       2.727   1.319  18.323  0.00  0.00    +0.000 F 
ATOM     26  F   UNL     1       1.116   2.790  18.486  0.00  0.00    +0.000 F 
ENDBRANCH  22  23
ENDBRANCH  16  22
ENDBRANCH   7  12
BRANCH  11  27
ATOM     27  C   UNL     1      -3.255  12.547  22.298  0.00  0.00    +0.000 A 
ATOM     28  C   UNL     1      -3.035  12.652  23.679  0.00  0.00    +0.000 A 
ATOM     29  C   UNL     1      -4.093  12.869  24.570  0.00  0.00    +0.000 A 
ATOM     30  C   UNL     1      -5.399  12.973  24.099  0.00  0.00    +0.000 A 
ATOM     31  C   UNL     1      -5.646  12.847  22.738  0.00  0.00    +0.000 A 
ATOM     32  C   UNL     1      -4.586  12.636  21.854  0.00  0.00    +0.000 A 
ATOM     33  F   UNL     1      -4.892  12.516  20.553  0.00  0.00    +0.000 F 
ENDBRANCH  11  27
TORSDOF 4
ENDMDL
MODEL 7
REMARK VINA RESULT:      -7.6      2.330      3.237
REMARK  Name = 
REMARK  4 active torsions:
REMARK  status: ('A' for Active; 'I' for Inactive)
REMARK    1  A    between atoms: C_7  and  C_8
REMARK    2  A    between atoms: C_12  and  O_13
REMARK    3  A    between atoms: O_13  and  C_14
REMARK    4  A    between atoms: N_25  and  C_26
REMARK                            x       y       z     vdW  Elec       q    Type
REMARK                         _______ _______ _______ _____ _____    ______ ____
ROOT
ATOM      1  O   UNL     1      -1.627  14.881  20.275  0.00  0.00    +0.000 OA
ATOM      2  C   UNL     1      -1.098  13.823  20.578  0.00  0.00    +0.000 C 
ATOM      3  O   UNL     1      -0.444  13.066  19.645  0.00  0.00    +0.000 OA
ATOM      4  C   UNL     1       0.077  11.873  20.261  0.00  0.00    +0.000 C 
ATOM      5  C   UNL     1      -0.690  10.663  19.702  0.00  0.00    +0.000 C 
ATOM      6  C   UNL     1      -0.383  10.398  18.228  0.00  0.00    +0.000 C 
ATOM      7  C   UNL     1       1.119  10.282  17.956  0.00  0.00    +0.000 C 
ATOM      8  C   UNL     1       1.865  11.521  18.478  0.00  0.00    +0.000 C 
ATOM      9  C   UNL     1       1.577  11.834  19.950  0.00  0.00    +0.000 C 
ATOM     10  C   UNL     1      -0.194  12.051  21.749  0.00  0.00    +0.000 C 
ATOM     11  N   UNL     1      -1.037  13.208  21.815  0.00  0.00    +0.000 N 
ENDROOT
BRANCH   7  12
ATOM     12  C   UNL     1       1.692   9.016  18.531  0.00  0.00    +0.000 A 
ATOM     13  N   UNL     1       2.576   8.217  17.970  0.00  0.00    +0.000 NA
ATOM     14  C   UNL     1       2.660   7.120  18.787  0.00  0.00    +0.000 A 
ATOM     15  C   UNL     1       3.389   5.935  18.629  0.00  0.00    +0.000 A 
ATOM     16  C   UNL     1       3.267   4.925  19.593  0.00  0.00    +0.000 A 
ATOM     17  C   UNL     1       2.398   5.091  20.676  0.00  0.00    +0.000 A 
ATOM     18  C   UNL     1       1.688   6.286  20.873  0.00  0.00    +0.000 A 
ATOM     19  C   UNL     1       1.848   7.274  19.902  0.00  0.00    +0.000 A 
ATOM     20  N   UNL     1       1.300   8.522  19.753  0.00  0.00    +0.000 N 
ATOM     21  H   UNL     1       0.660   8.970  20.394  0.00  0.00    +0.000 HD
BRANCH  16  22
ATOM     22  O   UNL     1       3.988   3.800  19.318  0.00  0.00    +0.000 OA
BRANCH  22  23
ATOM     23  C   UNL     1       3.512   2.873  18.353  0.00  0.00    +0.000 C 
ATOM     24  F   UNL     1       3.754   1.579  18.651  0.00  0.00    +0.000 F 
ATOM     25  F   UNL     1       2.180   3.039  18.198  0.00  0.00    +0.000 F 
ATOM     26  F   UNL     1       4.108   3.140  17.169  0.00  0.00    +0.000 F 
ENDBRANCH  22  23
ENDBRANCH  16  22
ENDBRANCH   7  12
BRANCH  11  27
ATOM     27  C   UNL     1      -1.721  13.596  22.998  0.00  0.00    +0.000 A 
ATOM     28  C   UNL     1      -1.218  14.610  23.826  0.00  0.00    +0.000 A 
ATOM     29  C   UNL     1      -1.931  15.057  24.944  0.00  0.00    +0.000 A 
ATOM     30  C   UNL     1      -3.159  14.488  25.270  0.00  0.00    +0.000 A 
ATOM     31  C   UNL     1      -3.667  13.463  24.481  0.00  0.00    +0.000 A 
ATOM     32  C   UNL     1      -2.954  13.026  23.363  0.00  0.00    +0.000 A 
ATOM     33  F   UNL     1      -3.496  12.029  22.647  0.00  0.00    +0.000 F 
ENDBRANCH  11  27
TORSDOF 4
ENDMDL
MODEL 8
REMARK VINA RESULT:      -7.5      0.810      1.092
REMARK  Name = 
REMARK  4 active torsions:
REMARK  status: ('A' for Active; 'I' for Inactive)
REMARK    1  A    between atoms: C_7  and  C_8
REMARK    2  A    between atoms: C_12  and  O_13
REMARK    3  A    between atoms: O_13  and  C_14
REMARK    4  A    between atoms: N_25  and  C_26
REMARK                            x       y       z     vdW  Elec       q    Type
REMARK                         _______ _______ _______ _____ _____    ______ ____
ROOT
ATOM      1  O   UNL     1      -2.927  15.465  20.902  0.00  0.00    +0.000 OA
ATOM      2  C   UNL     1      -2.563  14.300  20.897  0.00  0.00    +0.000 C 
ATOM      3  O   UNL     1      -1.414  13.921  20.259  0.00  0.00    +0.000 OA
ATOM      4  C   UNL     1      -1.221  12.501  20.399  0.00  0.00    +0.000 C 
ATOM      5  C   UNL     1      -1.389  11.849  19.017  0.00  0.00    +0.000 C 
ATOM      6  C   UNL     1      -0.259  12.210  18.053  0.00  0.00    +0.000 C 
ATOM      7  C   UNL     1       1.125  11.925  18.642  0.00  0.00    +0.000 C 
ATOM      8  C   UNL     1       1.293  12.622  20.001  0.00  0.00    +0.000 C 
ATOM      9  C   UNL     1       0.174  12.299  20.997  0.00  0.00    +0.000 C 
ATOM     10  C   UNL     1      -2.321  12.050  21.351  0.00  0.00    +0.000 C 
ATOM     11  N   UNL     1      -3.164  13.201  21.482  0.00  0.00    +0.000 N 
ENDROOT
BRANCH   7  12
ATOM     12  C   UNL     1       1.389  10.448  18.747  0.00  0.00    +0.000 A 
ATOM     13  N   UNL     1       1.093   9.658  19.758  0.00  0.00    +0.000 NA
ATOM     14  C   UNL     1       1.673   8.450  19.471  0.00  0.00    +0.000 A 
ATOM     15  C   UNL     1       1.738   7.278  20.236  0.00  0.00    +0.000 A 
ATOM     16  C   UNL     1       2.443   6.175  19.736  0.00  0.00    +0.000 A 
ATOM     17  C   UNL     1       3.102   6.263  18.506  0.00  0.00    +0.000 A 
ATOM     18  C   UNL     1       3.018   7.414  17.707  0.00  0.00    +0.000 A 
ATOM     19  C   UNL     1       2.294   8.485  18.230  0.00  0.00    +0.000 A 
ATOM     20  N   UNL     1       2.034   9.745  17.756  0.00  0.00    +0.000 N 
ATOM     21  H   UNL     1       2.330  10.117  16.865  0.00  0.00    +0.000 HD
BRANCH  16  22
ATOM     22  O   UNL     1       2.475   5.104  20.581  0.00  0.00    +0.000 OA
BRANCH  22  23
ATOM     23  C   UNL     1       1.788   3.910  20.235  0.00  0.00    +0.000 C 
ATOM     24  F   UNL     1       0.785   4.077  19.348  0.00  0.00    +0.000 F 
ATOM     25  F   UNL     1       2.670   3.022  19.728  0.00  0.00    +0.000 F 
ATOM     26  F   UNL     1       1.258   3.379  21.360  0.00  0.00    +0.000 F 
ENDBRANCH  22  23
ENDBRANCH  16  22
ENDBRANCH   7  12
BRANCH  11  27
ATOM     27  C   UNL     1      -4.444  13.153  22.098  0.00  0.00    +0.000 A 
ATOM     28  C   UNL     1      -5.581  12.763  21.376  0.00  0.00    +0.000 A 
ATOM     29  C   UNL     1      -6.828  12.630  21.998  0.00  0.00    +0.000 A 
ATOM     30  C   UNL     1      -6.969  12.897  23.356  0.00  0.00    +0.000 A 
ATOM     31  C   UNL     1      -5.863  13.310  24.089  0.00  0.00    +0.000 A 
ATOM     32  C   UNL     1      -4.621  13.435  23.464  0.00  0.00    +0.000 A 
ATOM     33  F   UNL     1      -3.595  13.845  24.226  0.00  0.00    +0.000 F 
ENDBRANCH  11  27
TORSDOF 4
ENDMDL
MODEL 9
REMARK VINA RESULT:      -7.5      6.461      7.869
REMARK  Name = 
REMARK  4 active torsions:
REMARK  status: ('A' for Active; 'I' for Inactive)
REMARK    1  A    between atoms: C_7  and  C_8
REMARK    2  A    between atoms: C_12  and  O_13
REMARK    3  A    between atoms: O_13  and  C_14
REMARK    4  A    between atoms: N_25  and  C_26
REMARK                            x       y       z     vdW  Elec       q    Type
REMARK                         _______ _______ _______ _____ _____    ______ ____
ROOT
ATOM      1  O   UNL     1      -1.011  13.815  19.815  0.00  0.00    +0.000 OA
ATOM      2  C   UNL     1       0.193  13.678  19.966  0.00  0.00    +0.000 C 
ATOM      3  O   UNL     1       1.080  14.565  19.420  0.00  0.00    +0.000 OA
ATOM      4  C   UNL     1       2.427  14.170  19.739  0.00  0.00    +0.000 C 
ATOM      5  C   UNL     1       3.124  13.731  18.440  0.00  0.00    +0.000 C 
ATOM      6  C   UNL     1       3.373  14.895  17.481  0.00  0.00    +0.000 C 
ATOM      7  C   UNL     1       4.115  16.055  18.150  0.00  0.00    +0.000 C 
ATOM      8  C   UNL     1       3.380  16.513  19.419  0.00  0.00    +0.000 C 
ATOM      9  C   UNL     1       3.096  15.375  20.407  0.00  0.00    +0.000 C 
ATOM     10  C   UNL     1       2.273  12.997  20.698  0.00  0.00    +0.000 C 
ATOM     11  N   UNL     1       0.873  12.694  20.658  0.00  0.00    +0.000 N 
ENDROOT
BRANCH   7  12
ATOM     12  C   UNL     1       5.547  15.702  18.443  0.00  0.00    +0.000 A 
ATOM     13  N   UNL     1       6.334  14.919  17.734  0.00  0.00    +0.000 NA
ATOM     14  C   UNL     1       7.475  14.764  18.477  0.00  0.00    +0.000 A 
ATOM     15  C   UNL     1       8.607  13.976  18.234  0.00  0.00    +0.000 A 
ATOM     16  C   UNL     1       9.636  13.948  19.185  0.00  0.00    +0.000 A 
ATOM     17  C   UNL     1       9.511  14.673  20.374  0.00  0.00    +0.000 A 
ATOM     18  C   UNL     1       8.404  15.499  20.620  0.00  0.00    +0.000 A 
ATOM     19  C   UNL     1       7.408  15.513  19.644  0.00  0.00    +0.000 A 
ATOM     20  N   UNL     1       6.201  16.161  19.562  0.00  0.00    +0.000 N 
ATOM     21  H   UNL     1       5.826  16.804  20.244  0.00  0.00    +0.000 HD
BRANCH  16  22
ATOM     22  O   UNL     1      10.669  13.116  18.865  0.00  0.00    +0.000 OA
BRANCH  22  23
ATOM     23  C   UNL     1      10.813  11.875  19.541  0.00  0.00    +0.000 C 
ATOM     24  F   UNL     1      11.215  11.979  20.824  0.00  0.00    +0.000 F 
ATOM     25  F   UNL     1       9.635  11.214  19.509  0.00  0.00    +0.000 F 
ATOM     26  F   UNL     1      11.729  11.131  18.882  0.00  0.00    +0.000 F 
ENDBRANCH  22  23
ENDBRANCH  16  22
ENDBRANCH   7  12
BRANCH  11  27
ATOM     27  C   UNL     1       0.324  11.513  21.228  0.00  0.00    +0.000 A 
ATOM     28  C   UNL     1       0.576  10.253  20.667  0.00  0.00    +0.000 A 
ATOM     29  C   UNL     1       0.111   9.081  21.274  0.00  0.00    +0.000 A 
ATOM     30  C   UNL     1      -0.630   9.143  22.450  0.00  0.00    +0.000 A 
ATOM     31  C   UNL     1      -0.915  10.381  23.013  0.00  0.00    +0.000 A 
ATOM     32  C   UNL     1      -0.444  11.547  22.406  0.00  0.00    +0.000 A 
ATOM     33  F   UNL     1      -0.759  12.711  22.995  0.00  0.00    +0.000 F 
ENDBRANCH  11  27
TORSDOF 4
ENDMDL
