MODEL 1
REMARK VINA RESULT:      -6.8      0.000      0.000
REMARK  Name = 
REMARK  16 active torsions:
REMARK  status: ('A' for Active; 'I' for Inactive)
REMARK    1  A    between atoms: C_1  and  C_2
REMARK    2  A    between atoms: C_7  and  C_8
REMARK    3  A    between atoms: C_8  and  O_9
REMARK    4  A    between atoms: O_9  and  C_10
REMARK    5  A    between atoms: C_10  and  C_11
REMARK    6  A    between atoms: C_11  and  C_12
REMARK    7  A    between atoms: C_12  and  C_13
REMARK    8  A    between atoms: C_13  and  C_14
REMARK    9  A    between atoms: C_14  and  C_15
REMARK   10  A    between atoms: C_15  and  C_16
REMARK   11  A    between atoms: C_16  and  C_17
REMARK   12  A    between atoms: C_17  and  C_18
REMARK   13  A    between atoms: C_18  and  C_19
REMARK   14  A    between atoms: C_19  and  C_20
REMARK   15  A    between atoms: C_23  and  N_24
REMARK   16  A    between atoms: C_25  and  O_26
REMARK                            x       y       z     vdW  Elec       q    Type
REMARK                         _______ _______ _______ _____ _____    ______ ____
ROOT
ATOM      1  C   UNL     1       1.040   4.350  20.580  0.00  0.00    +0.000 C 
ENDROOT
BRANCH   1   2
ATOM      2  C   UNL     1       1.292   2.852  20.689  0.00  0.00    +0.000 C 
BRANCH   2   3
ATOM      3  C   UNL     1       1.712   2.271  19.347  0.00  0.00    +0.000 C 
BRANCH   3   4
ATOM      4  C   UNL     1       1.341   3.219  18.219  0.00  0.00    +0.000 C 
BRANCH   4   5
ATOM      5  O   UNL     1       2.230   2.992  17.128  0.00  0.00    +0.000 OA
BRANCH   5   6
ATOM      6  C   UNL     1       3.498   2.533  17.589  0.00  0.00    +0.000 C 
BRANCH   6  13
ATOM      7  C   UNL     1       7.225   6.998  17.522  0.00  0.00    +0.000 C 
ATOM      8  C   UNL     1       6.259   5.859  17.554  0.00  0.00    +0.000 A 
ATOM      9  C   UNL     1       5.946   5.200  18.741  0.00  0.00    +0.000 A 
ATOM     10  F   UNL     1       6.507   5.585  19.894  0.00  0.00    +0.000 F 
ATOM     11  C   UNL     1       5.059   4.127  18.751  0.00  0.00    +0.000 A 
ATOM     12  F   UNL     1       4.793   3.515  19.913  0.00  0.00    +0.000 F 
ATOM     13  C   UNL     1       4.457   3.678  17.574  0.00  0.00    +0.000 A 
ATOM     14  C   UNL     1       4.754   4.349  16.389  0.00  0.00    +0.000 A 
ATOM     15  F   UNL     1       4.203   3.948  15.235  0.00  0.00    +0.000 F 
ATOM     16  C   UNL     1       5.645   5.420  16.379  0.00  0.00    +0.000 A 
ATOM     17  F   UNL     1       5.923   6.026  15.215  0.00  0.00    +0.000 F 
ENDBRANCH   6  13
ENDBRANCH   5   6
ENDBRANCH   4   5
ENDBRANCH   3   4
ENDBRANCH   2   3
ENDBRANCH   1   2
BRANCH   1  18
ATOM     18  C   UNL     1       2.282   5.122  21.004  0.00  0.00    +0.000 C 
BRANCH  18  19
ATOM     19  C   UNL     1       2.260   6.538  20.440  0.00  0.00    +0.000 C 
BRANCH  19  20
ATOM     20  C   UNL     1       2.198   6.492  18.920  0.00  0.00    +0.000 C 
BRANCH  20  21
ATOM     21  C   UNL     1       2.905   7.690  18.302  0.00  0.00    +0.000 C 
BRANCH  21  22
ATOM     22  C   UNL     1       1.891   8.587  17.597  0.00  0.00    +0.000 C 
BRANCH  22  23
ATOM     23  C   UNL     1       2.068  10.042  18.015  0.00  0.00    +0.000 C 
BRANCH  23  24
ATOM     24  C   UNL     1       0.743  10.749  18.341  0.00  0.00    +0.000 C 
ATOM     25  N   UNL     1      -0.273   9.879  18.967  0.00  0.00    +0.000 NA
ATOM     26  C   UNL     1      -0.103   9.954  20.427  0.00  0.00    +0.000 C 
ATOM     27  C   UNL     1       0.899  11.086  20.713  0.00  0.00    +0.000 C 
ATOM     28  C   UNL     1       0.935  11.860  19.385  0.00  0.00    +0.000 C 
ATOM     29  H   UNL     1      -0.204   8.915  18.650  0.00  0.00    +0.000 HD
BRANCH  27  30
ATOM     30  N   UNL     1       0.543  11.909  21.873  0.00  0.00    +0.000 NA
ATOM     31  H   UNL     1      -0.467  12.073  21.825  0.00  0.00    +0.000 HD
ATOM     32  H   UNL     1       0.934  12.843  21.733  0.00  0.00    +0.000 HD
ENDBRANCH  27  30
BRANCH  28  33
ATOM     33  O   UNL     1      -0.161  12.786  19.329  0.00  0.00    +0.000 OA
ATOM     34  H   UNL     1      -0.462  12.884  20.253  0.00  0.00    +0.000 HD
ENDBRANCH  28  33
ENDBRANCH  23  24
ENDBRANCH  22  23
ENDBRANCH  21  22
ENDBRANCH  20  21
ENDBRANCH  19  20
ENDBRANCH  18  19
ENDBRANCH   1  18
TORSDOF 15
ENDMDL
MODEL 2
REMARK VINA RESULT:      -6.6      3.972      7.254
REMARK  Name = 
REMARK  16 active torsions:
REMARK  status: ('A' for Active; 'I' for Inactive)
REMARK    1  A    between atoms: C_1  and  C_2
REMARK    2  A    between atoms: C_7  and  C_8
REMARK    3  A    between atoms: C_8  and  O_9
REMARK    4  A    between atoms: O_9  and  C_10
REMARK    5  A    between atoms: C_10  and  C_11
REMARK    6  A    between atoms: C_11  and  C_12
REMARK    7  A    between atoms: C_12  and  C_13
REMARK    8  A    between atoms: C_13  and  C_14
REMARK    9  A    between atoms: C_14  and  C_15
REMARK   10  A    between atoms: C_15  and  C_16
REMARK   11  A    between atoms: C_16  and  C_17
REMARK   12  A    between atoms: C_17  and  C_18
REMARK   13  A    between atoms: C_18  and  C_19
REMARK   14  A    between atoms: C_19  and  C_20
REMARK   15  A    between atoms: C_23  and  N_24
REMARK   16  A    between atoms: C_25  and  O_26
REMARK                            x       y       z     vdW  Elec       q    Type
REMARK                         _______ _______ _______ _____ _____    ______ ____
ROOT
ATOM      1  C   UNL     1       1.351   2.498  18.885  0.00  0.00    +0.000 C 
ENDROOT
BRANCH   1   2
ATOM      2  C   UNL     1       1.190   2.910  20.342  0.00  0.00    +0.000 C 
BRANCH   2   3
ATOM      3  C   UNL     1       0.728   4.355  20.451  0.00  0.00    +0.000 C 
BRANCH   3   4
ATOM      4  C   UNL     1       1.924   5.293  20.483  0.00  0.00    +0.000 C 
BRANCH   4   5
ATOM      5  O   UNL     1       1.804   6.213  19.400  0.00  0.00    +0.000 OA
BRANCH   5   6
ATOM      6  C   UNL     1       2.509   7.421  19.676  0.00  0.00    +0.000 C 
BRANCH   6  13
ATOM      7  C   UNL     1      -1.341  11.712  20.449  0.00  0.00    +0.000 C 
ATOM      8  C   UNL     1      -0.342  10.621  20.239  0.00  0.00    +0.000 A 
ATOM      9  C   UNL     1       0.084  10.257  18.963  0.00  0.00    +0.000 A 
ATOM     10  F   UNL     1      -0.394  10.893  17.885  0.00  0.00    +0.000 F 
ATOM     11  C   UNL     1       1.000   9.224  18.782  0.00  0.00    +0.000 A 
ATOM     12  F   UNL     1       1.376   8.900  17.537  0.00  0.00    +0.000 F 
ATOM     13  C   UNL     1       1.518   8.521  19.871  0.00  0.00    +0.000 A 
ATOM     14  C   UNL     1       1.107   8.898  21.149  0.00  0.00    +0.000 A 
ATOM     15  F   UNL     1       1.576   8.247  22.223  0.00  0.00    +0.000 F 
ATOM     16  C   UNL     1       0.187   9.928  21.329  0.00  0.00    +0.000 A 
ATOM     17  F   UNL     1      -0.200  10.247  22.573  0.00  0.00    +0.000 F 
ENDBRANCH   6  13
ENDBRANCH   5   6
ENDBRANCH   4   5
ENDBRANCH   3   4
ENDBRANCH   2   3
ENDBRANCH   1   2
BRANCH   1  18
ATOM     18  C   UNL     1       2.548   1.569  18.732  0.00  0.00    +0.000 C 
BRANCH  18  19
ATOM     19  C   UNL     1       3.847   2.363  18.665  0.00  0.00    +0.000 C 
BRANCH  19  20
ATOM     20  C   UNL     1       4.011   2.978  17.283  0.00  0.00    +0.000 C 
BRANCH  20  21
ATOM     21  C   UNL     1       3.756   4.480  17.312  0.00  0.00    +0.000 C 
BRANCH  21  22
ATOM     22  C   UNL     1       4.467   5.151  16.140  0.00  0.00    +0.000 C 
BRANCH  22  23
ATOM     23  C   UNL     1       5.414   6.241  16.629  0.00  0.00    +0.000 C 
BRANCH  23  24
ATOM     24  C   UNL     1       6.878   5.782  16.723  0.00  0.00    +0.000 C 
ATOM     25  N   UNL     1       7.848   6.878  16.919  0.00  0.00    +0.000 NA
ATOM     26  C   UNL     1       8.026   7.079  18.366  0.00  0.00    +0.000 C 
ATOM     27  C   UNL     1       7.318   5.914  19.079  0.00  0.00    +0.000 C 
ATOM     28  C   UNL     1       7.113   4.890  17.952  0.00  0.00    +0.000 C 
ATOM     29  H   UNL     1       7.550   7.742  16.473  0.00  0.00    +0.000 HD
BRANCH  27  30
ATOM     30  N   UNL     1       8.058   5.392  20.233  0.00  0.00    +0.000 NA
ATOM     31  H   UNL     1       7.641   5.811  21.070  0.00  0.00    +0.000 HD
ATOM     32  H   UNL     1       8.996   5.797  20.217  0.00  0.00    +0.000 HD
ENDBRANCH  27  30
BRANCH  28  33
ATOM     33  O   UNL     1       8.308   4.112  17.776  0.00  0.00    +0.000 OA
ATOM     34  H   UNL     1       8.874   4.334  18.541  0.00  0.00    +0.000 HD
ENDBRANCH  28  33
ENDBRANCH  23  24
ENDBRANCH  22  23
ENDBRANCH  21  22
ENDBRANCH  20  21
ENDBRANCH  19  20
ENDBRANCH  18  19
ENDBRANCH   1  18
TORSDOF 15
ENDMDL
MODEL 3
REMARK VINA RESULT:      -6.6      4.915      8.563
REMARK  Name = 
REMARK  16 active torsions:
REMARK  status: ('A' for Active; 'I' for Inactive)
REMARK    1  A    between atoms: C_1  and  C_2
REMARK    2  A    between atoms: C_7  and  C_8
REMARK    3  A    between atoms: C_8  and  O_9
REMARK    4  A    between atoms: O_9  and  C_10
REMARK    5  A    between atoms: C_10  and  C_11
REMARK    6  A    between atoms: C_11  and  C_12
REMARK    7  A    between atoms: C_12  and  C_13
REMARK    8  A    between atoms: C_13  and  C_14
REMARK    9  A    between atoms: C_14  and  C_15
REMARK   10  A    between atoms: C_15  and  C_16
REMARK   11  A    between atoms: C_16  and  C_17
REMARK   12  A    between atoms: C_17  and  C_18
REMARK   13  A    between atoms: C_18  and  C_19
REMARK   14  A    between atoms: C_19  and  C_20
REMARK   15  A    between atoms: C_23  and  N_24
REMARK   16  A    between atoms: C_25  and  O_26
REMARK                            x       y       z     vdW  Elec       q    Type
REMARK                         _______ _______ _______ _____ _____    ______ ____
ROOT
ATOM      1  C   UNL     1       2.276   6.457  19.850  0.00  0.00    +0.000 C 
ENDROOT
BRANCH   1   2
ATOM      2  C   UNL     1       1.954   7.921  20.118  0.00  0.00    +0.000 C 
BRANCH   2   3
ATOM      3  C   UNL     1       0.921   8.057  21.227  0.00  0.00    +0.000 C 
BRANCH   3   4
ATOM      4  C   UNL     1       1.142   9.346  22.001  0.00  0.00    +0.000 C 
BRANCH   4   5
ATOM      5  O   UNL     1       0.080  10.247  21.690  0.00  0.00    +0.000 OA
BRANCH   5   6
ATOM      6  C   UNL     1       0.412  11.059  20.567  0.00  0.00    +0.000 C 
BRANCH   6  13
ATOM      7  C   UNL     1      -4.169  11.257  16.990  0.00  0.00    +0.000 C 
ATOM      8  C   UNL     1      -3.004  11.203  17.923  0.00  0.00    +0.000 A 
ATOM      9  C   UNL     1      -2.993  11.917  19.119  0.00  0.00    +0.000 A 
ATOM     10  F   UNL     1      -4.045  12.671  19.464  0.00  0.00    +0.000 F 
ATOM     11  C   UNL     1      -1.891  11.873  19.969  0.00  0.00    +0.000 A 
ATOM     12  F   UNL     1      -1.918  12.584  21.105  0.00  0.00    +0.000 F 
ATOM     13  C   UNL     1      -0.764  11.114  19.649  0.00  0.00    +0.000 A 
ATOM     14  C   UNL     1      -0.782  10.383  18.463  0.00  0.00    +0.000 A 
ATOM     15  F   UNL     1       0.280   9.644  18.114  0.00  0.00    +0.000 F 
ATOM     16  C   UNL     1      -1.883  10.431  17.610  0.00  0.00    +0.000 A 
ATOM     17  F   UNL     1      -1.855   9.731  16.467  0.00  0.00    +0.000 F 
ENDBRANCH   6  13
ENDBRANCH   5   6
ENDBRANCH   4   5
ENDBRANCH   3   4
ENDBRANCH   2   3
ENDBRANCH   1   2
BRANCH   1  18
ATOM     18  C   UNL     1       2.575   6.248  18.371  0.00  0.00    +0.000 C 
BRANCH  18  19
ATOM     19  C   UNL     1       1.892   4.989  17.852  0.00  0.00    +0.000 C 
BRANCH  19  20
ATOM     20  C   UNL     1       2.668   3.756  18.294  0.00  0.00    +0.000 C 
BRANCH  20  21
ATOM     21  C   UNL     1       4.166   3.945  18.094  0.00  0.00    +0.000 C 
BRANCH  21  22
ATOM     22  C   UNL     1       4.480   4.082  16.607  0.00  0.00    +0.000 C 
BRANCH  22  23
ATOM     23  C   UNL     1       5.257   5.365  16.330  0.00  0.00    +0.000 C 
BRANCH  23  24
ATOM     24  C   UNL     1       6.778   5.200  16.477  0.00  0.00    +0.000 C 
ATOM     25  N   UNL     1       7.530   6.471  16.479  0.00  0.00    +0.000 NA
ATOM     26  C   UNL     1       7.645   6.933  17.871  0.00  0.00    +0.000 C 
ATOM     27  C   UNL     1       7.149   5.790  18.774  0.00  0.00    +0.000 C 
ATOM     28  C   UNL     1       7.152   4.577  17.831  0.00  0.00    +0.000 C 
ATOM     29  H   UNL     1       7.086   7.183  15.903  0.00  0.00    +0.000 HD
BRANCH  27  30
ATOM     30  N   UNL     1       7.954   5.605  19.986  0.00  0.00    +0.000 NA
ATOM     31  H   UNL     1       7.969   6.505  20.475  0.00  0.00    +0.000 HD
ATOM     32  H   UNL     1       8.929   5.480  19.705  0.00  0.00    +0.000 HD
ENDBRANCH  27  30
BRANCH  28  33
ATOM     33  O   UNL     1       8.471   4.011  17.766  0.00  0.00    +0.000 OA
ATOM     34  H   UNL     1       8.350   3.057  17.935  0.00  0.00    +0.000 HD
ENDBRANCH  28  33
ENDBRANCH  23  24
ENDBRANCH  22  23
ENDBRANCH  21  22
ENDBRANCH  20  21
ENDBRANCH  19  20
ENDBRANCH  18  19
ENDBRANCH   1  18
TORSDOF 15
ENDMDL
MODEL 4
REMARK VINA RESULT:      -6.6      0.837      1.023
REMARK  Name = 
REMARK  16 active torsions:
REMARK  status: ('A' for Active; 'I' for Inactive)
REMARK    1  A    between atoms: C_1  and  C_2
REMARK    2  A    between atoms: C_7  and  C_8
REMARK    3  A    between atoms: C_8  and  O_9
REMARK    4  A    between atoms: O_9  and  C_10
REMARK    5  A    between atoms: C_10  and  C_11
REMARK    6  A    between atoms: C_11  and  C_12
REMARK    7  A    between atoms: C_12  and  C_13
REMARK    8  A    between atoms: C_13  and  C_14
REMARK    9  A    between atoms: C_14  and  C_15
REMARK   10  A    between atoms: C_15  and  C_16
REMARK   11  A    between atoms: C_16  and  C_17
REMARK   12  A    between atoms: C_17  and  C_18
REMARK   13  A    between atoms: C_18  and  C_19
REMARK   14  A    between atoms: C_19  and  C_20
REMARK   15  A    between atoms: C_23  and  N_24
REMARK   16  A    between atoms: C_25  and  O_26
REMARK                            x       y       z     vdW  Elec       q    Type
REMARK                         _______ _______ _______ _____ _____    ______ ____
ROOT
ATOM      1  C   UNL     1       2.097   4.854  20.679  0.00  0.00    +0.000 C 
ENDROOT
BRANCH   1   2
ATOM      2  C   UNL     1       0.913   3.954  20.353  0.00  0.00    +0.000 C 
BRANCH   2   3
ATOM      3  C   UNL     1       1.238   3.021  19.197  0.00  0.00    +0.000 C 
BRANCH   3   4
ATOM      4  C   UNL     1       1.592   3.820  17.954  0.00  0.00    +0.000 C 
BRANCH   4   5
ATOM      5  O   UNL     1       2.309   2.971  17.060  0.00  0.00    +0.000 OA
BRANCH   5   6
ATOM      6  C   UNL     1       3.536   2.539  17.640  0.00  0.00    +0.000 C 
BRANCH   6  13
ATOM      7  C   UNL     1       7.303   6.970  17.529  0.00  0.00    +0.000 C 
ATOM      8  C   UNL     1       6.327   5.840  17.573  0.00  0.00    +0.000 A 
ATOM      9  C   UNL     1       6.043   5.166  18.758  0.00  0.00    +0.000 A 
ATOM     10  F   UNL     1       6.642   5.528  19.900  0.00  0.00    +0.000 F 
ATOM     11  C   UNL     1       5.146   4.100  18.779  0.00  0.00    +0.000 A 
ATOM     12  F   UNL     1       4.909   3.473  19.939  0.00  0.00    +0.000 F 
ATOM     13  C   UNL     1       4.506   3.675  17.614  0.00  0.00    +0.000 A 
ATOM     14  C   UNL     1       4.774   4.361  16.431  0.00  0.00    +0.000 A 
ATOM     15  F   UNL     1       4.185   3.984  15.288  0.00  0.00    +0.000 F 
ATOM     16  C   UNL     1       5.675   5.424  16.410  0.00  0.00    +0.000 A 
ATOM     17  F   UNL     1       5.924   6.046  15.248  0.00  0.00    +0.000 F 
ENDBRANCH   6  13
ENDBRANCH   5   6
ENDBRANCH   4   5
ENDBRANCH   3   4
ENDBRANCH   2   3
ENDBRANCH   1   2
BRANCH   1  18
ATOM     18  C   UNL     1       1.773   6.298  20.320  0.00  0.00    +0.000 C 
BRANCH  18  19
ATOM     19  C   UNL     1       2.880   6.908  19.470  0.00  0.00    +0.000 C 
BRANCH  19  20
ATOM     20  C   UNL     1       2.342   7.263  18.091  0.00  0.00    +0.000 C 
BRANCH  20  21
ATOM     21  C   UNL     1       2.432   8.761  17.831  0.00  0.00    +0.000 C 
BRANCH  21  22
ATOM     22  C   UNL     1       1.119   9.436  18.217  0.00  0.00    +0.000 C 
BRANCH  22  23
ATOM     23  C   UNL     1       1.344  10.902  18.570  0.00  0.00    +0.000 C 
BRANCH  23  24
ATOM     24  C   UNL     1       0.076  11.608  19.078  0.00  0.00    +0.000 C 
ATOM     25  N   UNL     1      -0.585  10.930  20.211  0.00  0.00    +0.000 NA
ATOM     26  C   UNL     1      -0.024  11.470  21.459  0.00  0.00    +0.000 C 
ATOM     27  C   UNL     1       0.844  12.683  21.083  0.00  0.00    +0.000 C 
ATOM     28  C   UNL     1       0.393  13.000  19.648  0.00  0.00    +0.000 C 
ATOM     29  H   UNL     1      -0.471   9.920  20.176  0.00  0.00    +0.000 HD
BRANCH  27  30
ATOM     30  N   UNL     1       0.715  13.811  22.011  0.00  0.00    +0.000 NA
ATOM     31  H   UNL     1       1.618  13.915  22.482  0.00  0.00    +0.000 HD
ATOM     32  H   UNL     1       0.092  13.528  22.770  0.00  0.00    +0.000 HD
ENDBRANCH  27  30
BRANCH  28  33
ATOM     33  O   UNL     1      -0.796  13.805  19.675  0.00  0.00    +0.000 OA
ATOM     34  H   UNL     1      -1.525  13.179  19.850  0.00  0.00    +0.000 HD
ENDBRANCH  28  33
ENDBRANCH  23  24
ENDBRANCH  22  23
ENDBRANCH  21  22
ENDBRANCH  20  21
ENDBRANCH  19  20
ENDBRANCH  18  19
ENDBRANCH   1  18
TORSDOF 15
ENDMDL
MODEL 5
REMARK VINA RESULT:      -6.5      4.482      7.759
REMARK  Name = 
REMARK  16 active torsions:
REMARK  status: ('A' for Active; 'I' for Inactive)
REMARK    1  A    between atoms: C_1  and  C_2
REMARK    2  A    between atoms: C_7  and  C_8
REMARK    3  A    between atoms: C_8  and  O_9
REMARK    4  A    between atoms: O_9  and  C_10
REMARK    5  A    between atoms: C_10  and  C_11
REMARK    6  A    between atoms: C_11  and  C_12
REMARK    7  A    between atoms: C_12  and  C_13
REMARK    8  A    between atoms: C_13  and  C_14
REMARK    9  A    between atoms: C_14  and  C_15
REMARK   10  A    between atoms: C_15  and  C_16
REMARK   11  A    between atoms: C_16  and  C_17
REMARK   12  A    between atoms: C_17  and  C_18
REMARK   13  A    between atoms: C_18  and  C_19
REMARK   14  A    between atoms: C_19  and  C_20
REMARK   15  A    between atoms: C_23  and  N_24
REMARK   16  A    between atoms: C_25  and  O_26
REMARK                            x       y       z     vdW  Elec       q    Type
REMARK                         _______ _______ _______ _____ _____    ______ ____
ROOT
ATOM      1  C   UNL     1       2.035   3.181  20.913  0.00  0.00    +0.000 C 
ENDROOT
BRANCH   1   2
ATOM      2  C   UNL     1       2.515   4.608  21.139  0.00  0.00    +0.000 C 
BRANCH   2   3
ATOM      3  C   UNL     1       1.505   5.614  20.608  0.00  0.00    +0.000 C 
BRANCH   3   4
ATOM      4  C   UNL     1       2.204   6.677  19.776  0.00  0.00    +0.000 C 
BRANCH   4   5
ATOM      5  O   UNL     1       2.059   7.933  20.435  0.00  0.00    +0.000 OA
BRANCH   5   6
ATOM      6  C   UNL     1       0.960   7.910  21.342  0.00  0.00    +0.000 C 
BRANCH   6  13
ATOM      7  C   UNL     1      -1.765  13.043  21.105  0.00  0.00    +0.000 C 
ATOM      8  C   UNL     1      -1.079  11.718  21.176  0.00  0.00    +0.000 A 
ATOM      9  C   UNL     1      -0.889  11.059  22.389  0.00  0.00    +0.000 A 
ATOM     10  F   UNL     1      -1.331  11.605  23.530  0.00  0.00    +0.000 F 
ATOM     11  C   UNL     1      -0.229   9.834  22.442  0.00  0.00    +0.000 A 
ATOM     12  F   UNL     1      -0.060   9.239  23.631  0.00  0.00    +0.000 F 
ATOM     13  C   UNL     1       0.262   9.230  21.284  0.00  0.00    +0.000 A 
ATOM     14  C   UNL     1       0.055   9.879  20.068  0.00  0.00    +0.000 A 
ATOM     15  F   UNL     1       0.515   9.336  18.932  0.00  0.00    +0.000 F 
ATOM     16  C   UNL     1      -0.601  11.106  20.016  0.00  0.00    +0.000 A 
ATOM     17  F   UNL     1      -0.762  11.711  18.830  0.00  0.00    +0.000 F 
ENDBRANCH   6  13
ENDBRANCH   5   6
ENDBRANCH   4   5
ENDBRANCH   3   4
ENDBRANCH   2   3
ENDBRANCH   1   2
BRANCH   1  18
ATOM     18  C   UNL     1       0.733   3.184  20.124  0.00  0.00    +0.000 C 
BRANCH  18  19
ATOM     19  C   UNL     1       0.858   2.334  18.866  0.00  0.00    +0.000 C 
BRANCH  19  20
ATOM     20  C   UNL     1       1.934   2.909  17.954  0.00  0.00    +0.000 C 
BRANCH  20  21
ATOM     21  C   UNL     1       3.179   2.033  17.948  0.00  0.00    +0.000 C 
BRANCH  21  22
ATOM     22  C   UNL     1       4.429   2.905  17.871  0.00  0.00    +0.000 C 
BRANCH  22  23
ATOM     23  C   UNL     1       4.070   4.339  17.498  0.00  0.00    +0.000 C 
BRANCH  23  24
ATOM     24  C   UNL     1       5.203   5.342  17.768  0.00  0.00    +0.000 C 
ATOM     25  N   UNL     1       6.440   4.733  18.298  0.00  0.00    +0.000 NA
ATOM     26  C   UNL     1       7.298   4.375  17.157  0.00  0.00    +0.000 C 
ATOM     27  C   UNL     1       6.667   4.994  15.898  0.00  0.00    +0.000 C 
ATOM     28  C   UNL     1       5.679   6.021  16.475  0.00  0.00    +0.000 C 
ATOM     29  H   UNL     1       6.253   3.916  18.874  0.00  0.00    +0.000 HD
BRANCH  27  30
ATOM     30  N   UNL     1       7.647   5.567  14.968  0.00  0.00    +0.000 NA
ATOM     31  H   UNL     1       7.382   5.259  14.028  0.00  0.00    +0.000 HD
ATOM     32  H   UNL     1       8.541   5.096  15.120  0.00  0.00    +0.000 HD
ENDBRANCH  27  30
BRANCH  28  33
ATOM     33  O   UNL     1       6.368   7.243  16.783  0.00  0.00    +0.000 OA
ATOM     34  H   UNL     1       5.674   7.859  17.087  0.00  0.00    +0.000 HD
ENDBRANCH  28  33
ENDBRANCH  23  24
ENDBRANCH  22  23
ENDBRANCH  21  22
ENDBRANCH  20  21
ENDBRANCH  19  20
ENDBRANCH  18  19
ENDBRANCH   1  18
TORSDOF 15
ENDMDL
MODEL 6
REMARK VINA RESULT:      -6.4      5.689      7.747
REMARK  Name = 
REMARK  16 active torsions:
REMARK  status: ('A' for Active; 'I' for Inactive)
REMARK    1  A    between atoms: C_1  and  C_2
REMARK    2  A    between atoms: C_7  and  C_8
REMARK    3  A    between atoms: C_8  and  O_9
REMARK    4  A    between atoms: O_9  and  C_10
REMARK    5  A    between atoms: C_10  and  C_11
REMARK    6  A    between atoms: C_11  and  C_12
REMARK    7  A    between atoms: C_12  and  C_13
REMARK    8  A    between atoms: C_13  and  C_14
REMARK    9  A    between atoms: C_14  and  C_15
REMARK   10  A    between atoms: C_15  and  C_16
REMARK   11  A    between atoms: C_16  and  C_17
REMARK   12  A    between atoms: C_17  and  C_18
REMARK   13  A    between atoms: C_18  and  C_19
REMARK   14  A    between atoms: C_19  and  C_20
REMARK   15  A    between atoms: C_23  and  N_24
REMARK   16  A    between atoms: C_25  and  O_26
REMARK                            x       y       z     vdW  Elec       q    Type
REMARK                         _______ _______ _______ _____ _____    ______ ____
ROOT
ATOM      1  C   UNL     1       6.461   7.180  17.322  0.00  0.00    +0.000 C 
ENDROOT
BRANCH   1   2
ATOM      2  C   UNL     1       6.435   5.747  16.807  0.00  0.00    +0.000 C 
BRANCH   2   3
ATOM      3  C   UNL     1       5.407   4.916  17.560  0.00  0.00    +0.000 C 
BRANCH   3   4
ATOM      4  C   UNL     1       5.579   5.092  19.059  0.00  0.00    +0.000 C 
BRANCH   4   5
ATOM      5  O   UNL     1       4.287   5.216  19.650  0.00  0.00    +0.000 OA
BRANCH   5   6
ATOM      6  C   UNL     1       3.296   5.477  18.659  0.00  0.00    +0.000 C 
BRANCH   6  13
ATOM      7  C   UNL     1       0.626  10.485  19.932  0.00  0.00    +0.000 C 
ATOM      8  C   UNL     1       1.296   9.189  19.610  0.00  0.00    +0.000 A 
ATOM      9  C   UNL     1       1.272   8.115  20.496  0.00  0.00    +0.000 A 
ATOM     10  F   UNL     1       0.632   8.222  21.668  0.00  0.00    +0.000 F 
ATOM     11  C   UNL     1       1.919   6.920  20.191  0.00  0.00    +0.000 A 
ATOM     12  F   UNL     1       1.880   5.915  21.077  0.00  0.00    +0.000 F 
ATOM     13  C   UNL     1       2.612   6.762  18.990  0.00  0.00    +0.000 A 
ATOM     14  C   UNL     1       2.620   7.830  18.093  0.00  0.00    +0.000 A 
ATOM     15  F   UNL     1       3.276   7.723  16.930  0.00  0.00    +0.000 F 
ATOM     16  C   UNL     1       1.976   9.026  18.401  0.00  0.00    +0.000 A 
ATOM     17  F   UNL     1       2.024  10.038  17.522  0.00  0.00    +0.000 F 
ENDBRANCH   6  13
ENDBRANCH   5   6
ENDBRANCH   4   5
ENDBRANCH   3   4
ENDBRANCH   2   3
ENDBRANCH   1   2
BRANCH   1  18
ATOM     18  C   UNL     1       7.864   7.542  17.792  0.00  0.00    +0.000 C 
BRANCH  18  19
ATOM     19  C   UNL     1       8.072   9.051  17.767  0.00  0.00    +0.000 C 
BRANCH  19  20
ATOM     20  C   UNL     1       8.937   9.477  18.945  0.00  0.00    +0.000 C 
BRANCH  20  21
ATOM     21  C   UNL     1       9.289  10.956  18.867  0.00  0.00    +0.000 C 
BRANCH  21  22
ATOM     22  C   UNL     1      10.299  11.193  17.748  0.00  0.00    +0.000 C 
BRANCH  22  23
ATOM     23  C   UNL     1      11.212  12.368  18.078  0.00  0.00    +0.000 C 
BRANCH  23  24
ATOM     24  C   UNL     1      10.988  13.589  17.171  0.00  0.00    +0.000 C 
ATOM     25  N   UNL     1       9.621  14.144  17.226  0.00  0.00    +0.000 NA
ATOM     26  C   UNL     1       9.585  15.171  18.279  0.00  0.00    +0.000 C 
ATOM     27  C   UNL     1      11.037  15.415  18.728  0.00  0.00    +0.000 C 
ATOM     28  C   UNL     1      11.861  14.779  17.598  0.00  0.00    +0.000 C 
ATOM     29  H   UNL     1       8.920  13.429  17.402  0.00  0.00    +0.000 HD
BRANCH  27  30
ATOM     30  N   UNL     1      11.348  16.828  18.972  0.00  0.00    +0.000 NA
ATOM     31  H   UNL     1      10.933  17.362  18.203  0.00  0.00    +0.000 HD
ATOM     32  H   UNL     1      12.351  16.961  18.829  0.00  0.00    +0.000 HD
ENDBRANCH  27  30
BRANCH  28  33
ATOM     33  O   UNL     1      11.996  15.707  16.509  0.00  0.00    +0.000 OA
ATOM     34  H   UNL     1      11.545  16.520  16.808  0.00  0.00    +0.000 HD
ENDBRANCH  28  33
ENDBRANCH  23  24
ENDBRANCH  22  23
ENDBRANCH  21  22
ENDBRANCH  20  21
ENDBRANCH  19  20
ENDBRANCH  18  19
ENDBRANCH   1  18
TORSDOF 15
ENDMDL
MODEL 7
REMARK VINA RESULT:      -6.4      5.616      7.904
REMARK  Name = 
REMARK  16 active torsions:
REMARK  status: ('A' for Active; 'I' for Inactive)
REMARK    1  A    between atoms: C_1  and  C_2
REMARK    2  A    between atoms: C_7  and  C_8
REMARK    3  A    between atoms: C_8  and  O_9
REMARK    4  A    between atoms: O_9  and  C_10
REMARK    5  A    between atoms: C_10  and  C_11
REMARK    6  A    between atoms: C_11  and  C_12
REMARK    7  A    between atoms: C_12  and  C_13
REMARK    8  A    between atoms: C_13  and  C_14
REMARK    9  A    between atoms: C_14  and  C_15
REMARK   10  A    between atoms: C_15  and  C_16
REMARK   11  A    between atoms: C_16  and  C_17
REMARK   12  A    between atoms: C_17  and  C_18
REMARK   13  A    between atoms: C_18  and  C_19
REMARK   14  A    between atoms: C_19  and  C_20
REMARK   15  A    between atoms: C_23  and  N_24
REMARK   16  A    between atoms: C_25  and  O_26
REMARK                            x       y       z     vdW  Elec       q    Type
REMARK                         _______ _______ _______ _____ _____    ______ ____
ROOT
ATOM      1  C   UNL     1       8.752   9.073  18.814  0.00  0.00    +0.000 C 
ENDROOT
BRANCH   1   2
ATOM      2  C   UNL     1       8.079   8.434  17.608  0.00  0.00    +0.000 C 
BRANCH   2   3
ATOM      3  C   UNL     1       7.620   7.019  17.926  0.00  0.00    +0.000 C 
BRANCH   3   4
ATOM      4  C   UNL     1       6.104   6.926  17.861  0.00  0.00    +0.000 C 
BRANCH   4   5
ATOM      5  O   UNL     1       5.751   5.621  17.406  0.00  0.00    +0.000 OA
BRANCH   5   6
ATOM      6  C   UNL     1       4.395   5.582  16.971  0.00  0.00    +0.000 C 
BRANCH   6  13
ATOM      7  C   UNL     1       1.188   2.941  21.042  0.00  0.00    +0.000 C 
ATOM      8  C   UNL     1       2.003   3.609  19.983  0.00  0.00    +0.000 A 
ATOM      9  C   UNL     1       2.662   2.877  18.998  0.00  0.00    +0.000 A 
ATOM     10  F   UNL     1       2.571   1.540  18.977  0.00  0.00    +0.000 F 
ATOM     11  C   UNL     1       3.435   3.512  18.030  0.00  0.00    +0.000 A 
ATOM     12  F   UNL     1       4.061   2.769  17.107  0.00  0.00    +0.000 F 
ATOM     13  C   UNL     1       3.574   4.901  18.017  0.00  0.00    +0.000 A 
ATOM     14  C   UNL     1       2.899   5.636  18.989  0.00  0.00    +0.000 A 
ATOM     15  F   UNL     1       3.008   6.972  19.016  0.00  0.00    +0.000 F 
ATOM     16  C   UNL     1       2.129   5.000  19.961  0.00  0.00    +0.000 A 
ATOM     17  F   UNL     1       1.512   5.740  20.893  0.00  0.00    +0.000 F 
ENDBRANCH   6  13
ENDBRANCH   5   6
ENDBRANCH   4   5
ENDBRANCH   3   4
ENDBRANCH   2   3
ENDBRANCH   1   2
BRANCH   1  18
ATOM     18  C   UNL     1       9.224  10.479  18.468  0.00  0.00    +0.000 C 
BRANCH  18  19
ATOM     19  C   UNL     1       9.681  11.222  19.717  0.00  0.00    +0.000 C 
BRANCH  19  20
ATOM     20  C   UNL     1      11.171  11.521  19.629  0.00  0.00    +0.000 C 
BRANCH  20  21
ATOM     21  C   UNL     1      11.646  11.541  18.182  0.00  0.00    +0.000 C 
BRANCH  21  22
ATOM     22  C   UNL     1      11.967  12.972  17.760  0.00  0.00    +0.000 C 
BRANCH  22  23
ATOM     23  C   UNL     1      10.716  13.686  17.260  0.00  0.00    +0.000 C 
BRANCH  23  24
ATOM     24  C   UNL     1      10.590  15.129  17.774  0.00  0.00    +0.000 C 
ATOM     25  N   UNL     1       9.499  15.904  17.149  0.00  0.00    +0.000 NA
ATOM     26  C   UNL     1       8.284  15.720  17.959  0.00  0.00    +0.000 C 
ATOM     27  C   UNL     1       8.702  14.995  19.251  0.00  0.00    +0.000 C 
ATOM     28  C   UNL     1      10.229  15.169  19.267  0.00  0.00    +0.000 C 
ATOM     29  H   UNL     1       9.330  15.625  16.185  0.00  0.00    +0.000 HD
BRANCH  27  30
ATOM     30  N   UNL     1       8.032  15.501  20.453  0.00  0.00    +0.000 NA
ATOM     31  H   UNL     1       7.434  14.746  20.802  0.00  0.00    +0.000 HD
ATOM     32  H   UNL     1       7.357  16.213  20.165  0.00  0.00    +0.000 HD
ENDBRANCH  27  30
BRANCH  28  33
ATOM     33  O   UNL     1      10.570  16.449  19.823  0.00  0.00    +0.000 OA
ATOM     34  H   UNL     1       9.760  16.988  19.741  0.00  0.00    +0.000 HD
ENDBRANCH  28  33
ENDBRANCH  23  24
ENDBRANCH  22  23
ENDBRANCH  21  22
ENDBRANCH  20  21
ENDBRANCH  19  20
ENDBRANCH  18  19
ENDBRANCH   1  18
TORSDOF 15
ENDMDL
MODEL 8
REMARK VINA RESULT:      -6.4      5.147      7.382
REMARK  Name = 
REMARK  16 active torsions:
REMARK  status: ('A' for Active; 'I' for Inactive)
REMARK    1  A    between atoms: C_1  and  C_2
REMARK    2  A    between atoms: C_7  and  C_8
REMARK    3  A    between atoms: C_8  and  O_9
REMARK    4  A    between atoms: O_9  and  C_10
REMARK    5  A    between atoms: C_10  and  C_11
REMARK    6  A    between atoms: C_11  and  C_12
REMARK    7  A    between atoms: C_12  and  C_13
REMARK    8  A    between atoms: C_13  and  C_14
REMARK    9  A    between atoms: C_14  and  C_15
REMARK   10  A    between atoms: C_15  and  C_16
REMARK   11  A    between atoms: C_16  and  C_17
REMARK   12  A    between atoms: C_17  and  C_18
REMARK   13  A    between atoms: C_18  and  C_19
REMARK   14  A    between atoms: C_19  and  C_20
REMARK   15  A    between atoms: C_23  and  N_24
REMARK   16  A    between atoms: C_25  and  O_26
REMARK                            x       y       z     vdW  Elec       q    Type
REMARK                         _______ _______ _______ _____ _____    ______ ____
ROOT
ATOM      1  C   UNL     1       9.212  10.157  18.881  0.00  0.00    +0.000 C 
ENDROOT
BRANCH   1   2
ATOM      2  C   UNL     1       8.203   9.435  18.000  0.00  0.00    +0.000 C 
BRANCH   2   3
ATOM      3  C   UNL     1       8.209   7.939  18.277  0.00  0.00    +0.000 C 
BRANCH   3   4
ATOM      4  C   UNL     1       7.417   7.200  17.210  0.00  0.00    +0.000 C 
BRANCH   4   5
ATOM      5  O   UNL     1       6.242   6.662  17.813  0.00  0.00    +0.000 OA
BRANCH   5   6
ATOM      6  C   UNL     1       5.303   6.249  16.823  0.00  0.00    +0.000 C 
BRANCH   6  13
ATOM      7  C   UNL     1       1.683   2.362  19.193  0.00  0.00    +0.000 C 
ATOM      8  C   UNL     1       2.616   3.368  18.601  0.00  0.00    +0.000 A 
ATOM      9  C   UNL     1       2.493   4.728  18.878  0.00  0.00    +0.000 A 
ATOM     10  F   UNL     1       1.528   5.166  19.697  0.00  0.00    +0.000 F 
ATOM     11  C   UNL     1       3.357   5.656  18.302  0.00  0.00    +0.000 A 
ATOM     12  F   UNL     1       3.198   6.956  18.587  0.00  0.00    +0.000 F 
ATOM     13  C   UNL     1       4.371   5.254  17.431  0.00  0.00    +0.000 A 
ATOM     14  C   UNL     1       4.507   3.891  17.169  0.00  0.00    +0.000 A 
ATOM     15  F   UNL     1       5.463   3.460  16.335  0.00  0.00    +0.000 F 
ATOM     16  C   UNL     1       3.639   2.963  17.742  0.00  0.00    +0.000 A 
ATOM     17  F   UNL     1       3.787   1.663  17.449  0.00  0.00    +0.000 F 
ENDBRANCH   6  13
ENDBRANCH   5   6
ENDBRANCH   4   5
ENDBRANCH   3   4
ENDBRANCH   2   3
ENDBRANCH   1   2
BRANCH   1  18
ATOM     18  C   UNL     1      10.053  11.111  18.044  0.00  0.00    +0.000 C 
BRANCH  18  19
ATOM     19  C   UNL     1      11.266  11.598  18.827  0.00  0.00    +0.000 C 
BRANCH  19  20
ATOM     20  C   UNL     1      10.896  11.790  20.291  0.00  0.00    +0.000 C 
BRANCH  20  21
ATOM     21  C   UNL     1      10.560  13.245  20.591  0.00  0.00    +0.000 C 
BRANCH  21  22
ATOM     22  C   UNL     1       9.124  13.354  21.094  0.00  0.00    +0.000 C 
BRANCH  22  23
ATOM     23  C   UNL     1       8.816  12.255  22.105  0.00  0.00    +0.000 C 
BRANCH  23  24
ATOM     24  C   UNL     1       8.489  12.791  23.508  0.00  0.00    +0.000 C 
ATOM     25  N   UNL     1       7.470  13.860  23.528  0.00  0.00    +0.000 NA
ATOM     26  C   UNL     1       6.148  13.230  23.677  0.00  0.00    +0.000 C 
ATOM     27  C   UNL     1       6.384  11.742  23.991  0.00  0.00    +0.000 C 
ATOM     28  C   UNL     1       7.866  11.704  24.398  0.00  0.00    +0.000 C 
ATOM     29  H   UNL     1       7.497  14.436  22.690  0.00  0.00    +0.000 HD
BRANCH  27  30
ATOM     30  N   UNL     1       5.473  11.202  25.006  0.00  0.00    +0.000 NA
ATOM     31  H   UNL     1       6.024  10.573  25.598  0.00  0.00    +0.000 HD
ATOM     32  H   UNL     1       4.820  10.568  24.542  0.00  0.00    +0.000 HD
ENDBRANCH  27  30
BRANCH  28  33
ATOM     33  O   UNL     1       8.001  12.063  25.783  0.00  0.00    +0.000 OA
ATOM     34  H   UNL     1       7.723  11.271  26.281  0.00  0.00    +0.000 HD
ENDBRANCH  28  33
ENDBRANCH  23  24
ENDBRANCH  22  23
ENDBRANCH  21  22
ENDBRANCH  20  21
ENDBRANCH  19  20
ENDBRANCH  18  19
ENDBRANCH   1  18
TORSDOF 15
ENDMDL
MODEL 9
REMARK VINA RESULT:      -6.4      4.608      8.082
REMARK  Name = 
REMARK  16 active torsions:
REMARK  status: ('A' for Active; 'I' for Inactive)
REMARK    1  A    between atoms: C_1  and  C_2
REMARK    2  A    between atoms: C_7  and  C_8
REMARK    3  A    between atoms: C_8  and  O_9
REMARK    4  A    between atoms: O_9  and  C_10
REMARK    5  A    between atoms: C_10  and  C_11
REMARK    6  A    between atoms: C_11  and  C_12
REMARK    7  A    between atoms: C_12  and  C_13
REMARK    8  A    between atoms: C_13  and  C_14
REMARK    9  A    between atoms: C_14  and  C_15
REMARK   10  A    between atoms: C_15  and  C_16
REMARK   11  A    between atoms: C_16  and  C_17
REMARK   12  A    between atoms: C_17  and  C_18
REMARK   13  A    between atoms: C_18  and  C_19
REMARK   14  A    between atoms: C_19  and  C_20
REMARK   15  A    between atoms: C_23  and  N_24
REMARK   16  A    between atoms: C_25  and  O_26
REMARK                            x       y       z     vdW  Elec       q    Type
REMARK                         _______ _______ _______ _____ _____    ______ ____
ROOT
ATOM      1  C   UNL     1       2.099   4.899  21.043  0.00  0.00    +0.000 C 
ENDROOT
BRANCH   1   2
ATOM      2  C   UNL     1       1.567   5.956  20.085  0.00  0.00    +0.000 C 
BRANCH   2   3
ATOM      3  C   UNL     1       2.696   6.820  19.544  0.00  0.00    +0.000 C 
BRANCH   3   4
ATOM      4  C   UNL     1       2.144   7.905  18.635  0.00  0.00    +0.000 C 
BRANCH   4   5
ATOM      5  O   UNL     1       1.415   8.835  19.435  0.00  0.00    +0.000 OA
BRANCH   5   6
ATOM      6  C   UNL     1       1.346  10.109  18.801  0.00  0.00    +0.000 C 
BRANCH   6  13
ATOM      7  C   UNL     1      -4.223  11.771  18.567  0.00  0.00    +0.000 C 
ATOM      8  C   UNL     1      -2.794  11.342  18.646  0.00  0.00    +0.000 A 
ATOM      9  C   UNL     1      -1.912  11.907  19.565  0.00  0.00    +0.000 A 
ATOM     10  F   UNL     1      -2.336  12.854  20.412  0.00  0.00    +0.000 F 
ATOM     11  C   UNL     1      -0.578  11.512  19.612  0.00  0.00    +0.000 A 
ATOM     12  F   UNL     1       0.239  12.088  20.504  0.00  0.00    +0.000 F 
ATOM     13  C   UNL     1      -0.083  10.540  18.742  0.00  0.00    +0.000 A 
ATOM     14  C   UNL     1      -0.969   9.960  17.835  0.00  0.00    +0.000 A 
ATOM     15  F   UNL     1      -0.535   9.026  16.978  0.00  0.00    +0.000 F 
ATOM     16  C   UNL     1      -2.303  10.359  17.785  0.00  0.00    +0.000 A 
ATOM     17  F   UNL     1      -3.120   9.793  16.885  0.00  0.00    +0.000 F 
ENDBRANCH   6  13
ENDBRANCH   5   6
ENDBRANCH   4   5
ENDBRANCH   3   4
ENDBRANCH   2   3
ENDBRANCH   1   2
BRANCH   1  18
ATOM     18  C   UNL     1       1.485   3.543  20.723  0.00  0.00    +0.000 C 
BRANCH  18  19
ATOM     19  C   UNL     1       0.880   3.537  19.325  0.00  0.00    +0.000 C 
BRANCH  19  20
ATOM     20  C   UNL     1       1.310   2.284  18.576  0.00  0.00    +0.000 C 
BRANCH  20  21
ATOM     21  C   UNL     1       2.806   2.036  18.727  0.00  0.00    +0.000 C 
BRANCH  21  22
ATOM     22  C   UNL     1       3.589   3.181  18.090  0.00  0.00    +0.000 C 
BRANCH  22  23
ATOM     23  C   UNL     1       4.864   3.471  18.874  0.00  0.00    +0.000 C 
BRANCH  23  24
ATOM     24  C   UNL     1       5.397   4.897  18.666  0.00  0.00    +0.000 C 
ATOM     25  N   UNL     1       6.799   5.090  19.088  0.00  0.00    +0.000 NA
ATOM     26  C   UNL     1       7.668   4.809  17.934  0.00  0.00    +0.000 C 
ATOM     27  C   UNL     1       6.758   4.665  16.702  0.00  0.00    +0.000 C 
ATOM     28  C   UNL     1       5.431   5.277  17.178  0.00  0.00    +0.000 C 
ATOM     29  H   UNL     1       7.051   4.497  19.875  0.00  0.00    +0.000 HD
BRANCH  27  30
ATOM     30  N   UNL     1       7.302   5.289  15.491  0.00  0.00    +0.000 NA
ATOM     31  H   UNL     1       6.732   4.964  14.705  0.00  0.00    +0.000 HD
ATOM     32  H   UNL     1       8.215   4.871  15.301  0.00  0.00    +0.000 HD
ENDBRANCH  27  30
BRANCH  28  33
ATOM     33  O   UNL     1       5.472   6.706  17.034  0.00  0.00    +0.000 OA
ATOM     34  H   UNL     1       5.380   7.058  17.940  0.00  0.00    +0.000 HD
ENDBRANCH  28  33
ENDBRANCH  23  24
ENDBRANCH  22  23
ENDBRANCH  21  22
ENDBRANCH  20  21
ENDBRANCH  19  20
ENDBRANCH  18  19
ENDBRANCH   1  18
TORSDOF 15
ENDMDL
