MODEL 1
REMARK VINA RESULT:      -7.1      0.000      0.000
REMARK  Name = 
REMARK  5 active torsions:
REMARK  status: ('A' for Active; 'I' for Inactive)
REMARK    1  A    between atoms: C_1  and  C_2
REMARK    2  A    between atoms: C_2  and  C_3
REMARK    3  A    between atoms: C_3  and  N_4
REMARK    4  A    between atoms: C_8  and  C_9
REMARK    5  A    between atoms: C_13  and  O_14
REMARK                            x       y       z     vdW  Elec       q    Type
REMARK                         _______ _______ _______ _____ _____    ______ ____
ROOT
ATOM      1  N   UNL     1       6.527   5.514  17.751  0.00  0.00    +0.000 NA
ATOM      2  C   UNL     1       6.797   4.515  16.689  0.00  0.00    +0.000 C 
ATOM      3  C   UNL     1       5.584   4.385  15.764  0.00  0.00    +0.000 C 
ATOM      4  C   UNL     1       4.380   3.908  16.567  0.00  0.00    +0.000 C 
ATOM      5  C   UNL     1       4.102   4.881  17.725  0.00  0.00    +0.000 C 
ATOM      6  C   UNL     1       5.377   5.076  18.579  0.00  0.00    +0.000 C 
ENDROOT
BRANCH   5   7
ATOM      7  C   UNL     1       2.947   4.367  18.570  0.00  0.00    +0.000 A 
ATOM      8  C   UNL     1       2.672   4.932  19.827  0.00  0.00    +0.000 A 
ATOM      9  C   UNL     1       1.599   4.463  20.594  0.00  0.00    +0.000 A 
ATOM     10  C   UNL     1       0.792   3.429  20.116  0.00  0.00    +0.000 A 
ATOM     11  C   UNL     1       1.055   2.853  18.865  0.00  0.00    +0.000 A 
ATOM     12  C   UNL     1       2.126   3.322  18.099  0.00  0.00    +0.000 A 
BRANCH  11  13
ATOM     13  O   UNL     1       0.285   1.855  18.387  0.00  0.00    +0.000 OA
ATOM     14  H   UNL     1      -0.166   1.913  17.533  0.00  0.00    +0.000 HD
ENDBRANCH  11  13
ENDBRANCH   5   7
BRANCH   1  15
ATOM     15  C   UNL     1       7.703   5.720  18.631  0.00  0.00    +0.000 C 
BRANCH  15  17
ATOM     16  C   UNL     1       7.720   8.010  17.511  0.00  0.00    +0.000 C 
ATOM     17  C   UNL     1       8.185   7.182  18.706  0.00  0.00    +0.000 C 
ENDBRANCH  15  17
ENDBRANCH   1  15
TORSDOF 4
ENDMDL
MODEL 2
REMARK VINA RESULT:      -6.9      1.256      1.617
REMARK  Name = 
REMARK  5 active torsions:
REMARK  status: ('A' for Active; 'I' for Inactive)
REMARK    1  A    between atoms: C_1  and  C_2
REMARK    2  A    between atoms: C_2  and  C_3
REMARK    3  A    between atoms: C_3  and  N_4
REMARK    4  A    between atoms: C_8  and  C_9
REMARK    5  A    between atoms: C_13  and  O_14
REMARK                            x       y       z     vdW  Elec       q    Type
REMARK                         _______ _______ _______ _____ _____    ______ ____
ROOT
ATOM      1  N   UNL     1       6.470   5.497  17.782  0.00  0.00    +0.000 NA
ATOM      2  C   UNL     1       6.756   4.531  16.694  0.00  0.00    +0.000 C 
ATOM      3  C   UNL     1       5.519   4.348  15.811  0.00  0.00    +0.000 C 
ATOM      4  C   UNL     1       4.373   3.793  16.647  0.00  0.00    +0.000 C 
ATOM      5  C   UNL     1       4.084   4.732  17.831  0.00  0.00    +0.000 C 
ATOM      6  C   UNL     1       5.376   4.984  18.643  0.00  0.00    +0.000 C 
ENDROOT
BRANCH   5   7
ATOM      7  C   UNL     1       2.990   4.142  18.707  0.00  0.00    +0.000 A 
ATOM      8  C   UNL     1       1.727   3.842  18.171  0.00  0.00    +0.000 A 
ATOM      9  C   UNL     1       0.729   3.285  18.980  0.00  0.00    +0.000 A 
ATOM     10  C   UNL     1       0.982   3.024  20.328  0.00  0.00    +0.000 A 
ATOM     11  C   UNL     1       2.236   3.320  20.878  0.00  0.00    +0.000 A 
ATOM     12  C   UNL     1       3.233   3.875  20.071  0.00  0.00    +0.000 A 
BRANCH  11  13
ATOM     13  O   UNL     1       2.498   3.072  22.178  0.00  0.00    +0.000 OA
ATOM     14  H   UNL     1       3.256   2.542  22.460  0.00  0.00    +0.000 HD
ENDBRANCH  11  13
ENDBRANCH   5   7
BRANCH   1  15
ATOM     15  C   UNL     1       7.665   5.753  18.624  0.00  0.00    +0.000 C 
BRANCH  15  17
ATOM     16  C   UNL     1       7.549   8.001  17.426  0.00  0.00    +0.000 C 
ATOM     17  C   UNL     1       8.168   7.210  18.575  0.00  0.00    +0.000 C 
ENDBRANCH  15  17
ENDBRANCH   1  15
TORSDOF 4
ENDMDL
MODEL 3
REMARK VINA RESULT:      -6.9      1.689      2.891
REMARK  Name = 
REMARK  5 active torsions:
REMARK  status: ('A' for Active; 'I' for Inactive)
REMARK    1  A    between atoms: C_1  and  C_2
REMARK    2  A    between atoms: C_2  and  C_3
REMARK    3  A    between atoms: C_3  and  N_4
REMARK    4  A    between atoms: C_8  and  C_9
REMARK    5  A    between atoms: C_13  and  O_14
REMARK                            x       y       z     vdW  Elec       q    Type
REMARK                         _______ _______ _______ _____ _____    ______ ____
ROOT
ATOM      1  N   UNL     1       5.751   4.674  16.286  0.00  0.00    +0.000 NA
ATOM      2  C   UNL     1       5.310   5.991  15.769  0.00  0.00    +0.000 C 
ATOM      3  C   UNL     1       4.952   6.922  16.931  0.00  0.00    +0.000 C 
ATOM      4  C   UNL     1       3.804   6.319  17.733  0.00  0.00    +0.000 C 
ATOM      5  C   UNL     1       4.194   4.918  18.234  0.00  0.00    +0.000 C 
ATOM      6  C   UNL     1       4.653   4.034  17.052  0.00  0.00    +0.000 C 
ENDROOT
BRANCH   5   7
ATOM      7  C   UNL     1       3.023   4.286  18.970  0.00  0.00    +0.000 A 
ATOM      8  C   UNL     1       2.745   4.632  20.304  0.00  0.00    +0.000 A 
ATOM      9  C   UNL     1       1.656   4.057  20.972  0.00  0.00    +0.000 A 
ATOM     10  C   UNL     1       0.838   3.135  20.317  0.00  0.00    +0.000 A 
ATOM     11  C   UNL     1       1.103   2.778  18.988  0.00  0.00    +0.000 A 
ATOM     12  C   UNL     1       2.189   3.353  18.320  0.00  0.00    +0.000 A 
BRANCH  11  13
ATOM     13  O   UNL     1       0.322   1.891  18.339  0.00  0.00    +0.000 OA
ATOM     14  H   UNL     1      -0.302   1.315  18.804  0.00  0.00    +0.000 HD
ENDBRANCH  11  13
ENDBRANCH   5   7
BRANCH   1  15
ATOM     15  C   UNL     1       6.171   3.762  15.194  0.00  0.00    +0.000 C 
BRANCH  15  17
ATOM     16  C   UNL     1       6.333   3.533  12.660  0.00  0.00    +0.000 C 
ATOM     17  C   UNL     1       5.516   4.067  13.833  0.00  0.00    +0.000 C 
ENDBRANCH  15  17
ENDBRANCH   1  15
TORSDOF 4
ENDMDL
MODEL 4
REMARK VINA RESULT:      -6.9      1.623      3.161
REMARK  Name = 
REMARK  5 active torsions:
REMARK  status: ('A' for Active; 'I' for Inactive)
REMARK    1  A    between atoms: C_1  and  C_2
REMARK    2  A    between atoms: C_2  and  C_3
REMARK    3  A    between atoms: C_3  and  N_4
REMARK    4  A    between atoms: C_8  and  C_9
REMARK    5  A    between atoms: C_13  and  O_14
REMARK                            x       y       z     vdW  Elec       q    Type
REMARK                         _______ _______ _______ _____ _____    ______ ____
ROOT
ATOM      1  N   UNL     1       6.803   4.545  16.696  0.00  0.00    +0.000 NA
ATOM      2  C   UNL     1       7.216   5.786  17.393  0.00  0.00    +0.000 C 
ATOM      3  C   UNL     1       7.148   5.588  18.910  0.00  0.00    +0.000 C 
ATOM      4  C   UNL     1       5.715   5.270  19.319  0.00  0.00    +0.000 C 
ATOM      5  C   UNL     1       5.219   4.023  18.567  0.00  0.00    +0.000 C 
ATOM      6  C   UNL     1       5.400   4.209  17.042  0.00  0.00    +0.000 C 
ENDROOT
BRANCH   5   7
ATOM      7  C   UNL     1       3.765   3.748  18.918  0.00  0.00    +0.000 A 
ATOM      8  C   UNL     1       2.754   3.908  17.956  0.00  0.00    +0.000 A 
ATOM      9  C   UNL     1       1.419   3.639  18.282  0.00  0.00    +0.000 A 
ATOM     10  C   UNL     1       1.082   3.210  19.567  0.00  0.00    +0.000 A 
ATOM     11  C   UNL     1       2.079   3.049  20.538  0.00  0.00    +0.000 A 
ATOM     12  C   UNL     1       3.412   3.316  20.213  0.00  0.00    +0.000 A 
BRANCH  11  13
ATOM     13  O   UNL     1       1.771   2.634  21.784  0.00  0.00    +0.000 OA
ATOM     14  H   UNL     1       2.303   1.978  22.256  0.00  0.00    +0.000 HD
ENDBRANCH  11  13
ENDBRANCH   5   7
BRANCH   1  15
ATOM     15  C   UNL     1       6.918   4.671  15.222  0.00  0.00    +0.000 C 
BRANCH  15  17
ATOM     16  C   UNL     1       5.953   3.638  13.101  0.00  0.00    +0.000 C 
ATOM     17  C   UNL     1       5.643   4.271  14.455  0.00  0.00    +0.000 C 
ENDBRANCH  15  17
ENDBRANCH   1  15
TORSDOF 4
ENDMDL
MODEL 5
REMARK VINA RESULT:      -6.8      2.135      3.395
REMARK  Name = 
REMARK  5 active torsions:
REMARK  status: ('A' for Active; 'I' for Inactive)
REMARK    1  A    between atoms: C_1  and  C_2
REMARK    2  A    between atoms: C_2  and  C_3
REMARK    3  A    between atoms: C_3  and  N_4
REMARK    4  A    between atoms: C_8  and  C_9
REMARK    5  A    between atoms: C_13  and  O_14
REMARK                            x       y       z     vdW  Elec       q    Type
REMARK                         _______ _______ _______ _____ _____    ______ ____
ROOT
ATOM      1  N   UNL     1       5.835   4.645  16.003  0.00  0.00    +0.000 NA
ATOM      2  C   UNL     1       5.331   5.961  15.542  0.00  0.00    +0.000 C 
ATOM      3  C   UNL     1       4.971   6.839  16.743  0.00  0.00    +0.000 C 
ATOM      4  C   UNL     1       3.870   6.168  17.554  0.00  0.00    +0.000 C 
ATOM      5  C   UNL     1       4.325   4.768  17.999  0.00  0.00    +0.000 C 
ATOM      6  C   UNL     1       4.784   3.939  16.776  0.00  0.00    +0.000 C 
ENDROOT
BRANCH   5   7
ATOM      7  C   UNL     1       3.199   4.068  18.745  0.00  0.00    +0.000 A 
ATOM      8  C   UNL     1       2.002   3.737  18.088  0.00  0.00    +0.000 A 
ATOM      9  C   UNL     1       0.975   3.081  18.777  0.00  0.00    +0.000 A 
ATOM     10  C   UNL     1       1.133   2.749  20.124  0.00  0.00    +0.000 A 
ATOM     11  C   UNL     1       2.320   3.074  20.794  0.00  0.00    +0.000 A 
ATOM     12  C   UNL     1       3.346   3.729  20.106  0.00  0.00    +0.000 A 
BRANCH  11  13
ATOM     13  O   UNL     1       2.490   2.760  22.094  0.00  0.00    +0.000 OA
ATOM     14  H   UNL     1       2.166   1.930  22.472  0.00  0.00    +0.000 HD
ENDBRANCH  11  13
ENDBRANCH   5   7
BRANCH   1  15
ATOM     15  C   UNL     1       6.258   3.785  14.870  0.00  0.00    +0.000 C 
BRANCH  15  17
ATOM     16  C   UNL     1       6.140   3.382  12.356  0.00  0.00    +0.000 C 
ATOM     17  C   UNL     1       5.476   4.033  13.566  0.00  0.00    +0.000 C 
ENDBRANCH  15  17
ENDBRANCH   1  15
TORSDOF 4
ENDMDL
MODEL 6
REMARK VINA RESULT:      -6.8      1.506      1.986
REMARK  Name = 
REMARK  5 active torsions:
REMARK  status: ('A' for Active; 'I' for Inactive)
REMARK    1  A    between atoms: C_1  and  C_2
REMARK    2  A    between atoms: C_2  and  C_3
REMARK    3  A    between atoms: C_3  and  N_4
REMARK    4  A    between atoms: C_8  and  C_9
REMARK    5  A    between atoms: C_13  and  O_14
REMARK                            x       y       z     vdW  Elec       q    Type
REMARK                         _______ _______ _______ _____ _____    ______ ____
ROOT
ATOM      1  N   UNL     1       6.588   6.328  16.991  0.00  0.00    +0.000 NA
ATOM      2  C   UNL     1       7.121   5.160  16.250  0.00  0.00    +0.000 C 
ATOM      3  C   UNL     1       6.026   4.546  15.375  0.00  0.00    +0.000 C 
ATOM      4  C   UNL     1       4.879   4.064  16.254  0.00  0.00    +0.000 C 
ATOM      5  C   UNL     1       4.336   5.233  17.095  0.00  0.00    +0.000 C 
ATOM      6  C   UNL     1       5.484   5.902  17.887  0.00  0.00    +0.000 C 
ENDROOT
BRANCH   5   7
ATOM      7  C   UNL     1       3.241   4.738  18.027  0.00  0.00    +0.000 A 
ATOM      8  C   UNL     1       2.196   3.934  17.541  0.00  0.00    +0.000 A 
ATOM      9  C   UNL     1       1.199   3.470  18.408  0.00  0.00    +0.000 A 
ATOM     10  C   UNL     1       1.236   3.803  19.763  0.00  0.00    +0.000 A 
ATOM     11  C   UNL     1       2.270   4.605  20.262  0.00  0.00    +0.000 A 
ATOM     12  C   UNL     1       3.266   5.068  19.398  0.00  0.00    +0.000 A 
BRANCH  11  13
ATOM     13  O   UNL     1       2.321   4.935  21.569  0.00  0.00    +0.000 OA
ATOM     14  H   UNL     1       3.024   4.619  22.154  0.00  0.00    +0.000 HD
ENDBRANCH  11  13
ENDBRANCH   5   7
BRANCH   1  15
ATOM     15  C   UNL     1       7.636   6.995  17.803  0.00  0.00    +0.000 C 
BRANCH  15  17
ATOM     16  C   UNL     1       8.680   9.194  18.559  0.00  0.00    +0.000 C 
ATOM     17  C   UNL     1       7.750   8.512  17.560  0.00  0.00    +0.000 C 
ENDBRANCH  15  17
ENDBRANCH   1  15
TORSDOF 4
ENDMDL
MODEL 7
REMARK VINA RESULT:      -6.7      1.241      2.885
REMARK  Name = 
REMARK  5 active torsions:
REMARK  status: ('A' for Active; 'I' for Inactive)
REMARK    1  A    between atoms: C_1  and  C_2
REMARK    2  A    between atoms: C_2  and  C_3
REMARK    3  A    between atoms: C_3  and  N_4
REMARK    4  A    between atoms: C_8  and  C_9
REMARK    5  A    between atoms: C_13  and  O_14
REMARK                            x       y       z     vdW  Elec       q    Type
REMARK                         _______ _______ _______ _____ _____    ______ ____
ROOT
ATOM      1  N   UNL     1       6.530   4.709  16.383  0.00  0.00    +0.000 NA
ATOM      2  C   UNL     1       7.183   5.809  17.132  0.00  0.00    +0.000 C 
ATOM      3  C   UNL     1       7.278   5.452  18.618  0.00  0.00    +0.000 C 
ATOM      4  C   UNL     1       5.878   5.258  19.187  0.00  0.00    +0.000 C 
ATOM      5  C   UNL     1       5.135   4.169  18.394  0.00  0.00    +0.000 C 
ATOM      6  C   UNL     1       5.148   4.502  16.884  0.00  0.00    +0.000 C 
ENDROOT
BRANCH   5   7
ATOM      7  C   UNL     1       3.713   4.027  18.913  0.00  0.00    +0.000 A 
ATOM      8  C   UNL     1       3.224   4.892  19.907  0.00  0.00    +0.000 A 
ATOM      9  C   UNL     1       1.908   4.765  20.370  0.00  0.00    +0.000 A 
ATOM     10  C   UNL     1       1.072   3.776  19.847  0.00  0.00    +0.000 A 
ATOM     11  C   UNL     1       1.546   2.905  18.858  0.00  0.00    +0.000 A 
ATOM     12  C   UNL     1       2.858   3.032  18.394  0.00  0.00    +0.000 A 
BRANCH  11  13
ATOM     13  O   UNL     1       0.751   1.946  18.341  0.00  0.00    +0.000 OA
ATOM     14  H   UNL     1       0.315   2.043  17.483  0.00  0.00    +0.000 HD
ENDBRANCH  11  13
ENDBRANCH   5   7
BRANCH   1  15
ATOM     15  C   UNL     1       6.477   4.986  14.926  0.00  0.00    +0.000 C 
BRANCH  15  17
ATOM     16  C   UNL     1       6.204   3.592  12.809  0.00  0.00    +0.000 C 
ATOM     17  C   UNL     1       5.577   4.017  14.134  0.00  0.00    +0.000 C 
ENDBRANCH  15  17
ENDBRANCH   1  15
TORSDOF 4
ENDMDL
MODEL 8
REMARK VINA RESULT:      -6.6      2.093      3.566
REMARK  Name = 
REMARK  5 active torsions:
REMARK  status: ('A' for Active; 'I' for Inactive)
REMARK    1  A    between atoms: C_1  and  C_2
REMARK    2  A    between atoms: C_2  and  C_3
REMARK    3  A    between atoms: C_3  and  N_4
REMARK    4  A    between atoms: C_8  and  C_9
REMARK    5  A    between atoms: C_13  and  O_14
REMARK                            x       y       z     vdW  Elec       q    Type
REMARK                         _______ _______ _______ _____ _____    ______ ____
ROOT
ATOM      1  N   UNL     1       5.797   4.107  15.899  0.00  0.00    +0.000 NA
ATOM      2  C   UNL     1       6.809   5.076  16.383  0.00  0.00    +0.000 C 
ATOM      3  C   UNL     1       7.170   4.779  17.841  0.00  0.00    +0.000 C 
ATOM      4  C   UNL     1       5.928   4.917  18.713  0.00  0.00    +0.000 C 
ATOM      5  C   UNL     1       4.823   3.975  18.205  0.00  0.00    +0.000 C 
ATOM      6  C   UNL     1       4.554   4.225  16.702  0.00  0.00    +0.000 C 
ENDROOT
BRANCH   5   7
ATOM      7  C   UNL     1       3.558   4.167  19.028  0.00  0.00    +0.000 A 
ATOM      8  C   UNL     1       2.662   3.102  19.221  0.00  0.00    +0.000 A 
ATOM      9  C   UNL     1       1.507   3.281  19.992  0.00  0.00    +0.000 A 
ATOM     10  C   UNL     1       1.236   4.520  20.575  0.00  0.00    +0.000 A 
ATOM     11  C   UNL     1       2.119   5.593  20.389  0.00  0.00    +0.000 A 
ATOM     12  C   UNL     1       3.273   5.414  19.621  0.00  0.00    +0.000 A 
BRANCH  11  13
ATOM     13  O   UNL     1       1.874   6.796  20.946  0.00  0.00    +0.000 OA
ATOM     14  H   UNL     1       2.390   7.136  21.690  0.00  0.00    +0.000 HD
ENDBRANCH  11  13
ENDBRANCH   5   7
BRANCH   1  15
ATOM     15  C   UNL     1       5.467   4.318  14.468  0.00  0.00    +0.000 C 
BRANCH  15  17
ATOM     16  C   UNL     1       6.175   3.400  12.198  0.00  0.00    +0.000 C 
ATOM     17  C   UNL     1       6.637   4.038  13.505  0.00  0.00    +0.000 C 
ENDBRANCH  15  17
ENDBRANCH   1  15
TORSDOF 4
ENDMDL
MODEL 9
REMARK VINA RESULT:      -6.5      1.701      3.150
REMARK  Name = 
REMARK  5 active torsions:
REMARK  status: ('A' for Active; 'I' for Inactive)
REMARK    1  A    between atoms: C_1  and  C_2
REMARK    2  A    between atoms: C_2  and  C_3
REMARK    3  A    between atoms: C_3  and  N_4
REMARK    4  A    between atoms: C_8  and  C_9
REMARK    5  A    between atoms: C_13  and  O_14
REMARK                            x       y       z     vdW  Elec       q    Type
REMARK                         _______ _______ _______ _____ _____    ______ ____
ROOT
ATOM      1  N   UNL     1       7.093   4.759  16.178  0.00  0.00    +0.000 NA
ATOM      2  C   UNL     1       7.365   6.074  16.805  0.00  0.00    +0.000 C 
ATOM      3  C   UNL     1       7.353   5.945  18.331  0.00  0.00    +0.000 C 
ATOM      4  C   UNL     1       5.979   5.476  18.793  0.00  0.00    +0.000 C 
ATOM      5  C   UNL     1       5.624   4.142  18.113  0.00  0.00    +0.000 C 
ATOM      6  C   UNL     1       5.749   4.273  16.577  0.00  0.00    +0.000 C 
ENDROOT
BRANCH   5   7
ATOM      7  C   UNL     1       4.222   3.711  18.516  0.00  0.00    +0.000 A 
ATOM      8  C   UNL     1       4.011   2.970  19.691  0.00  0.00    +0.000 A 
ATOM      9  C   UNL     1       2.717   2.588  20.064  0.00  0.00    +0.000 A 
ATOM     10  C   UNL     1       1.624   2.941  19.269  0.00  0.00    +0.000 A 
ATOM     11  C   UNL     1       1.819   3.678  18.093  0.00  0.00    +0.000 A 
ATOM     12  C   UNL     1       3.111   4.060  17.721  0.00  0.00    +0.000 A 
BRANCH  11  13
ATOM     13  O   UNL     1       0.775   4.028  17.315  0.00  0.00    +0.000 OA
ATOM     14  H   UNL     1      -0.015   3.475  17.230  0.00  0.00    +0.000 HD
ENDBRANCH  11  13
ENDBRANCH   5   7
BRANCH   1  15
ATOM     15  C   UNL     1       7.161   4.825  14.698  0.00  0.00    +0.000 C 
BRANCH  15  17
ATOM     16  C   UNL     1       6.462   3.694  12.522  0.00  0.00    +0.000 C 
ATOM     17  C   UNL     1       6.102   3.966  13.980  0.00  0.00    +0.000 C 
ENDBRANCH  15  17
ENDBRANCH   1  15
TORSDOF 4
ENDMDL
