MODEL 1
REMARK VINA RESULT:      -8.5      0.000      0.000
REMARK  Name = 
REMARK  10 active torsions:
REMARK  status: ('A' for Active; 'I' for Inactive)
REMARK    1  A    between atoms: C_1  and  C_2
REMARK    2  A    between atoms: C_2  and  C_3
REMARK    3  A    between atoms: C_4  and  C_5
REMARK    4  A    between atoms: C_5  and  N_6
REMARK    5  A    between atoms: N_9  and  C_10
REMARK    6  A    between atoms: C_10  and  C_11
REMARK    7  A    between atoms: C_11  and  C_13
REMARK    8  A    between atoms: C_13  and  O_14
REMARK    9  A    between atoms: C_13  and  C_15
REMARK   10  A    between atoms: C_13  and  C_21
REMARK                            x       y       z     vdW  Elec       q    Type
REMARK                         _______ _______ _______ _____ _____    ______ ____
ROOT
ATOM      1  C   UNL     1       3.831   4.294  19.847  0.00  0.00    +0.000 C 
ATOM      2  O   UNL     1       3.993   3.119  20.195  0.00  0.00    +0.000 OA
ENDROOT
BRANCH   1   3
ATOM      3  C   UNL     1       4.891   5.114  19.110  0.00  0.00    +0.000 C 
BRANCH   3   7
ATOM      4  N   UNL     1       6.198   5.742  15.619  0.00  0.00    +0.000 NA
ATOM      5  C   UNL     1       4.958   5.011  15.976  0.00  0.00    +0.000 C 
ATOM      6  C   UNL     1       5.138   3.888  17.035  0.00  0.00    +0.000 C 
ATOM      7  N   UNL     1       5.818   4.312  18.280  0.00  0.00    +0.000 NA
ATOM      8  C   UNL     1       7.050   5.043  17.912  0.00  0.00    +0.000 C 
ATOM      9  C   UNL     1       6.866   6.167  16.868  0.00  0.00    +0.000 C 
BRANCH   4  10
ATOM     10  C   UNL     1       7.057   4.893  14.786  0.00  0.00    +0.000 C 
BRANCH  10  14
ATOM     11  C   UNL     1       5.750   2.628  11.875  0.00  0.00    +0.000 C 
ATOM     12  C   UNL     1       6.455   3.749  12.586  0.00  0.00    +0.000 C 
ATOM     13  C   UNL     1       7.329   4.625  11.732  0.00  0.00    +0.000 C 
ATOM     14  C   UNL     1       6.305   3.918  13.916  0.00  0.00    +0.000 C 
ENDBRANCH  10  14
ENDBRANCH   4  10
ENDBRANCH   3   7
ENDBRANCH   1   3
BRANCH   1  15
ATOM     15  C   UNL     1       2.473   5.024  20.115  0.00  0.00    +0.000 C 
BRANCH  15  16
ATOM     16  C   UNL     1       2.424   6.388  19.410  0.00  0.00    +0.000 A 
ATOM     17  C   UNL     1       2.912   6.559  18.101  0.00  0.00    +0.000 A 
ATOM     18  C   UNL     1       2.875   7.805  17.470  0.00  0.00    +0.000 A 
ATOM     19  C   UNL     1       2.343   8.907  18.129  0.00  0.00    +0.000 A 
ATOM     20  C   UNL     1       1.842   8.763  19.419  0.00  0.00    +0.000 A 
ATOM     21  C   UNL     1       1.873   7.516  20.049  0.00  0.00    +0.000 A 
ENDBRANCH  15  16
BRANCH  15  22
ATOM     22  C   UNL     1       1.314   4.132  19.627  0.00  0.00    +0.000 C 
ATOM     23  C   UNL     1       1.566   3.436  18.259  0.00  0.00    +0.000 C 
ATOM     24  C   UNL     1       0.855   2.189  18.798  0.00  0.00    +0.000 C 
ATOM     25  C   UNL     1       1.083   2.717  20.226  0.00  0.00    +0.000 C 
ENDBRANCH  15  22
BRANCH  15  26
ATOM     26  O   UNL     1       2.317   5.219  21.530  0.00  0.00    +0.000 OA
ATOM     27  H   UNL     1       1.367   5.200  21.735  0.00  0.00    +0.000 HD
ENDBRANCH  15  26
ENDBRANCH   1  15
TORSDOF 8
ENDMDL
MODEL 2
REMARK VINA RESULT:      -8.2      0.474      1.059
REMARK  Name = 
REMARK  10 active torsions:
REMARK  status: ('A' for Active; 'I' for Inactive)
REMARK    1  A    between atoms: C_1  and  C_2
REMARK    2  A    between atoms: C_2  and  C_3
REMARK    3  A    between atoms: C_4  and  C_5
REMARK    4  A    between atoms: C_5  and  N_6
REMARK    5  A    between atoms: N_9  and  C_10
REMARK    6  A    between atoms: C_10  and  C_11
REMARK    7  A    between atoms: C_11  and  C_13
REMARK    8  A    between atoms: C_13  and  O_14
REMARK    9  A    between atoms: C_13  and  C_15
REMARK   10  A    between atoms: C_13  and  C_21
REMARK                            x       y       z     vdW  Elec       q    Type
REMARK                         _______ _______ _______ _____ _____    ______ ____
ROOT
ATOM      1  C   UNL     1       3.832   4.598  19.729  0.00  0.00    +0.000 C 
ATOM      2  O   UNL     1       4.060   3.397  19.913  0.00  0.00    +0.000 OA
ENDROOT
BRANCH   1   3
ATOM      3  C   UNL     1       4.858   5.578  19.159  0.00  0.00    +0.000 C 
BRANCH   3   7
ATOM      4  N   UNL     1       5.441   5.504  15.425  0.00  0.00    +0.000 NA
ATOM      5  C   UNL     1       4.645   4.531  16.210  0.00  0.00    +0.000 C 
ATOM      6  C   UNL     1       5.369   3.937  17.450  0.00  0.00    +0.000 C 
ATOM      7  N   UNL     1       5.942   4.943  18.375  0.00  0.00    +0.000 NA
ATOM      8  C   UNL     1       6.729   5.909  17.581  0.00  0.00    +0.000 C 
ATOM      9  C   UNL     1       6.003   6.507  16.355  0.00  0.00    +0.000 C 
BRANCH   4  10
ATOM     10  C   UNL     1       6.482   4.802  14.665  0.00  0.00    +0.000 C 
BRANCH  10  14
ATOM     11  C   UNL     1       5.843   2.433  11.616  0.00  0.00    +0.000 C 
ATOM     12  C   UNL     1       6.346   3.601  12.418  0.00  0.00    +0.000 C 
ATOM     13  C   UNL     1       7.308   4.518  11.713  0.00  0.00    +0.000 C 
ATOM     14  C   UNL     1       5.953   3.776  13.696  0.00  0.00    +0.000 C 
ENDBRANCH  10  14
ENDBRANCH   4  10
ENDBRANCH   3   7
ENDBRANCH   1   3
BRANCH   1  15
ATOM     15  C   UNL     1       2.421   5.199  20.043  0.00  0.00    +0.000 C 
BRANCH  15  16
ATOM     16  C   UNL     1       2.267   6.605  19.443  0.00  0.00    +0.000 A 
ATOM     17  C   UNL     1       1.798   7.686  20.211  0.00  0.00    +0.000 A 
ATOM     18  C   UNL     1       1.649   8.959  19.655  0.00  0.00    +0.000 A 
ATOM     19  C   UNL     1       1.974   9.183  18.323  0.00  0.00    +0.000 A 
ATOM     20  C   UNL     1       2.454   8.134  17.545  0.00  0.00    +0.000 A 
ATOM     21  C   UNL     1       2.607   6.861  18.100  0.00  0.00    +0.000 A 
ENDBRANCH  15  16
BRANCH  15  22
ATOM     22  C   UNL     1       1.335   4.260  19.482  0.00  0.00    +0.000 C 
ATOM     23  C   UNL     1       1.790   3.396  18.270  0.00  0.00    +0.000 C 
ATOM     24  C   UNL     1       0.967   2.231  18.832  0.00  0.00    +0.000 C 
ATOM     25  C   UNL     1       0.971   2.932  20.203  0.00  0.00    +0.000 C 
ENDBRANCH  15  22
BRANCH  15  26
ATOM     26  O   UNL     1       2.250   5.273  21.468  0.00  0.00    +0.000 OA
ATOM     27  H   UNL     1       1.706   6.054  21.667  0.00  0.00    +0.000 HD
ENDBRANCH  15  26
ENDBRANCH   1  15
TORSDOF 8
ENDMDL
MODEL 3
REMARK VINA RESULT:      -8.1      1.201      1.880
REMARK  Name = 
REMARK  10 active torsions:
REMARK  status: ('A' for Active; 'I' for Inactive)
REMARK    1  A    between atoms: C_1  and  C_2
REMARK    2  A    between atoms: C_2  and  C_3
REMARK    3  A    between atoms: C_4  and  C_5
REMARK    4  A    between atoms: C_5  and  N_6
REMARK    5  A    between atoms: N_9  and  C_10
REMARK    6  A    between atoms: C_10  and  C_11
REMARK    7  A    between atoms: C_11  and  C_13
REMARK    8  A    between atoms: C_13  and  O_14
REMARK    9  A    between atoms: C_13  and  C_15
REMARK   10  A    between atoms: C_13  and  C_21
REMARK                            x       y       z     vdW  Elec       q    Type
REMARK                         _______ _______ _______ _____ _____    ______ ____
ROOT
ATOM      1  C   UNL     1       5.063   5.132  19.257  0.00  0.00    +0.000 C 
ATOM      2  O   UNL     1       5.864   4.856  20.157  0.00  0.00    +0.000 OA
ENDROOT
BRANCH   1   3
ATOM      3  C   UNL     1       5.480   5.460  17.823  0.00  0.00    +0.000 C 
BRANCH   3   7
ATOM      4  N   UNL     1       6.644   5.210  14.235  0.00  0.00    +0.000 NA
ATOM      5  C   UNL     1       5.268   5.521  14.694  0.00  0.00    +0.000 C 
ATOM      6  C   UNL     1       4.682   4.526  15.734  0.00  0.00    +0.000 C 
ATOM      7  N   UNL     1       5.539   4.290  16.919  0.00  0.00    +0.000 NA
ATOM      8  C   UNL     1       6.908   3.986  16.449  0.00  0.00    +0.000 C 
ATOM      9  C   UNL     1       7.493   4.983  15.424  0.00  0.00    +0.000 C 
BRANCH   4  10
ATOM     10  C   UNL     1       6.621   4.052  13.334  0.00  0.00    +0.000 C 
BRANCH  10  14
ATOM     11  C   UNL     1       3.736   2.988  10.914  0.00  0.00    +0.000 C 
ATOM     12  C   UNL     1       5.050   2.964  11.644  0.00  0.00    +0.000 C 
ATOM     13  C   UNL     1       5.886   1.729  11.453  0.00  0.00    +0.000 C 
ATOM     14  C   UNL     1       5.417   3.997  12.429  0.00  0.00    +0.000 C 
ENDBRANCH  10  14
ENDBRANCH   4  10
ENDBRANCH   3   7
ENDBRANCH   1   3
BRANCH   1  15
ATOM     15  C   UNL     1       3.522   5.127  19.532  0.00  0.00    +0.000 C 
BRANCH  15  16
ATOM     16  C   UNL     1       2.891   6.488  19.200  0.00  0.00    +0.000 A 
ATOM     17  C   UNL     1       2.088   7.174  20.130  0.00  0.00    +0.000 A 
ATOM     18  C   UNL     1       1.507   8.405  19.817  0.00  0.00    +0.000 A 
ATOM     19  C   UNL     1       1.723   8.983  18.572  0.00  0.00    +0.000 A 
ATOM     20  C   UNL     1       2.524   8.333  17.639  0.00  0.00    +0.000 A 
ATOM     21  C   UNL     1       3.109   7.103  17.952  0.00  0.00    +0.000 A 
ENDBRANCH  15  16
BRANCH  15  22
ATOM     22  C   UNL     1       2.863   4.016  18.691  0.00  0.00    +0.000 C 
ATOM     23  C   UNL     1       2.290   2.831  19.522  0.00  0.00    +0.000 C 
ATOM     24  C   UNL     1       1.106   2.763  18.549  0.00  0.00    +0.000 C 
ATOM     25  C   UNL     1       1.439   4.197  18.096  0.00  0.00    +0.000 C 
ENDBRANCH  15  22
BRANCH  15  26
ATOM     26  O   UNL     1       3.295   4.827  20.919  0.00  0.00    +0.000 OA
ATOM     27  H   UNL     1       2.334   4.817  21.072  0.00  0.00    +0.000 HD
ENDBRANCH  15  26
ENDBRANCH   1  15
TORSDOF 8
ENDMDL
MODEL 4
REMARK VINA RESULT:      -8.0      4.091      8.660
REMARK  Name = 
REMARK  10 active torsions:
REMARK  status: ('A' for Active; 'I' for Inactive)
REMARK    1  A    between atoms: C_1  and  C_2
REMARK    2  A    between atoms: C_2  and  C_3
REMARK    3  A    between atoms: C_4  and  C_5
REMARK    4  A    between atoms: C_5  and  N_6
REMARK    5  A    between atoms: N_9  and  C_10
REMARK    6  A    between atoms: C_10  and  C_11
REMARK    7  A    between atoms: C_11  and  C_13
REMARK    8  A    between atoms: C_13  and  O_14
REMARK    9  A    between atoms: C_13  and  C_15
REMARK   10  A    between atoms: C_13  and  C_21
REMARK                            x       y       z     vdW  Elec       q    Type
REMARK                         _______ _______ _______ _____ _____    ______ ____
ROOT
ATOM      1  C   UNL     1       2.461   7.247  18.958  0.00  0.00    +0.000 C 
ATOM      2  O   UNL     1       2.721   7.977  17.996  0.00  0.00    +0.000 OA
ENDROOT
BRANCH   1   3
ATOM      3  C   UNL     1       1.950   7.766  20.303  0.00  0.00    +0.000 C 
BRANCH   3   7
ATOM      4  N   UNL     1       0.514  10.721  22.173  0.00  0.00    +0.000 NA
ATOM      5  C   UNL     1       0.518   9.309  22.628  0.00  0.00    +0.000 C 
ATOM      6  C   UNL     1      -0.032   8.284  21.597  0.00  0.00    +0.000 C 
ATOM      7  N   UNL     1       0.593   8.356  20.256  0.00  0.00    +0.000 NA
ATOM      8  C   UNL     1       0.587   9.768  19.815  0.00  0.00    +0.000 C 
ATOM      9  C   UNL     1       1.146  10.783  20.837  0.00  0.00    +0.000 C 
BRANCH   4  10
ATOM     10  C   UNL     1      -0.858  11.240  22.167  0.00  0.00    +0.000 C 
BRANCH  10  14
ATOM     11  C   UNL     1      -1.964  14.507  24.017  0.00  0.00    +0.000 C 
ATOM     12  C   UNL     1      -2.038  13.138  23.399  0.00  0.00    +0.000 C 
ATOM     13  C   UNL     1      -3.319  12.383  23.621  0.00  0.00    +0.000 C 
ATOM     14  C   UNL     1      -0.991  12.640  22.710  0.00  0.00    +0.000 C 
ENDBRANCH  10  14
ENDBRANCH   4  10
ENDBRANCH   3   7
ENDBRANCH   1   3
BRANCH   1  15
ATOM     15  C   UNL     1       2.609   5.693  18.843  0.00  0.00    +0.000 C 
BRANCH  15  16
ATOM     16  C   UNL     1       4.022   5.299  18.385  0.00  0.00    +0.000 A 
ATOM     17  C   UNL     1       4.238   4.583  17.193  0.00  0.00    +0.000 A 
ATOM     18  C   UNL     1       5.524   4.217  16.790  0.00  0.00    +0.000 A 
ATOM     19  C   UNL     1       6.625   4.567  17.563  0.00  0.00    +0.000 A 
ATOM     20  C   UNL     1       6.441   5.287  18.739  0.00  0.00    +0.000 A 
ATOM     21  C   UNL     1       5.155   5.657  19.142  0.00  0.00    +0.000 A 
ENDBRANCH  15  16
BRANCH  15  22
ATOM     22  C   UNL     1       2.295   5.052  20.209  0.00  0.00    +0.000 C 
ATOM     23  C   UNL     1       0.897   4.372  20.297  0.00  0.00    +0.000 C 
ATOM     24  C   UNL     1       1.528   3.261  21.146  0.00  0.00    +0.000 C 
ATOM     25  C   UNL     1       2.910   3.684  20.615  0.00  0.00    +0.000 C 
ENDBRANCH  15  22
BRANCH  15  26
ATOM     26  O   UNL     1       1.651   5.201  17.891  0.00  0.00    +0.000 OA
ATOM     27  H   UNL     1       1.438   4.281  18.125  0.00  0.00    +0.000 HD
ENDBRANCH  15  26
ENDBRANCH   1  15
TORSDOF 8
ENDMDL
MODEL 5
REMARK VINA RESULT:      -7.9      4.099      8.853
REMARK  Name = 
REMARK  10 active torsions:
REMARK  status: ('A' for Active; 'I' for Inactive)
REMARK    1  A    between atoms: C_1  and  C_2
REMARK    2  A    between atoms: C_2  and  C_3
REMARK    3  A    between atoms: C_4  and  C_5
REMARK    4  A    between atoms: C_5  and  N_6
REMARK    5  A    between atoms: N_9  and  C_10
REMARK    6  A    between atoms: C_10  and  C_11
REMARK    7  A    between atoms: C_11  and  C_13
REMARK    8  A    between atoms: C_13  and  O_14
REMARK    9  A    between atoms: C_13  and  C_15
REMARK   10  A    between atoms: C_13  and  C_21
REMARK                            x       y       z     vdW  Elec       q    Type
REMARK                         _______ _______ _______ _____ _____    ______ ____
ROOT
ATOM      1  C   UNL     1       2.355   7.250  18.856  0.00  0.00    +0.000 C 
ATOM      2  O   UNL     1       2.029   7.727  17.763  0.00  0.00    +0.000 OA
ENDROOT
BRANCH   1   3
ATOM      3  C   UNL     1       1.930   7.844  20.200  0.00  0.00    +0.000 C 
BRANCH   3   7
ATOM      4  N   UNL     1       0.553  10.774  22.153  0.00  0.00    +0.000 NA
ATOM      5  C   UNL     1       0.579   9.357  22.592  0.00  0.00    +0.000 C 
ATOM      6  C   UNL     1      -0.005   8.341  21.571  0.00  0.00    +0.000 C 
ATOM      7  N   UNL     1       0.571   8.430  20.209  0.00  0.00    +0.000 NA
ATOM      8  C   UNL     1       0.544   9.846  19.784  0.00  0.00    +0.000 C 
ATOM      9  C   UNL     1       1.136  10.852  20.796  0.00  0.00    +0.000 C 
BRANCH   4  10
ATOM     10  C   UNL     1      -0.820  11.288  22.203  0.00  0.00    +0.000 C 
BRANCH  10  14
ATOM     11  C   UNL     1      -1.922  14.539  24.083  0.00  0.00    +0.000 C 
ATOM     12  C   UNL     1      -2.004  13.188  23.426  0.00  0.00    +0.000 C 
ATOM     13  C   UNL     1      -3.316  12.467  23.565  0.00  0.00    +0.000 C 
ATOM     14  C   UNL     1      -0.939  12.677  22.775  0.00  0.00    +0.000 C 
ENDBRANCH  10  14
ENDBRANCH   4  10
ENDBRANCH   3   7
ENDBRANCH   1   3
BRANCH   1  15
ATOM     15  C   UNL     1       3.218   5.947  18.933  0.00  0.00    +0.000 C 
BRANCH  15  16
ATOM     16  C   UNL     1       2.463   4.819  19.653  0.00  0.00    +0.000 A 
ATOM     17  C   UNL     1       1.415   4.117  19.028  0.00  0.00    +0.000 A 
ATOM     18  C   UNL     1       0.725   3.101  19.693  0.00  0.00    +0.000 A 
ATOM     19  C   UNL     1       1.071   2.757  20.994  0.00  0.00    +0.000 A 
ATOM     20  C   UNL     1       2.112   3.425  21.630  0.00  0.00    +0.000 A 
ATOM     21  C   UNL     1       2.806   4.439  20.965  0.00  0.00    +0.000 A 
ENDBRANCH  15  16
BRANCH  15  22
ATOM     22  C   UNL     1       3.596   5.506  17.505  0.00  0.00    +0.000 C 
ATOM     23  C   UNL     1       4.873   6.189  16.935  0.00  0.00    +0.000 C 
ATOM     24  C   UNL     1       5.250   4.857  16.274  0.00  0.00    +0.000 C 
ATOM     25  C   UNL     1       4.292   4.142  17.243  0.00  0.00    +0.000 C 
ENDBRANCH  15  22
BRANCH  15  26
ATOM     26  O   UNL     1       4.433   6.230  19.646  0.00  0.00    +0.000 OA
ATOM     27  H   UNL     1       4.808   7.053  19.287  0.00  0.00    +0.000 HD
ENDBRANCH  15  26
ENDBRANCH   1  15
TORSDOF 8
ENDMDL
MODEL 6
REMARK VINA RESULT:      -7.9      0.782      1.567
REMARK  Name = 
REMARK  10 active torsions:
REMARK  status: ('A' for Active; 'I' for Inactive)
REMARK    1  A    between atoms: C_1  and  C_2
REMARK    2  A    between atoms: C_2  and  C_3
REMARK    3  A    between atoms: C_4  and  C_5
REMARK    4  A    between atoms: C_5  and  N_6
REMARK    5  A    between atoms: N_9  and  C_10
REMARK    6  A    between atoms: C_10  and  C_11
REMARK    7  A    between atoms: C_11  and  C_13
REMARK    8  A    between atoms: C_13  and  O_14
REMARK    9  A    between atoms: C_13  and  C_15
REMARK   10  A    between atoms: C_13  and  C_21
REMARK                            x       y       z     vdW  Elec       q    Type
REMARK                         _______ _______ _______ _____ _____    ______ ____
ROOT
ATOM      1  C   UNL     1       3.754   4.646  19.438  0.00  0.00    +0.000 C 
ATOM      2  O   UNL     1       3.991   3.435  19.367  0.00  0.00    +0.000 OA
ENDROOT
BRANCH   1   3
ATOM      3  C   UNL     1       4.710   5.727  18.933  0.00  0.00    +0.000 C 
BRANCH   3   7
ATOM      4  N   UNL     1       7.100   4.664  16.204  0.00  0.00    +0.000 NA
ATOM      5  C   UNL     1       7.166   5.919  16.991  0.00  0.00    +0.000 C 
ATOM      6  C   UNL     1       5.844   6.734  17.043  0.00  0.00    +0.000 C 
ATOM      7  N   UNL     1       4.655   5.962  17.473  0.00  0.00    +0.000 NA
ATOM      8  C   UNL     1       4.602   4.712  16.684  0.00  0.00    +0.000 C 
ATOM      9  C   UNL     1       5.915   3.898  16.645  0.00  0.00    +0.000 C 
BRANCH   4  10
ATOM     10  C   UNL     1       7.064   4.975  14.770  0.00  0.00    +0.000 C 
BRANCH  10  14
ATOM     11  C   UNL     1       5.712   2.616  11.956  0.00  0.00    +0.000 C 
ATOM     12  C   UNL     1       6.439   3.752  12.620  0.00  0.00    +0.000 C 
ATOM     13  C   UNL     1       7.329   4.574  11.730  0.00  0.00    +0.000 C 
ATOM     14  C   UNL     1       6.293   3.980  13.941  0.00  0.00    +0.000 C 
ENDBRANCH  10  14
ENDBRANCH   4  10
ENDBRANCH   3   7
ENDBRANCH   1   3
BRANCH   1  15
ATOM     15  C   UNL     1       2.401   5.161  20.032  0.00  0.00    +0.000 C 
BRANCH  15  16
ATOM     16  C   UNL     1       2.118   6.609  19.605  0.00  0.00    +0.000 A 
ATOM     17  C   UNL     1       1.828   7.612  20.549  0.00  0.00    +0.000 A 
ATOM     18  C   UNL     1       1.561   8.925  20.153  0.00  0.00    +0.000 A 
ATOM     19  C   UNL     1       1.586   9.267  18.806  0.00  0.00    +0.000 A 
ATOM     20  C   UNL     1       1.884   8.299  17.854  0.00  0.00    +0.000 A 
ATOM     21  C   UNL     1       2.156   6.986  18.249  0.00  0.00    +0.000 A 
ENDBRANCH  15  16
BRANCH  15  22
ATOM     22  C   UNL     1       1.259   4.237  19.565  0.00  0.00    +0.000 C 
ATOM     23  C   UNL     1       1.490   3.578  18.174  0.00  0.00    +0.000 C 
ATOM     24  C   UNL     1       0.842   2.295  18.710  0.00  0.00    +0.000 C 
ATOM     25  C   UNL     1       1.099   2.803  20.141  0.00  0.00    +0.000 C 
ENDBRANCH  15  22
BRANCH  15  26
ATOM     26  O   UNL     1       2.464   5.096  21.467  0.00  0.00    +0.000 OA
ATOM     27  H   UNL     1       1.669   5.527  21.824  0.00  0.00    +0.000 HD
ENDBRANCH  15  26
ENDBRANCH   1  15
TORSDOF 8
ENDMDL
MODEL 7
REMARK VINA RESULT:      -7.9      4.208      9.005
REMARK  Name = 
REMARK  10 active torsions:
REMARK  status: ('A' for Active; 'I' for Inactive)
REMARK    1  A    between atoms: C_1  and  C_2
REMARK    2  A    between atoms: C_2  and  C_3
REMARK    3  A    between atoms: C_4  and  C_5
REMARK    4  A    between atoms: C_5  and  N_6
REMARK    5  A    between atoms: N_9  and  C_10
REMARK    6  A    between atoms: C_10  and  C_11
REMARK    7  A    between atoms: C_11  and  C_13
REMARK    8  A    between atoms: C_13  and  O_14
REMARK    9  A    between atoms: C_13  and  C_15
REMARK   10  A    between atoms: C_13  and  C_21
REMARK                            x       y       z     vdW  Elec       q    Type
REMARK                         _______ _______ _______ _____ _____    ______ ____
ROOT
ATOM      1  C   UNL     1       2.210   7.589  18.790  0.00  0.00    +0.000 C 
ATOM      2  O   UNL     1       1.843   8.090  17.722  0.00  0.00    +0.000 OA
ENDROOT
BRANCH   1   3
ATOM      3  C   UNL     1       1.834   8.150  20.162  0.00  0.00    +0.000 C 
BRANCH   3   7
ATOM      4  N   UNL     1       0.339  10.628  22.595  0.00  0.00    +0.000 NA
ATOM      5  C   UNL     1       0.393   9.155  22.761  0.00  0.00    +0.000 C 
ATOM      6  C   UNL     1      -0.142   8.337  21.553  0.00  0.00    +0.000 C 
ATOM      7  N   UNL     1       0.459   8.693  20.246  0.00  0.00    +0.000 NA
ATOM      8  C   UNL     1       0.403  10.163  20.095  0.00  0.00    +0.000 C 
ATOM      9  C   UNL     1       0.947  10.974  21.292  0.00  0.00    +0.000 C 
BRANCH   4  10
ATOM     10  C   UNL     1      -1.048  11.093  22.706  0.00  0.00    +0.000 C 
BRANCH  10  14
ATOM     11  C   UNL     1      -2.235  14.763  23.368  0.00  0.00    +0.000 C 
ATOM     12  C   UNL     1      -2.287  13.271  23.187  0.00  0.00    +0.000 C 
ATOM     13  C   UNL     1      -3.604  12.616  23.497  0.00  0.00    +0.000 C 
ATOM     14  C   UNL     1      -1.193  12.591  22.786  0.00  0.00    +0.000 C 
ENDBRANCH  10  14
ENDBRANCH   4  10
ENDBRANCH   3   7
ENDBRANCH   1   3
BRANCH   1  15
ATOM     15  C   UNL     1       3.077   6.286  18.805  0.00  0.00    +0.000 C 
BRANCH  15  16
ATOM     16  C   UNL     1       2.240   5.062  19.206  0.00  0.00    +0.000 A 
ATOM     17  C   UNL     1       2.115   4.664  20.550  0.00  0.00    +0.000 A 
ATOM     18  C   UNL     1       1.362   3.543  20.907  0.00  0.00    +0.000 A 
ATOM     19  C   UNL     1       0.709   2.800  19.931  0.00  0.00    +0.000 A 
ATOM     20  C   UNL     1       0.804   3.180  18.596  0.00  0.00    +0.000 A 
ATOM     21  C   UNL     1       1.554   4.303  18.238  0.00  0.00    +0.000 A 
ENDBRANCH  15  16
BRANCH  15  22
ATOM     22  C   UNL     1       3.693   6.074  17.407  0.00  0.00    +0.000 C 
ATOM     23  C   UNL     1       4.907   6.994  17.090  0.00  0.00    +0.000 C 
ATOM     24  C   UNL     1       5.568   5.817  16.363  0.00  0.00    +0.000 C 
ATOM     25  C   UNL     1       4.622   4.863  17.116  0.00  0.00    +0.000 C 
ENDBRANCH  15  22
BRANCH  15  26
ATOM     26  O   UNL     1       4.153   6.450  19.743  0.00  0.00    +0.000 OA
ATOM     27  H   UNL     1       4.950   6.041  19.364  0.00  0.00    +0.000 HD
ENDBRANCH  15  26
ENDBRANCH   1  15
TORSDOF 8
ENDMDL
MODEL 8
REMARK VINA RESULT:      -7.9      4.020      8.524
REMARK  Name = 
REMARK  10 active torsions:
REMARK  status: ('A' for Active; 'I' for Inactive)
REMARK    1  A    between atoms: C_1  and  C_2
REMARK    2  A    between atoms: C_2  and  C_3
REMARK    3  A    between atoms: C_4  and  C_5
REMARK    4  A    between atoms: C_5  and  N_6
REMARK    5  A    between atoms: N_9  and  C_10
REMARK    6  A    between atoms: C_10  and  C_11
REMARK    7  A    between atoms: C_11  and  C_13
REMARK    8  A    between atoms: C_13  and  O_14
REMARK    9  A    between atoms: C_13  and  C_15
REMARK   10  A    between atoms: C_13  and  C_21
REMARK                            x       y       z     vdW  Elec       q    Type
REMARK                         _______ _______ _______ _____ _____    ______ ____
ROOT
ATOM      1  C   UNL     1       2.369   7.034  19.114  0.00  0.00    +0.000 C 
ATOM      2  O   UNL     1       2.827   7.838  18.294  0.00  0.00    +0.000 OA
ENDROOT
BRANCH   1   3
ATOM      3  C   UNL     1       1.539   7.446  20.331  0.00  0.00    +0.000 C 
BRANCH   3   7
ATOM      4  N   UNL     1      -0.873  10.034  21.662  0.00  0.00    +0.000 NA
ATOM      5  C   UNL     1      -0.498   9.829  20.242  0.00  0.00    +0.000 C 
ATOM      6  C   UNL     1       1.031   9.787  19.965  0.00  0.00    +0.000 C 
ATOM      7  N   UNL     1       1.787   8.827  20.803  0.00  0.00    +0.000 NA
ATOM      8  C   UNL     1       1.401   9.038  22.214  0.00  0.00    +0.000 C 
ATOM      9  C   UNL     1      -0.119   9.067  22.489  0.00  0.00    +0.000 C 
BRANCH   4  10
ATOM     10  C   UNL     1      -0.615  11.425  22.052  0.00  0.00    +0.000 C 
BRANCH  10  14
ATOM     11  C   UNL     1      -3.680  12.798  24.061  0.00  0.00    +0.000 C 
ATOM     12  C   UNL     1      -2.793  12.450  22.898  0.00  0.00    +0.000 C 
ATOM     13  C   UNL     1      -3.383  12.668  21.532  0.00  0.00    +0.000 C 
ATOM     14  C   UNL     1      -1.555  11.957  23.103  0.00  0.00    +0.000 C 
ENDBRANCH  10  14
ENDBRANCH   4  10
ENDBRANCH   3   7
ENDBRANCH   1   3
BRANCH   1  15
ATOM     15  C   UNL     1       2.586   5.495  18.930  0.00  0.00    +0.000 C 
BRANCH  15  16
ATOM     16  C   UNL     1       4.022   5.184  18.482  0.00  0.00    +0.000 A 
ATOM     17  C   UNL     1       4.291   4.569  17.245  0.00  0.00    +0.000 A 
ATOM     18  C   UNL     1       5.598   4.278  16.849  0.00  0.00    +0.000 A 
ATOM     19  C   UNL     1       6.668   4.602  17.675  0.00  0.00    +0.000 A 
ATOM     20  C   UNL     1       6.431   5.223  18.897  0.00  0.00    +0.000 A 
ATOM     21  C   UNL     1       5.124   5.519  19.293  0.00  0.00    +0.000 A 
ENDBRANCH  15  16
BRANCH  15  22
ATOM     22  C   UNL     1       2.277   4.778  20.259  0.00  0.00    +0.000 C 
ATOM     23  C   UNL     1       0.875   4.105  20.319  0.00  0.00    +0.000 C 
ATOM     24  C   UNL     1       1.503   2.942  21.097  0.00  0.00    +0.000 C 
ATOM     25  C   UNL     1       2.884   3.385  20.580  0.00  0.00    +0.000 C 
ENDBRANCH  15  22
BRANCH  15  26
ATOM     26  O   UNL     1       1.667   5.008  17.939  0.00  0.00    +0.000 OA
ATOM     27  H   UNL     1       1.436   4.090  18.166  0.00  0.00    +0.000 HD
ENDBRANCH  15  26
ENDBRANCH   1  15
TORSDOF 8
ENDMDL
MODEL 9
REMARK VINA RESULT:      -7.7      1.425      3.703
REMARK  Name = 
REMARK  10 active torsions:
REMARK  status: ('A' for Active; 'I' for Inactive)
REMARK    1  A    between atoms: C_1  and  C_2
REMARK    2  A    between atoms: C_2  and  C_3
REMARK    3  A    between atoms: C_4  and  C_5
REMARK    4  A    between atoms: C_5  and  N_6
REMARK    5  A    between atoms: N_9  and  C_10
REMARK    6  A    between atoms: C_10  and  C_11
REMARK    7  A    between atoms: C_11  and  C_13
REMARK    8  A    between atoms: C_13  and  O_14
REMARK    9  A    between atoms: C_13  and  C_15
REMARK   10  A    between atoms: C_13  and  C_21
REMARK                            x       y       z     vdW  Elec       q    Type
REMARK                         _______ _______ _______ _____ _____    ______ ____
ROOT
ATOM      1  C   UNL     1       4.583   4.907  18.682  0.00  0.00    +0.000 C 
ATOM      2  O   UNL     1       5.095   3.971  19.306  0.00  0.00    +0.000 OA
ENDROOT
BRANCH   1   3
ATOM      3  C   UNL     1       5.335   5.751  17.653  0.00  0.00    +0.000 C 
BRANCH   3   7
ATOM      4  N   UNL     1       7.031   4.446  14.536  0.00  0.00    +0.000 NA
ATOM      5  C   UNL     1       7.050   5.845  15.028  0.00  0.00    +0.000 C 
ATOM      6  C   UNL     1       5.654   6.446  15.353  0.00  0.00    +0.000 C 
ATOM      7  N   UNL     1       4.824   5.629  16.269  0.00  0.00    +0.000 NA
ATOM      8  C   UNL     1       4.817   4.236  15.771  0.00  0.00    +0.000 C 
ATOM      9  C   UNL     1       6.207   3.637  15.460  0.00  0.00    +0.000 C 
BRANCH   4  10
ATOM     10  C   UNL     1       6.529   4.406  13.158  0.00  0.00    +0.000 C 
BRANCH  10  14
ATOM     11  C   UNL     1       5.927   1.190  11.011  0.00  0.00    +0.000 C 
ATOM     12  C   UNL     1       5.660   2.497  11.706  0.00  0.00    +0.000 C 
ATOM     13  C   UNL     1       4.330   3.137  11.418  0.00  0.00    +0.000 C 
ATOM     14  C   UNL     1       6.589   3.043  12.517  0.00  0.00    +0.000 C 
ENDBRANCH  10  14
ENDBRANCH   4  10
ENDBRANCH   3   7
ENDBRANCH   1   3
BRANCH   1  15
ATOM     15  C   UNL     1       3.075   5.272  18.888  0.00  0.00    +0.000 C 
BRANCH  15  16
ATOM     16  C   UNL     1       2.388   4.287  19.846  0.00  0.00    +0.000 A 
ATOM     17  C   UNL     1       2.806   4.146  21.182  0.00  0.00    +0.000 A 
ATOM     18  C   UNL     1       2.184   3.239  22.044  0.00  0.00    +0.000 A 
ATOM     19  C   UNL     1       1.125   2.461  21.594  0.00  0.00    +0.000 A 
ATOM     20  C   UNL     1       0.682   2.591  20.282  0.00  0.00    +0.000 A 
ATOM     21  C   UNL     1       1.300   3.500  19.419  0.00  0.00    +0.000 A 
ENDBRANCH  15  16
BRANCH  15  22
ATOM     22  C   UNL     1       2.973   6.708  19.439  0.00  0.00    +0.000 C 
ATOM     23  C   UNL     1       2.456   7.758  18.413  0.00  0.00    +0.000 C 
ATOM     24  C   UNL     1       1.675   8.433  19.548  0.00  0.00    +0.000 C 
ATOM     25  C   UNL     1       1.799   7.133  20.363  0.00  0.00    +0.000 C 
ENDBRANCH  15  22
BRANCH  15  26
ATOM     26  O   UNL     1       2.407   5.237  17.616  0.00  0.00    +0.000 OA
ATOM     27  H   UNL     1       2.996   4.799  16.977  0.00  0.00    +0.000 HD
ENDBRANCH  15  26
ENDBRANCH   1  15
TORSDOF 8
ENDMDL
