MODEL 1
REMARK VINA RESULT:      -8.0      0.000      0.000
REMARK  Name = 
REMARK  5 active torsions:
REMARK  status: ('A' for Active; 'I' for Inactive)
REMARK    1  A    between atoms: C_2  and  C_3
REMARK    2  A    between atoms: C_3  and  C_4
REMARK    3  A    between atoms: N_9  and  C_10
REMARK    4  A    between atoms: C_10  and  C_11
REMARK    5  A    between atoms: N_19  and  C_20
REMARK                            x       y       z     vdW  Elec       q    Type
REMARK                         _______ _______ _______ _____ _____    ______ ____
ROOT
ATOM      1  C   UNL     1       4.398   4.131  17.155  0.00  0.00    +0.000 C 
ATOM      2  C   UNL     1       4.054   2.675  17.517  0.00  0.00    +0.000 C 
ATOM      3  C   UNL     1       2.558   2.366  17.544  0.00  0.00    +0.000 C 
ATOM      4  C   UNL     1       1.725   3.224  18.496  0.00  0.00    +0.000 C 
ATOM      5  C   UNL     1       1.754   4.714  18.154  0.00  0.00    +0.000 C 
ATOM      6  N   UNL     1       2.924   5.370  18.730  0.00  0.00    +0.000 N 
ATOM      7  C   UNL     1       4.219   5.023  18.387  0.00  0.00    +0.000 C 
ATOM      8  O   UNL     1       5.194   5.380  19.054  0.00  0.00    +0.000 OA
ENDROOT
BRANCH   1   9
ATOM      9  C   UNL     1       5.844   4.210  16.643  0.00  0.00    +0.000 C 
BRANCH   9  11
ATOM     10  O   UNL     1       5.848   5.831  14.868  0.00  0.00    +0.000 OA
ATOM     11  C   UNL     1       5.908   4.649  15.190  0.00  0.00    +0.000 C 
ATOM     12  N   UNL     1       6.054   3.601  14.306  0.00  0.00    +0.000 N 
ATOM     13  H   UNL     1       6.423   2.732  14.699  0.00  0.00    +0.000 HD
BRANCH  12  14
ATOM     14  C   UNL     1       6.162   3.779  12.896  0.00  0.00    +0.000 C 
ATOM     15  C   UNL     1       6.241   2.581  11.987  0.00  0.00    +0.000 C 
ATOM     16  C   UNL     1       5.004   3.429  12.005  0.00  0.00    +0.000 C 
ENDBRANCH  12  14
ENDBRANCH   9  11
ENDBRANCH   1   9
BRANCH   6  17
ATOM     17  C   UNL     1       2.710   6.298  19.840  0.00  0.00    +0.000 C 
BRANCH  17  18
ATOM     18  C   UNL     1       2.116   7.628  19.424  0.00  0.00    +0.000 A 
ATOM     19  C   UNL     1       1.335   8.381  20.313  0.00  0.00    +0.000 A 
ATOM     20  C   UNL     1       0.879   9.656  19.963  0.00  0.00    +0.000 A 
ATOM     21  C   UNL     1       1.194  10.191  18.716  0.00  0.00    +0.000 A 
ATOM     22  C   UNL     1       1.938   9.442  17.807  0.00  0.00    +0.000 A 
ATOM     23  C   UNL     1       2.388   8.163  18.155  0.00  0.00    +0.000 A 
ENDBRANCH  17  18
ENDBRANCH   6  17
TORSDOF 5
ENDMDL
MODEL 2
REMARK VINA RESULT:      -7.7      0.330      1.079
REMARK  Name = 
REMARK  5 active torsions:
REMARK  status: ('A' for Active; 'I' for Inactive)
REMARK    1  A    between atoms: C_2  and  C_3
REMARK    2  A    between atoms: C_3  and  C_4
REMARK    3  A    between atoms: N_9  and  C_10
REMARK    4  A    between atoms: C_10  and  C_11
REMARK    5  A    between atoms: N_19  and  C_20
REMARK                            x       y       z     vdW  Elec       q    Type
REMARK                         _______ _______ _______ _____ _____    ______ ____
ROOT
ATOM      1  C   UNL     1       4.268   4.127  17.263  0.00  0.00    +0.000 C 
ATOM      2  C   UNL     1       3.962   2.661  17.615  0.00  0.00    +0.000 C 
ATOM      3  C   UNL     1       2.476   2.308  17.622  0.00  0.00    +0.000 C 
ATOM      4  C   UNL     1       1.607   3.137  18.567  0.00  0.00    +0.000 C 
ATOM      5  C   UNL     1       1.596   4.629  18.231  0.00  0.00    +0.000 C 
ATOM      6  N   UNL     1       2.739   5.316  18.824  0.00  0.00    +0.000 N 
ATOM      7  C   UNL     1       4.048   5.009  18.495  0.00  0.00    +0.000 C 
ATOM      8  O   UNL     1       5.004   5.391  19.176  0.00  0.00    +0.000 OA
ENDROOT
BRANCH   1   9
ATOM      9  C   UNL     1       5.718   4.251  16.769  0.00  0.00    +0.000 C 
BRANCH   9  11
ATOM     10  O   UNL     1       6.043   5.975  15.126  0.00  0.00    +0.000 OA
ATOM     11  C   UNL     1       5.789   4.797  15.353  0.00  0.00    +0.000 C 
ATOM     12  N   UNL     1       5.560   3.843  14.385  0.00  0.00    +0.000 N 
ATOM     13  H   UNL     1       5.696   2.871  14.673  0.00  0.00    +0.000 HD
BRANCH  12  14
ATOM     14  C   UNL     1       5.603   4.123  12.988  0.00  0.00    +0.000 C 
ATOM     15  C   UNL     1       6.618   3.438  12.111  0.00  0.00    +0.000 C 
ATOM     16  C   UNL     1       5.166   3.079  12.000  0.00  0.00    +0.000 C 
ENDBRANCH  12  14
ENDBRANCH   9  11
ENDBRANCH   1   9
BRANCH   6  17
ATOM     17  C   UNL     1       2.485   6.233  19.934  0.00  0.00    +0.000 C 
BRANCH  17  18
ATOM     18  C   UNL     1       2.076   7.626  19.501  0.00  0.00    +0.000 A 
ATOM     19  C   UNL     1       2.364   8.096  18.211  0.00  0.00    +0.000 A 
ATOM     20  C   UNL     1       1.892   9.340  17.780  0.00  0.00    +0.000 A 
ATOM     21  C   UNL     1       1.129  10.131  18.635  0.00  0.00    +0.000 A 
ATOM     22  C   UNL     1       0.863   9.694  19.932  0.00  0.00    +0.000 A 
ATOM     23  C   UNL     1       1.343   8.454  20.366  0.00  0.00    +0.000 A 
ENDBRANCH  17  18
ENDBRANCH   6  17
TORSDOF 5
ENDMDL
MODEL 3
REMARK VINA RESULT:      -7.5      4.115      6.260
REMARK  Name = 
REMARK  5 active torsions:
REMARK  status: ('A' for Active; 'I' for Inactive)
REMARK    1  A    between atoms: C_2  and  C_3
REMARK    2  A    between atoms: C_3  and  C_4
REMARK    3  A    between atoms: N_9  and  C_10
REMARK    4  A    between atoms: C_10  and  C_11
REMARK    5  A    between atoms: N_19  and  C_20
REMARK                            x       y       z     vdW  Elec       q    Type
REMARK                         _______ _______ _______ _____ _____    ______ ____
ROOT
ATOM      1  C   UNL     1       6.926   6.497  17.959  0.00  0.00    +0.000 C 
ATOM      2  C   UNL     1       7.179   5.827  16.597  0.00  0.00    +0.000 C 
ATOM      3  C   UNL     1       5.919   5.585  15.767  0.00  0.00    +0.000 C 
ATOM      4  C   UNL     1       4.842   4.735  16.439  0.00  0.00    +0.000 C 
ATOM      5  C   UNL     1       4.285   5.358  17.720  0.00  0.00    +0.000 C 
ATOM      6  N   UNL     1       5.124   5.045  18.872  0.00  0.00    +0.000 N 
ATOM      7  C   UNL     1       6.445   5.449  18.966  0.00  0.00    +0.000 C 
ATOM      8  O   UNL     1       7.221   4.969  19.797  0.00  0.00    +0.000 OA
ENDROOT
BRANCH   1   9
ATOM      9  C   UNL     1       8.218   7.164  18.457  0.00  0.00    +0.000 C 
BRANCH   9  11
ATOM     10  O   UNL     1       7.388   9.210  17.507  0.00  0.00    +0.000 OA
ATOM     11  C   UNL     1       8.190   8.670  18.261  0.00  0.00    +0.000 C 
ATOM     12  N   UNL     1       9.128   9.339  19.018  0.00  0.00    +0.000 N 
ATOM     13  H   UNL     1       9.490   8.835  19.831  0.00  0.00    +0.000 HD
BRANCH  12  14
ATOM     14  C   UNL     1       9.266  10.757  19.015  0.00  0.00    +0.000 C 
ATOM     15  C   UNL     1       9.529  11.495  20.301  0.00  0.00    +0.000 C 
ATOM     16  C   UNL     1      10.609  11.381  19.267  0.00  0.00    +0.000 C 
ENDBRANCH  12  14
ENDBRANCH   9  11
ENDBRANCH   1   9
BRANCH   6  17
ATOM     17  C   UNL     1       4.594   4.119  19.872  0.00  0.00    +0.000 C 
BRANCH  17  18
ATOM     18  C   UNL     1       3.148   3.729  19.644  0.00  0.00    +0.000 A 
ATOM     19  C   UNL     1       2.813   2.645  18.818  0.00  0.00    +0.000 A 
ATOM     20  C   UNL     1       1.486   2.222  18.697  0.00  0.00    +0.000 A 
ATOM     21  C   UNL     1       0.476   2.880  19.396  0.00  0.00    +0.000 A 
ATOM     22  C   UNL     1       0.788   3.980  20.192  0.00  0.00    +0.000 A 
ATOM     23  C   UNL     1       2.115   4.409  20.307  0.00  0.00    +0.000 A 
ENDBRANCH  17  18
ENDBRANCH   6  17
TORSDOF 5
ENDMDL
MODEL 4
REMARK VINA RESULT:      -7.5      3.984      6.003
REMARK  Name = 
REMARK  5 active torsions:
REMARK  status: ('A' for Active; 'I' for Inactive)
REMARK    1  A    between atoms: C_2  and  C_3
REMARK    2  A    between atoms: C_3  and  C_4
REMARK    3  A    between atoms: N_9  and  C_10
REMARK    4  A    between atoms: C_10  and  C_11
REMARK    5  A    between atoms: N_19  and  C_20
REMARK                            x       y       z     vdW  Elec       q    Type
REMARK                         _______ _______ _______ _____ _____    ______ ____
ROOT
ATOM      1  C   UNL     1       6.794   6.322  17.729  0.00  0.00    +0.000 C 
ATOM      2  C   UNL     1       7.138   5.764  16.337  0.00  0.00    +0.000 C 
ATOM      3  C   UNL     1       5.926   5.405  15.480  0.00  0.00    +0.000 C 
ATOM      4  C   UNL     1       4.964   4.388  16.094  0.00  0.00    +0.000 C 
ATOM      5  C   UNL     1       4.325   4.865  17.399  0.00  0.00    +0.000 C 
ATOM      6  N   UNL     1       5.192   4.601  18.543  0.00  0.00    +0.000 N 
ATOM      7  C   UNL     1       6.448   5.167  18.674  0.00  0.00    +0.000 C 
ATOM      8  O   UNL     1       7.276   4.749  19.488  0.00  0.00    +0.000 OA
ENDROOT
BRANCH   1   9
ATOM      9  C   UNL     1       7.986   7.122  18.277  0.00  0.00    +0.000 C 
BRANCH   9  11
ATOM     10  O   UNL     1       7.045   9.015  17.131  0.00  0.00    +0.000 OA
ATOM     11  C   UNL     1       7.905   8.591  17.896  0.00  0.00    +0.000 C 
ATOM     12  N   UNL     1       8.867   9.369  18.504  0.00  0.00    +0.000 N 
ATOM     13  H   UNL     1       9.290   8.979  19.349  0.00  0.00    +0.000 HD
BRANCH  12  14
ATOM     14  C   UNL     1       8.965  10.778  18.314  0.00  0.00    +0.000 C 
ATOM     15  C   UNL     1       9.741  11.620  19.291  0.00  0.00    +0.000 C 
ATOM     16  C   UNL     1      10.276  11.391  17.909  0.00  0.00    +0.000 C 
ENDBRANCH  12  14
ENDBRANCH   9  11
ENDBRANCH   1   9
BRANCH   6  17
ATOM     17  C   UNL     1       4.782   3.563  19.487  0.00  0.00    +0.000 C 
BRANCH  17  18
ATOM     18  C   UNL     1       3.281   3.378  19.585  0.00  0.00    +0.000 A 
ATOM     19  C   UNL     1       2.495   4.239  20.366  0.00  0.00    +0.000 A 
ATOM     20  C   UNL     1       1.101   4.131  20.369  0.00  0.00    +0.000 A 
ATOM     21  C   UNL     1       0.475   3.158  19.593  0.00  0.00    +0.000 A 
ATOM     22  C   UNL     1       1.242   2.272  18.840  0.00  0.00    +0.000 A 
ATOM     23  C   UNL     1       2.638   2.374  18.844  0.00  0.00    +0.000 A 
ENDBRANCH  17  18
ENDBRANCH   6  17
TORSDOF 5
ENDMDL
MODEL 5
REMARK VINA RESULT:      -7.5      3.818      5.860
REMARK  Name = 
REMARK  5 active torsions:
REMARK  status: ('A' for Active; 'I' for Inactive)
REMARK    1  A    between atoms: C_2  and  C_3
REMARK    2  A    between atoms: C_3  and  C_4
REMARK    3  A    between atoms: N_9  and  C_10
REMARK    4  A    between atoms: C_10  and  C_11
REMARK    5  A    between atoms: N_19  and  C_20
REMARK                            x       y       z     vdW  Elec       q    Type
REMARK                         _______ _______ _______ _____ _____    ______ ____
ROOT
ATOM      1  C   UNL     1       6.842   6.015  17.428  0.00  0.00    +0.000 C 
ATOM      2  C   UNL     1       7.456   5.450  16.135  0.00  0.00    +0.000 C 
ATOM      3  C   UNL     1       6.436   5.065  15.065  0.00  0.00    +0.000 C 
ATOM      4  C   UNL     1       5.388   4.039  15.493  0.00  0.00    +0.000 C 
ATOM      5  C   UNL     1       4.502   4.518  16.644  0.00  0.00    +0.000 C 
ATOM      6  N   UNL     1       5.135   4.278  17.937  0.00  0.00    +0.000 N 
ATOM      7  C   UNL     1       6.335   4.864  18.302  0.00  0.00    +0.000 C 
ATOM      8  O   UNL     1       6.995   4.464  19.265  0.00  0.00    +0.000 OA
ENDROOT
BRANCH   1   9
ATOM      9  C   UNL     1       7.895   6.838  18.187  0.00  0.00    +0.000 C 
BRANCH   9  11
ATOM     10  O   UNL     1       6.976   8.753  17.061  0.00  0.00    +0.000 OA
ATOM     11  C   UNL     1       7.810   8.316  17.848  0.00  0.00    +0.000 C 
ATOM     12  N   UNL     1       8.736   9.087  18.518  0.00  0.00    +0.000 N 
ATOM     13  H   UNL     1       9.129   8.676  19.368  0.00  0.00    +0.000 HD
BRANCH  12  14
ATOM     14  C   UNL     1       8.822  10.502  18.376  0.00  0.00    +0.000 C 
ATOM     15  C   UNL     1       9.618  11.314  19.364  0.00  0.00    +0.000 C 
ATOM     16  C   UNL     1      10.120  11.136  17.962  0.00  0.00    +0.000 C 
ENDBRANCH  12  14
ENDBRANCH   9  11
ENDBRANCH   1   9
BRANCH   6  17
ATOM     17  C   UNL     1       4.564   3.241  18.796  0.00  0.00    +0.000 C 
BRANCH  17  18
ATOM     18  C   UNL     1       3.180   3.569  19.320  0.00  0.00    +0.000 A 
ATOM     19  C   UNL     1       2.108   2.683  19.135  0.00  0.00    +0.000 A 
ATOM     20  C   UNL     1       0.860   2.939  19.712  0.00  0.00    +0.000 A 
ATOM     21  C   UNL     1       0.668   4.087  20.477  0.00  0.00    +0.000 A 
ATOM     22  C   UNL     1       1.712   4.995  20.640  0.00  0.00    +0.000 A 
ATOM     23  C   UNL     1       2.958   4.744  20.056  0.00  0.00    +0.000 A 
ENDBRANCH  17  18
ENDBRANCH   6  17
TORSDOF 5
ENDMDL
MODEL 6
REMARK VINA RESULT:      -7.5      2.449      3.966
REMARK  Name = 
REMARK  5 active torsions:
REMARK  status: ('A' for Active; 'I' for Inactive)
REMARK    1  A    between atoms: C_2  and  C_3
REMARK    2  A    between atoms: C_3  and  C_4
REMARK    3  A    between atoms: N_9  and  C_10
REMARK    4  A    between atoms: C_10  and  C_11
REMARK    5  A    between atoms: N_19  and  C_20
REMARK                            x       y       z     vdW  Elec       q    Type
REMARK                         _______ _______ _______ _____ _____    ______ ____
ROOT
ATOM      1  C   UNL     1       6.008   5.755  16.707  0.00  0.00    +0.000 C 
ATOM      2  C   UNL     1       7.259   6.464  17.255  0.00  0.00    +0.000 C 
ATOM      3  C   UNL     1       7.866   5.811  18.496  0.00  0.00    +0.000 C 
ATOM      4  C   UNL     1       6.926   5.672  19.693  0.00  0.00    +0.000 C 
ATOM      5  C   UNL     1       5.708   4.792  19.411  0.00  0.00    +0.000 C 
ATOM      6  N   UNL     1       4.637   5.552  18.774  0.00  0.00    +0.000 N 
ATOM      7  C   UNL     1       4.785   6.156  17.537  0.00  0.00    +0.000 C 
ATOM      8  O   UNL     1       3.993   7.007  17.122  0.00  0.00    +0.000 OA
ENDROOT
BRANCH   1   9
ATOM      9  C   UNL     1       5.801   6.132  15.232  0.00  0.00    +0.000 C 
BRANCH   9  11
ATOM     10  O   UNL     1       7.735   5.343  14.042  0.00  0.00    +0.000 OA
ATOM     11  C   UNL     1       6.545   5.193  14.298  0.00  0.00    +0.000 C 
ATOM     12  N   UNL     1       5.758   4.177  13.801  0.00  0.00    +0.000 N 
ATOM     13  H   UNL     1       4.911   3.966  14.333  0.00  0.00    +0.000 HD
BRANCH  12  14
ATOM     14  C   UNL     1       6.250   3.165  12.927  0.00  0.00    +0.000 C 
ATOM     15  C   UNL     1       5.452   2.757  11.717  0.00  0.00    +0.000 C 
ATOM     16  C   UNL     1       6.727   3.530  11.549  0.00  0.00    +0.000 C 
ENDBRANCH  12  14
ENDBRANCH   9  11
ENDBRANCH   1   9
BRANCH   6  17
ATOM     17  C   UNL     1       3.436   5.831  19.558  0.00  0.00    +0.000 C 
BRANCH  17  18
ATOM     18  C   UNL     1       2.509   4.642  19.709  0.00  0.00    +0.000 A 
ATOM     19  C   UNL     1       2.181   4.135  20.976  0.00  0.00    +0.000 A 
ATOM     20  C   UNL     1       1.243   3.108  21.115  0.00  0.00    +0.000 A 
ATOM     21  C   UNL     1       0.624   2.570  19.989  0.00  0.00    +0.000 A 
ATOM     22  C   UNL     1       0.965   3.037  18.721  0.00  0.00    +0.000 A 
ATOM     23  C   UNL     1       1.910   4.060  18.580  0.00  0.00    +0.000 A 
ENDBRANCH  17  18
ENDBRANCH   6  17
TORSDOF 5
ENDMDL
MODEL 7
REMARK VINA RESULT:      -7.5      3.780      5.120
REMARK  Name = 
REMARK  5 active torsions:
REMARK  status: ('A' for Active; 'I' for Inactive)
REMARK    1  A    between atoms: C_2  and  C_3
REMARK    2  A    between atoms: C_3  and  C_4
REMARK    3  A    between atoms: N_9  and  C_10
REMARK    4  A    between atoms: C_10  and  C_11
REMARK    5  A    between atoms: N_19  and  C_20
REMARK                            x       y       z     vdW  Elec       q    Type
REMARK                         _______ _______ _______ _____ _____    ______ ____
ROOT
ATOM      1  C   UNL     1       7.016   6.000  17.626  0.00  0.00    +0.000 C 
ATOM      2  C   UNL     1       7.625   4.702  17.069  0.00  0.00    +0.000 C 
ATOM      3  C   UNL     1       6.920   4.151  15.831  0.00  0.00    +0.000 C 
ATOM      4  C   UNL     1       5.430   3.855  16.000  0.00  0.00    +0.000 C 
ATOM      5  C   UNL     1       4.598   5.093  16.337  0.00  0.00    +0.000 C 
ATOM      6  N   UNL     1       4.613   5.369  17.771  0.00  0.00    +0.000 N 
ATOM      7  C   UNL     1       5.775   5.669  18.461  0.00  0.00    +0.000 C 
ATOM      8  O   UNL     1       5.834   5.640  19.693  0.00  0.00    +0.000 OA
ENDROOT
BRANCH   1   9
ATOM      9  C   UNL     1       8.057   6.736  18.484  0.00  0.00    +0.000 C 
BRANCH   9  11
ATOM     10  O   UNL     1       7.509   8.696  17.205  0.00  0.00    +0.000 OA
ATOM     11  C   UNL     1       8.107   8.220  18.164  0.00  0.00    +0.000 C 
ATOM     12  N   UNL     1       8.864   8.948  19.058  0.00  0.00    +0.000 N 
ATOM     13  H   UNL     1       9.021   8.513  19.970  0.00  0.00    +0.000 HD
BRANCH  12  14
ATOM     14  C   UNL     1       9.030  10.360  18.970  0.00  0.00    +0.000 C 
ATOM     15  C   UNL     1      10.279  11.009  19.505  0.00  0.00    +0.000 C 
ATOM     16  C   UNL     1      10.046  10.939  18.025  0.00  0.00    +0.000 C 
ENDBRANCH  12  14
ENDBRANCH   9  11
ENDBRANCH   1   9
BRANCH   6  17
ATOM     17  C   UNL     1       3.382   5.141  18.524  0.00  0.00    +0.000 C 
BRANCH  17  18
ATOM     18  C   UNL     1       2.644   6.412  18.897  0.00  0.00    +0.000 A 
ATOM     19  C   UNL     1       2.143   6.603  20.194  0.00  0.00    +0.000 A 
ATOM     20  C   UNL     1       1.559   7.819  20.563  0.00  0.00    +0.000 A 
ATOM     21  C   UNL     1       1.465   8.857  19.639  0.00  0.00    +0.000 A 
ATOM     22  C   UNL     1       1.926   8.671  18.337  0.00  0.00    +0.000 A 
ATOM     23  C   UNL     1       2.502   7.452  17.965  0.00  0.00    +0.000 A 
ENDBRANCH  17  18
ENDBRANCH   6  17
TORSDOF 5
ENDMDL
MODEL 8
REMARK VINA RESULT:      -7.4      2.159      4.191
REMARK  Name = 
REMARK  5 active torsions:
REMARK  status: ('A' for Active; 'I' for Inactive)
REMARK    1  A    between atoms: C_2  and  C_3
REMARK    2  A    between atoms: C_3  and  C_4
REMARK    3  A    between atoms: N_9  and  C_10
REMARK    4  A    between atoms: C_10  and  C_11
REMARK    5  A    between atoms: N_19  and  C_20
REMARK                            x       y       z     vdW  Elec       q    Type
REMARK                         _______ _______ _______ _____ _____    ______ ____
ROOT
ATOM      1  C   UNL     1       5.899   5.197  16.816  0.00  0.00    +0.000 C 
ATOM      2  C   UNL     1       5.666   6.481  15.999  0.00  0.00    +0.000 C 
ATOM      3  C   UNL     1       4.971   7.603  16.768  0.00  0.00    +0.000 C 
ATOM      4  C   UNL     1       3.607   7.250  17.359  0.00  0.00    +0.000 C 
ATOM      5  C   UNL     1       3.664   6.122  18.390  0.00  0.00    +0.000 C 
ATOM      6  N   UNL     1       3.625   4.812  17.748  0.00  0.00    +0.000 N 
ATOM      7  C   UNL     1       4.605   4.381  16.871  0.00  0.00    +0.000 C 
ATOM      8  O   UNL     1       4.444   3.404  16.134  0.00  0.00    +0.000 OA
ENDROOT
BRANCH   1   9
ATOM      9  C   UNL     1       7.026   4.372  16.175  0.00  0.00    +0.000 C 
BRANCH   9  11
ATOM     10  O   UNL     1       7.801   5.436  14.164  0.00  0.00    +0.000 OA
ATOM     11  C   UNL     1       7.091   4.574  14.671  0.00  0.00    +0.000 C 
ATOM     12  N   UNL     1       6.300   3.694  13.964  0.00  0.00    +0.000 N 
ATOM     13  H   UNL     1       6.035   2.837  14.455  0.00  0.00    +0.000 HD
BRANCH  12  14
ATOM     14  C   UNL     1       6.225   3.681  12.541  0.00  0.00    +0.000 C 
ATOM     15  C   UNL     1       6.058   2.380  11.804  0.00  0.00    +0.000 C 
ATOM     16  C   UNL     1       4.924   3.360  11.861  0.00  0.00    +0.000 C 
ENDBRANCH  12  14
ENDBRANCH   9  11
ENDBRANCH   1   9
BRANCH   6  17
ATOM     17  C   UNL     1       2.413   4.010  17.905  0.00  0.00    +0.000 C 
BRANCH  17  18
ATOM     18  C   UNL     1       2.261   3.386  19.278  0.00  0.00    +0.000 A 
ATOM     19  C   UNL     1       3.355   2.793  19.928  0.00  0.00    +0.000 A 
ATOM     20  C   UNL     1       3.236   2.316  21.237  0.00  0.00    +0.000 A 
ATOM     21  C   UNL     1       2.021   2.420  21.910  0.00  0.00    +0.000 A 
ATOM     22  C   UNL     1       0.916   2.973  21.266  0.00  0.00    +0.000 A 
ATOM     23  C   UNL     1       1.032   3.444  19.954  0.00  0.00    +0.000 A 
ENDBRANCH  17  18
ENDBRANCH   6  17
TORSDOF 5
ENDMDL
MODEL 9
REMARK VINA RESULT:      -7.3      3.891      6.053
REMARK  Name = 
REMARK  5 active torsions:
REMARK  status: ('A' for Active; 'I' for Inactive)
REMARK    1  A    between atoms: C_2  and  C_3
REMARK    2  A    between atoms: C_3  and  C_4
REMARK    3  A    between atoms: N_9  and  C_10
REMARK    4  A    between atoms: C_10  and  C_11
REMARK    5  A    between atoms: N_19  and  C_20
REMARK                            x       y       z     vdW  Elec       q    Type
REMARK                         _______ _______ _______ _____ _____    ______ ____
ROOT
ATOM      1  C   UNL     1       7.077   6.092  17.484  0.00  0.00    +0.000 C 
ATOM      2  C   UNL     1       7.607   4.681  17.178  0.00  0.00    +0.000 C 
ATOM      3  C   UNL     1       7.078   4.072  15.881  0.00  0.00    +0.000 C 
ATOM      4  C   UNL     1       5.557   3.959  15.780  0.00  0.00    +0.000 C 
ATOM      5  C   UNL     1       4.842   5.310  15.834  0.00  0.00    +0.000 C 
ATOM      6  N   UNL     1       4.628   5.744  17.211  0.00  0.00    +0.000 N 
ATOM      7  C   UNL     1       5.672   5.993  18.086  0.00  0.00    +0.000 C 
ATOM      8  O   UNL     1       5.498   6.098  19.303  0.00  0.00    +0.000 OA
ENDROOT
BRANCH   1   9
ATOM      9  C   UNL     1       8.027   6.804  18.459  0.00  0.00    +0.000 C 
BRANCH   9  11
ATOM     10  O   UNL     1       7.568   8.801  17.203  0.00  0.00    +0.000 OA
ATOM     11  C   UNL     1       8.129   8.291  18.167  0.00  0.00    +0.000 C 
ATOM     12  N   UNL     1       8.886   8.981  19.090  0.00  0.00    +0.000 N 
ATOM     13  H   UNL     1       9.009   8.526  19.997  0.00  0.00    +0.000 HD
BRANCH  12  14
ATOM     14  C   UNL     1       9.096  10.389  19.030  0.00  0.00    +0.000 C 
ATOM     15  C   UNL     1      10.277  11.007  19.730  0.00  0.00    +0.000 C 
ATOM     16  C   UNL     1      10.242  10.943  18.232  0.00  0.00    +0.000 C 
ENDBRANCH  12  14
ENDBRANCH   9  11
ENDBRANCH   1   9
BRANCH   6  17
ATOM     17  C   UNL     1       3.260   5.738  17.726  0.00  0.00    +0.000 C 
BRANCH  17  18
ATOM     18  C   UNL     1       2.835   4.414  18.328  0.00  0.00    +0.000 A 
ATOM     19  C   UNL     1       2.677   4.267  19.715  0.00  0.00    +0.000 A 
ATOM     20  C   UNL     1       2.182   3.078  20.257  0.00  0.00    +0.000 A 
ATOM     21  C   UNL     1       1.842   2.017  19.420  0.00  0.00    +0.000 A 
ATOM     22  C   UNL     1       2.027   2.134  18.044  0.00  0.00    +0.000 A 
ATOM     23  C   UNL     1       2.530   3.321  17.502  0.00  0.00    +0.000 A 
ENDBRANCH  17  18
ENDBRANCH   6  17
TORSDOF 5
ENDMDL
