MODEL 1
REMARK VINA RESULT:      -8.1      0.000      0.000
REMARK  Name = 
REMARK  11 active torsions:
REMARK  status: ('A' for Active; 'I' for Inactive)
REMARK    1  A    between atoms: C_1  and  C_2
REMARK    2  A    between atoms: C_2  and  C_3
REMARK    3  A    between atoms: C_3  and  O_4
REMARK    4  A    between atoms: C_20  and  C_21
REMARK    5  A    between atoms: C_21  and  O_22
REMARK    6  A    between atoms: O_22  and  C_23
REMARK    7  A    between atoms: C_23  and  C_24
REMARK    8  A    between atoms: C_24  and  N_25
REMARK    9  A    between atoms: N_25  and  C_26
REMARK   10  A    between atoms: N_25  and  C_27
REMARK   11  A    between atoms: C_28  and  O_29
REMARK                            x       y       z     vdW  Elec       q    Type
REMARK                         _______ _______ _______ _____ _____    ______ ____
ROOT
ATOM      1  C   UNL     1      -1.182  12.524  20.863  0.00  0.00    +0.000 C 
ATOM      2  C   UNL     1      -0.447  13.862  20.541  0.00  0.00    +0.000 C 
ATOM      3  O   UNL     1       0.216  14.526  21.321  0.00  0.00    +0.000 OA
ATOM      4  O   UNL     1      -0.320  14.026  19.215  0.00  0.00    +0.000 OA
ATOM      5  C   UNL     1       0.909  13.382  18.976  0.00  0.00    +0.000 C 
ATOM      6  C   UNL     1       0.905  11.977  19.552  0.00  0.00    +0.000 A 
ATOM      7  C   UNL     1       0.081  11.487  20.531  0.00  0.00    +0.000 A 
ATOM      8  C   UNL     1       0.275   9.944  20.798  0.00  0.00    +0.000 A 
ATOM      9  C   UNL     1       1.064   9.148  19.983  0.00  0.00    +0.000 A 
ATOM     10  N   UNL     1       1.648   9.800  18.899  0.00  0.00    +0.000 N 
ATOM     11  C   UNL     1       1.760  11.131  18.709  0.00  0.00    +0.000 A 
ATOM     12  O   UNL     1       2.459  11.613  17.818  0.00  0.00    +0.000 OA
ATOM     13  C   UNL     1       2.223   8.955  17.891  0.00  0.00    +0.000 C 
ATOM     14  C   UNL     1       2.189   7.608  18.521  0.00  0.00    +0.000 A 
ATOM     15  C   UNL     1       2.788   6.476  17.976  0.00  0.00    +0.000 A 
ATOM     16  C   UNL     1       2.903   5.322  18.711  0.00  0.00    +0.000 A 
ATOM     17  C   UNL     1       3.528   4.133  18.160  0.00  0.00    +0.000 A 
ATOM     18  C   UNL     1       3.732   3.062  19.029  0.00  0.00    +0.000 A 
ATOM     19  C   UNL     1       3.357   3.159  20.360  0.00  0.00    +0.000 A 
ATOM     20  C   UNL     1       2.690   4.319  20.837  0.00  0.00    +0.000 A 
ATOM     21  C   UNL     1       2.407   5.439  20.050  0.00  0.00    +0.000 A 
ATOM     22  N   UNL     1       1.728   6.585  20.569  0.00  0.00    +0.000 NA
ATOM     23  C   UNL     1       1.576   7.682  19.775  0.00  0.00    +0.000 A 
ENDROOT
BRANCH   1  25
ATOM     24  C   UNL     1      -3.001  12.310  23.033  0.00  0.00    +0.000 C 
ATOM     25  C   UNL     1      -2.183  13.138  21.992  0.00  0.00    +0.000 C 
ENDBRANCH   1  25
BRANCH   1  26
ATOM     26  O   UNL     1      -2.110  11.999  19.879  0.00  0.00    +0.000 OA
ATOM     27  H   UNL     1      -2.073  12.513  19.056  0.00  0.00    +0.000 HD
ENDBRANCH   1  26
BRANCH  18  28
ATOM     28  O   UNL     1       4.310   1.891  18.619  0.00  0.00    +0.000 OA
ATOM     29  H   UNL     1       5.019   1.673  19.258  0.00  0.00    +0.000 HD
ENDBRANCH  18  28
BRANCH  17  30
ATOM     30  C   UNL     1       4.035   3.989  16.719  0.00  0.00    +0.000 C 
BRANCH  30  31
ATOM     31  O   UNL     1       5.123   4.911  16.477  0.00  0.00    +0.000 OA
BRANCH  31  32
ATOM     32  C   UNL     1       6.373   4.246  16.188  0.00  0.00    +0.000 C 
BRANCH  32  33
ATOM     33  C   UNL     1       7.452   4.695  17.206  0.00  0.00    +0.000 C 
BRANCH  33  34
ATOM     34  N   UNL     1       7.095   5.829  18.092  0.00  0.00    +0.000 NA
ATOM     35  C   UNL     1       7.703   5.719  19.419  0.00  0.00    +0.000 C 
ATOM     36  C   UNL     1       7.519   7.096  17.478  0.00  0.00    +0.000 C 
ENDBRANCH  33  34
ENDBRANCH  32  33
ENDBRANCH  31  32
ENDBRANCH  30  31
ENDBRANCH  17  30
TORSDOF 8
ENDMDL
MODEL 2
REMARK VINA RESULT:      -7.9      1.381      1.677
REMARK  Name = 
REMARK  11 active torsions:
REMARK  status: ('A' for Active; 'I' for Inactive)
REMARK    1  A    between atoms: C_1  and  C_2
REMARK    2  A    between atoms: C_2  and  C_3
REMARK    3  A    between atoms: C_3  and  O_4
REMARK    4  A    between atoms: C_20  and  C_21
REMARK    5  A    between atoms: C_21  and  O_22
REMARK    6  A    between atoms: O_22  and  C_23
REMARK    7  A    between atoms: C_23  and  C_24
REMARK    8  A    between atoms: C_24  and  N_25
REMARK    9  A    between atoms: N_25  and  C_26
REMARK   10  A    between atoms: N_25  and  C_27
REMARK   11  A    between atoms: C_28  and  O_29
REMARK                            x       y       z     vdW  Elec       q    Type
REMARK                         _______ _______ _______ _____ _____    ______ ____
ROOT
ATOM      1  C   UNL     1      -1.839  12.125  19.444  0.00  0.00    +0.000 C 
ATOM      2  C   UNL     1      -1.126  13.510  19.349  0.00  0.00    +0.000 C 
ATOM      3  O   UNL     1      -0.846  14.243  20.284  0.00  0.00    +0.000 OA
ATOM      4  O   UNL     1      -0.525  13.652  18.158  0.00  0.00    +0.000 OA
ATOM      5  C   UNL     1       0.743  13.102  18.423  0.00  0.00    +0.000 C 
ATOM      6  C   UNL     1       0.616  11.715  19.028  0.00  0.00    +0.000 A 
ATOM      7  C   UNL     1      -0.479  11.184  19.657  0.00  0.00    +0.000 A 
ATOM      8  C   UNL     1      -0.298   9.668  20.054  0.00  0.00    +0.000 A 
ATOM      9  C   UNL     1       0.787   8.919  19.631  0.00  0.00    +0.000 A 
ATOM     10  N   UNL     1       1.689   9.589  18.808  0.00  0.00    +0.000 N 
ATOM     11  C   UNL     1       1.777  10.921  18.605  0.00  0.00    +0.000 A 
ATOM     12  O   UNL     1       2.724  11.435  18.012  0.00  0.00    +0.000 OA
ATOM     13  C   UNL     1       2.652   8.769  18.128  0.00  0.00    +0.000 C 
ATOM     14  C   UNL     1       2.473   7.439  18.769  0.00  0.00    +0.000 A 
ATOM     15  C   UNL     1       3.304   6.346  18.542  0.00  0.00    +0.000 A 
ATOM     16  C   UNL     1       3.211   5.222  19.325  0.00  0.00    +0.000 A 
ATOM     17  C   UNL     1       4.073   4.074  19.106  0.00  0.00    +0.000 A 
ATOM     18  C   UNL     1       4.008   3.043  20.042  0.00  0.00    +0.000 A 
ATOM     19  C   UNL     1       3.158   3.140  21.133  0.00  0.00    +0.000 A 
ATOM     20  C   UNL     1       2.288   4.255  21.270  0.00  0.00    +0.000 A 
ATOM     21  C   UNL     1       2.246   5.330  20.378  0.00  0.00    +0.000 A 
ATOM     22  N   UNL     1       1.350   6.431  20.550  0.00  0.00    +0.000 NA
ATOM     23  C   UNL     1       1.433   7.493  19.701  0.00  0.00    +0.000 A 
ENDROOT
BRANCH   1  25
ATOM     24  C   UNL     1      -4.667  12.326  19.607  0.00  0.00    +0.000 C 
ATOM     25  C   UNL     1      -3.227  12.685  20.091  0.00  0.00    +0.000 C 
ENDBRANCH   1  25
BRANCH   1  26
ATOM     26  O   UNL     1      -2.298  11.506  18.215  0.00  0.00    +0.000 OA
ATOM     27  H   UNL     1      -1.645  11.616  17.505  0.00  0.00    +0.000 HD
ENDBRANCH   1  26
BRANCH  18  28
ATOM     28  O   UNL     1       4.771   1.911  19.934  0.00  0.00    +0.000 OA
ATOM     29  H   UNL     1       4.985   1.790  18.986  0.00  0.00    +0.000 HD
ENDBRANCH  18  28
BRANCH  17  30
ATOM     30  C   UNL     1       5.087   3.937  17.963  0.00  0.00    +0.000 C 
BRANCH  30  31
ATOM     31  O   UNL     1       6.432   4.123  18.464  0.00  0.00    +0.000 OA
BRANCH  31  32
ATOM     32  C   UNL     1       7.364   4.534  17.438  0.00  0.00    +0.000 C 
BRANCH  32  33
ATOM     33  C   UNL     1       6.971   5.935  16.905  0.00  0.00    +0.000 C 
BRANCH  33  34
ATOM     34  N   UNL     1       6.559   6.010  15.483  0.00  0.00    +0.000 NA
ATOM     35  C   UNL     1       6.717   4.734  14.784  0.00  0.00    +0.000 C 
ATOM     36  C   UNL     1       5.153   6.432  15.390  0.00  0.00    +0.000 C 
ENDBRANCH  33  34
ENDBRANCH  32  33
ENDBRANCH  31  32
ENDBRANCH  30  31
ENDBRANCH  17  30
TORSDOF 8
ENDMDL
MODEL 3
REMARK VINA RESULT:      -7.8      1.530      2.063
REMARK  Name = 
REMARK  11 active torsions:
REMARK  status: ('A' for Active; 'I' for Inactive)
REMARK    1  A    between atoms: C_1  and  C_2
REMARK    2  A    between atoms: C_2  and  C_3
REMARK    3  A    between atoms: C_3  and  O_4
REMARK    4  A    between atoms: C_20  and  C_21
REMARK    5  A    between atoms: C_21  and  O_22
REMARK    6  A    between atoms: O_22  and  C_23
REMARK    7  A    between atoms: C_23  and  C_24
REMARK    8  A    between atoms: C_24  and  N_25
REMARK    9  A    between atoms: N_25  and  C_26
REMARK   10  A    between atoms: N_25  and  C_27
REMARK   11  A    between atoms: C_28  and  O_29
REMARK                            x       y       z     vdW  Elec       q    Type
REMARK                         _______ _______ _______ _____ _____    ______ ____
ROOT
ATOM      1  C   UNL     1      -1.807  12.779  20.774  0.00  0.00    +0.000 C 
ATOM      2  C   UNL     1      -1.154  14.192  20.663  0.00  0.00    +0.000 C 
ATOM      3  O   UNL     1      -0.637  14.821  21.572  0.00  0.00    +0.000 OA
ATOM      4  O   UNL     1      -0.896  14.495  19.380  0.00  0.00    +0.000 OA
ATOM      5  C   UNL     1       0.400  13.967  19.230  0.00  0.00    +0.000 C 
ATOM      6  C   UNL     1       0.449  12.515  19.672  0.00  0.00    +0.000 A 
ATOM      7  C   UNL     1      -0.434  11.873  20.500  0.00  0.00    +0.000 A 
ATOM      8  C   UNL     1      -0.144  10.329  20.646  0.00  0.00    +0.000 A 
ATOM      9  C   UNL     1       0.793   9.677  19.861  0.00  0.00    +0.000 A 
ATOM     10  N   UNL     1       1.436  10.473  18.916  0.00  0.00    +0.000 N 
ATOM     11  C   UNL     1       1.458  11.821  18.862  0.00  0.00    +0.000 A 
ATOM     12  O   UNL     1       2.208  12.437  18.106  0.00  0.00    +0.000 OA
ATOM     13  C   UNL     1       2.185   9.775  17.910  0.00  0.00    +0.000 C 
ATOM     14  C   UNL     1       2.194   8.374  18.407  0.00  0.00    +0.000 A 
ATOM     15  C   UNL     1       2.939   7.347  17.836  0.00  0.00    +0.000 A 
ATOM     16  C   UNL     1       3.068   6.137  18.471  0.00  0.00    +0.000 A 
ATOM     17  C   UNL     1       3.846   5.057  17.893  0.00  0.00    +0.000 A 
ATOM     18  C   UNL     1       4.041   3.922  18.678  0.00  0.00    +0.000 A 
ATOM     19  C   UNL     1       3.515   3.859  19.960  0.00  0.00    +0.000 A 
ATOM     20  C   UNL     1       2.707   4.916  20.459  0.00  0.00    +0.000 A 
ATOM     21  C   UNL     1       2.421   6.085  19.748  0.00  0.00    +0.000 A 
ATOM     22  N   UNL     1       1.597   7.122  20.286  0.00  0.00    +0.000 NA
ATOM     23  C   UNL     1       1.442   8.279  19.582  0.00  0.00    +0.000 A 
ENDROOT
BRANCH   1  25
ATOM     24  C   UNL     1      -3.085  12.719  23.308  0.00  0.00    +0.000 C 
ATOM     25  C   UNL     1      -2.973  13.205  21.829  0.00  0.00    +0.000 C 
ENDBRANCH   1  25
BRANCH   1  26
ATOM     26  O   UNL     1      -2.575  12.290  19.645  0.00  0.00    +0.000 OA
ATOM     27  H   UNL     1      -3.370  12.829  19.504  0.00  0.00    +0.000 HD
ENDBRANCH   1  26
BRANCH  18  28
ATOM     28  O   UNL     1       4.754   2.841  18.234  0.00  0.00    +0.000 OA
ATOM     29  H   UNL     1       5.289   3.136  17.468  0.00  0.00    +0.000 HD
ENDBRANCH  18  28
BRANCH  17  30
ATOM     30  C   UNL     1       4.517   5.093  16.513  0.00  0.00    +0.000 C 
BRANCH  30  31
ATOM     31  O   UNL     1       5.953   5.191  16.658  0.00  0.00    +0.000 OA
BRANCH  31  32
ATOM     32  C   UNL     1       6.657   5.074  15.401  0.00  0.00    +0.000 C 
BRANCH  32  33
ATOM     33  C   UNL     1       6.173   3.809  14.647  0.00  0.00    +0.000 C 
BRANCH  33  34
ATOM     34  N   UNL     1       6.632   3.659  13.245  0.00  0.00    +0.000 NA
ATOM     35  C   UNL     1       5.525   3.446  12.312  0.00  0.00    +0.000 C 
ATOM     36  C   UNL     1       7.379   4.856  12.832  0.00  0.00    +0.000 C 
ENDBRANCH  33  34
ENDBRANCH  32  33
ENDBRANCH  31  32
ENDBRANCH  30  31
ENDBRANCH  17  30
TORSDOF 8
ENDMDL
MODEL 4
REMARK VINA RESULT:      -7.8      1.335      1.799
REMARK  Name = 
REMARK  11 active torsions:
REMARK  status: ('A' for Active; 'I' for Inactive)
REMARK    1  A    between atoms: C_1  and  C_2
REMARK    2  A    between atoms: C_2  and  C_3
REMARK    3  A    between atoms: C_3  and  O_4
REMARK    4  A    between atoms: C_20  and  C_21
REMARK    5  A    between atoms: C_21  and  O_22
REMARK    6  A    between atoms: O_22  and  C_23
REMARK    7  A    between atoms: C_23  and  C_24
REMARK    8  A    between atoms: C_24  and  N_25
REMARK    9  A    between atoms: N_25  and  C_26
REMARK   10  A    between atoms: N_25  and  C_27
REMARK   11  A    between atoms: C_28  and  O_29
REMARK                            x       y       z     vdW  Elec       q    Type
REMARK                         _______ _______ _______ _____ _____    ______ ____
ROOT
ATOM      1  C   UNL     1      -1.774  12.740  20.141  0.00  0.00    +0.000 C 
ATOM      2  C   UNL     1      -1.047  14.116  20.019  0.00  0.00    +0.000 C 
ATOM      3  O   UNL     1      -0.609  14.784  20.941  0.00  0.00    +0.000 OA
ATOM      4  O   UNL     1      -0.630  14.320  18.760  0.00  0.00    +0.000 OA
ATOM      5  C   UNL     1       0.649  13.733  18.796  0.00  0.00    +0.000 C 
ATOM      6  C   UNL     1       0.578  12.314  19.331  0.00  0.00    +0.000 A 
ATOM      7  C   UNL     1      -0.423  11.765  20.088  0.00  0.00    +0.000 A 
ATOM      8  C   UNL     1      -0.224  10.224  20.364  0.00  0.00    +0.000 A 
ATOM      9  C   UNL     1       0.765   9.483  19.737  0.00  0.00    +0.000 A 
ATOM     10  N   UNL     1       1.549  10.187  18.826  0.00  0.00    +0.000 N 
ATOM     11  C   UNL     1       1.640  11.527  18.690  0.00  0.00    +0.000 A 
ATOM     12  O   UNL     1       2.500  12.060  17.990  0.00  0.00    +0.000 OA
ATOM     13  C   UNL     1       2.375   9.394  17.961  0.00  0.00    +0.000 C 
ATOM     14  C   UNL     1       2.261   8.031  18.543  0.00  0.00    +0.000 A 
ATOM     15  C   UNL     1       3.018   6.939  18.129  0.00  0.00    +0.000 A 
ATOM     16  C   UNL     1       3.016   5.771  18.849  0.00  0.00    +0.000 A 
ATOM     17  C   UNL     1       3.803   4.624  18.435  0.00  0.00    +0.000 A 
ATOM     18  C   UNL     1       3.854   3.539  19.308  0.00  0.00    +0.000 A 
ATOM     19  C   UNL     1       3.182   3.584  20.520  0.00  0.00    +0.000 A 
ATOM     20  C   UNL     1       2.372   4.702  20.853  0.00  0.00    +0.000 A 
ATOM     21  C   UNL     1       2.225   5.831  20.042  0.00  0.00    +0.000 A 
ATOM     22  N   UNL     1       1.394   6.934  20.414  0.00  0.00    +0.000 NA
ATOM     23  C   UNL     1       1.376   8.045  19.625  0.00  0.00    +0.000 A 
ENDROOT
BRANCH   1  25
ATOM     24  C   UNL     1      -4.535  12.941  20.774  0.00  0.00    +0.000 C 
ATOM     25  C   UNL     1      -3.032  13.283  21.024  0.00  0.00    +0.000 C 
ENDBRANCH   1  25
BRANCH   1  26
ATOM     26  O   UNL     1      -2.430  12.206  18.963  0.00  0.00    +0.000 OA
ATOM     27  H   UNL     1      -1.800  12.097  18.233  0.00  0.00    +0.000 HD
ENDBRANCH   1  26
BRANCH  18  28
ATOM     28  O   UNL     1       4.562   2.403  19.020  0.00  0.00    +0.000 OA
ATOM     29  H   UNL     1       5.510   2.603  19.162  0.00  0.00    +0.000 HD
ENDBRANCH  18  28
BRANCH  17  30
ATOM     30  C   UNL     1       4.629   4.540  17.144  0.00  0.00    +0.000 C 
BRANCH  30  31
ATOM     31  O   UNL     1       6.042   4.593  17.451  0.00  0.00    +0.000 OA
BRANCH  31  32
ATOM     32  C   UNL     1       6.876   4.175  16.346  0.00  0.00    +0.000 C 
BRANCH  32  33
ATOM     33  C   UNL     1       7.121   5.372  15.393  0.00  0.00    +0.000 C 
BRANCH  33  34
ATOM     34  N   UNL     1       6.781   5.162  13.965  0.00  0.00    +0.000 NA
ATOM     35  C   UNL     1       7.936   5.327  13.082  0.00  0.00    +0.000 C 
ATOM     36  C   UNL     1       6.227   3.812  13.776  0.00  0.00    +0.000 C 
ENDBRANCH  33  34
ENDBRANCH  32  33
ENDBRANCH  31  32
ENDBRANCH  30  31
ENDBRANCH  17  30
TORSDOF 8
ENDMDL
MODEL 5
REMARK VINA RESULT:      -7.5      0.974      1.127
REMARK  Name = 
REMARK  11 active torsions:
REMARK  status: ('A' for Active; 'I' for Inactive)
REMARK    1  A    between atoms: C_1  and  C_2
REMARK    2  A    between atoms: C_2  and  C_3
REMARK    3  A    between atoms: C_3  and  O_4
REMARK    4  A    between atoms: C_20  and  C_21
REMARK    5  A    between atoms: C_21  and  O_22
REMARK    6  A    between atoms: O_22  and  C_23
REMARK    7  A    between atoms: C_23  and  C_24
REMARK    8  A    between atoms: C_24  and  N_25
REMARK    9  A    between atoms: N_25  and  C_26
REMARK   10  A    between atoms: N_25  and  C_27
REMARK   11  A    between atoms: C_28  and  O_29
REMARK                            x       y       z     vdW  Elec       q    Type
REMARK                         _______ _______ _______ _____ _____    ______ ____
ROOT
ATOM      1  C   UNL     1      -0.539  13.281  20.884  0.00  0.00    +0.000 C 
ATOM      2  C   UNL     1       0.359  14.463  20.402  0.00  0.00    +0.000 C 
ATOM      3  O   UNL     1       1.180  15.066  21.074  0.00  0.00    +0.000 OA
ATOM      4  O   UNL     1       0.394  14.514  19.061  0.00  0.00    +0.000 OA
ATOM      5  C   UNL     1       1.486  13.671  18.783  0.00  0.00    +0.000 C 
ATOM      6  C   UNL     1       1.321  12.326  19.469  0.00  0.00    +0.000 A 
ATOM      7  C   UNL     1       0.521  12.039  20.543  0.00  0.00    +0.000 A 
ATOM      8  C   UNL     1       0.503  10.506  20.917  0.00  0.00    +0.000 A 
ATOM      9  C   UNL     1       1.090   9.543  20.112  0.00  0.00    +0.000 A 
ATOM     10  N   UNL     1       1.668  10.021  18.938  0.00  0.00    +0.000 N 
ATOM     11  C   UNL     1       1.963  11.302  18.634  0.00  0.00    +0.000 A 
ATOM     12  O   UNL     1       2.645  11.607  17.657  0.00  0.00    +0.000 OA
ATOM     13  C   UNL     1       2.020   9.030  17.961  0.00  0.00    +0.000 C 
ATOM     14  C   UNL     1       1.838   7.751  18.697  0.00  0.00    +0.000 A 
ATOM     15  C   UNL     1       2.210   6.505  18.202  0.00  0.00    +0.000 A 
ATOM     16  C   UNL     1       2.213   5.399  19.016  0.00  0.00    +0.000 A 
ATOM     17  C   UNL     1       2.602   4.093  18.517  0.00  0.00    +0.000 A 
ATOM     18  C   UNL     1       2.718   3.065  19.451  0.00  0.00    +0.000 A 
ATOM     19  C   UNL     1       2.478   3.309  20.794  0.00  0.00    +0.000 A 
ATOM     20  C   UNL     1       2.038   4.589  21.225  0.00  0.00    +0.000 A 
ATOM     21  C   UNL     1       1.859   5.683  20.374  0.00  0.00    +0.000 A 
ATOM     22  N   UNL     1       1.408   6.954  20.850  0.00  0.00    +0.000 NA
ATOM     23  C   UNL     1       1.354   8.005  19.984  0.00  0.00    +0.000 A 
ENDROOT
BRANCH   1  25
ATOM     24  C   UNL     1      -1.693  13.596  23.459  0.00  0.00    +0.000 C 
ATOM     25  C   UNL     1      -1.334  14.120  22.033  0.00  0.00    +0.000 C 
ENDBRANCH   1  25
BRANCH   1  26
ATOM     26  O   UNL     1      -1.617  12.843  20.019  0.00  0.00    +0.000 OA
ATOM     27  H   UNL     1      -2.465  13.222  20.300  0.00  0.00    +0.000 HD
ENDBRANCH   1  26
BRANCH  18  28
ATOM     28  O   UNL     1       3.074   1.792  19.094  0.00  0.00    +0.000 OA
ATOM     29  H   UNL     1       2.991   1.725  18.120  0.00  0.00    +0.000 HD
ENDBRANCH  18  28
BRANCH  17  30
ATOM     30  C   UNL     1       2.954   3.774  17.057  0.00  0.00    +0.000 C 
BRANCH  30  31
ATOM     31  O   UNL     1       4.375   3.535  16.926  0.00  0.00    +0.000 OA
BRANCH  31  32
ATOM     32  C   UNL     1       5.170   4.721  17.153  0.00  0.00    +0.000 C 
BRANCH  32  33
ATOM     33  C   UNL     1       5.857   4.632  18.540  0.00  0.00    +0.000 C 
BRANCH  33  34
ATOM     34  N   UNL     1       7.340   4.656  18.546  0.00  0.00    +0.000 NA
ATOM     35  C   UNL     1       7.910   4.502  17.206  0.00  0.00    +0.000 C 
ATOM     36  C   UNL     1       7.818   5.921  19.124  0.00  0.00    +0.000 C 
ENDBRANCH  33  34
ENDBRANCH  32  33
ENDBRANCH  31  32
ENDBRANCH  30  31
ENDBRANCH  17  30
TORSDOF 8
ENDMDL
MODEL 6
REMARK VINA RESULT:      -7.5      1.872      4.017
REMARK  Name = 
REMARK  11 active torsions:
REMARK  status: ('A' for Active; 'I' for Inactive)
REMARK    1  A    between atoms: C_1  and  C_2
REMARK    2  A    between atoms: C_2  and  C_3
REMARK    3  A    between atoms: C_3  and  O_4
REMARK    4  A    between atoms: C_20  and  C_21
REMARK    5  A    between atoms: C_21  and  O_22
REMARK    6  A    between atoms: O_22  and  C_23
REMARK    7  A    between atoms: C_23  and  C_24
REMARK    8  A    between atoms: C_24  and  N_25
REMARK    9  A    between atoms: N_25  and  C_26
REMARK   10  A    between atoms: N_25  and  C_27
REMARK   11  A    between atoms: C_28  and  O_29
REMARK                            x       y       z     vdW  Elec       q    Type
REMARK                         _______ _______ _______ _____ _____    ______ ____
ROOT
ATOM      1  C   UNL     1       0.643  13.405  20.088  0.00  0.00    +0.000 C 
ATOM      2  C   UNL     1      -0.825  13.375  20.618  0.00  0.00    +0.000 C 
ATOM      3  O   UNL     1      -1.831  13.615  19.970  0.00  0.00    +0.000 OA
ATOM      4  O   UNL     1      -0.895  12.705  21.779  0.00  0.00    +0.000 OA
ATOM      5  C   UNL     1      -1.114  11.391  21.324  0.00  0.00    +0.000 C 
ATOM      6  C   UNL     1      -0.066  10.991  20.301  0.00  0.00    +0.000 A 
ATOM      7  C   UNL     1       0.721  11.827  19.553  0.00  0.00    +0.000 A 
ATOM      8  C   UNL     1       1.789  11.063  18.677  0.00  0.00    +0.000 A 
ATOM      9  C   UNL     1       2.016   9.703  18.811  0.00  0.00    +0.000 A 
ATOM     10  N   UNL     1       1.258   9.066  19.792  0.00  0.00    +0.000 N 
ATOM     11  C   UNL     1       0.163   9.545  20.418  0.00  0.00    +0.000 A 
ATOM     12  O   UNL     1      -0.550   8.839  21.128  0.00  0.00    +0.000 OA
ATOM     13  C   UNL     1       1.675   7.739  20.146  0.00  0.00    +0.000 C 
ATOM     14  C   UNL     1       2.690   7.416  19.109  0.00  0.00    +0.000 A 
ATOM     15  C   UNL     1       3.270   6.161  18.948  0.00  0.00    +0.000 A 
ATOM     16  C   UNL     1       4.032   5.878  17.842  0.00  0.00    +0.000 A 
ATOM     17  C   UNL     1       4.641   4.574  17.657  0.00  0.00    +0.000 A 
ATOM     18  C   UNL     1       5.270   4.334  16.436  0.00  0.00    +0.000 A 
ATOM     19  C   UNL     1       5.288   5.312  15.454  0.00  0.00    +0.000 A 
ATOM     20  C   UNL     1       4.734   6.595  15.706  0.00  0.00    +0.000 A 
ATOM     21  C   UNL     1       4.106   6.956  16.902  0.00  0.00    +0.000 A 
ATOM     22  N   UNL     1       3.566   8.262  17.116  0.00  0.00    +0.000 NA
ATOM     23  C   UNL     1       2.878   8.515  18.265  0.00  0.00    +0.000 A 
ENDROOT
BRANCH   1  25
ATOM     24  C   UNL     1       1.683  15.675  18.737  0.00  0.00    +0.000 C 
ATOM     25  C   UNL     1       0.655  14.984  19.687  0.00  0.00    +0.000 C 
ENDBRANCH   1  25
BRANCH   1  26
ATOM     26  O   UNL     1       1.721  13.322  21.055  0.00  0.00    +0.000 OA
ATOM     27  H   UNL     1       1.719  14.092  21.646  0.00  0.00    +0.000 HD
ENDBRANCH   1  26
BRANCH  18  28
ATOM     28  O   UNL     1       5.881   3.142  16.152  0.00  0.00    +0.000 OA
ATOM     29  H   UNL     1       5.287   2.641  15.555  0.00  0.00    +0.000 HD
ENDBRANCH  18  28
BRANCH  17  30
ATOM     30  C   UNL     1       4.593   3.424  18.672  0.00  0.00    +0.000 C 
BRANCH  30  31
ATOM     31  O   UNL     1       3.820   2.321  18.142  0.00  0.00    +0.000 OA
BRANCH  31  32
ATOM     32  C   UNL     1       2.394   2.530  18.248  0.00  0.00    +0.000 C 
BRANCH  32  33
ATOM     33  C   UNL     1       1.852   1.809  19.509  0.00  0.00    +0.000 C 
BRANCH  33  34
ATOM     34  N   UNL     1       1.284   2.671  20.572  0.00  0.00    +0.000 NA
ATOM     35  C   UNL     1       2.240   2.938  21.649  0.00  0.00    +0.000 C 
ATOM     36  C   UNL     1       0.846   3.952  19.997  0.00  0.00    +0.000 C 
ENDBRANCH  33  34
ENDBRANCH  32  33
ENDBRANCH  31  32
ENDBRANCH  30  31
ENDBRANCH  17  30
TORSDOF 8
ENDMDL
MODEL 7
REMARK VINA RESULT:      -7.4      2.875      5.053
REMARK  Name = 
REMARK  11 active torsions:
REMARK  status: ('A' for Active; 'I' for Inactive)
REMARK    1  A    between atoms: C_1  and  C_2
REMARK    2  A    between atoms: C_2  and  C_3
REMARK    3  A    between atoms: C_3  and  O_4
REMARK    4  A    between atoms: C_20  and  C_21
REMARK    5  A    between atoms: C_21  and  O_22
REMARK    6  A    between atoms: O_22  and  C_23
REMARK    7  A    between atoms: C_23  and  C_24
REMARK    8  A    between atoms: C_24  and  N_25
REMARK    9  A    between atoms: N_25  and  C_26
REMARK   10  A    between atoms: N_25  and  C_27
REMARK   11  A    between atoms: C_28  and  O_29
REMARK                            x       y       z     vdW  Elec       q    Type
REMARK                         _______ _______ _______ _____ _____    ______ ____
ROOT
ATOM      1  C   UNL     1      -1.322  15.689  22.869  0.00  0.00    +0.000 C 
ATOM      2  C   UNL     1      -2.764  15.692  23.467  0.00  0.00    +0.000 C 
ATOM      3  O   UNL     1      -3.787  16.012  22.882  0.00  0.00    +0.000 OA
ATOM      4  O   UNL     1      -2.812  14.959  24.591  0.00  0.00    +0.000 OA
ATOM      5  C   UNL     1      -3.111  13.685  24.074  0.00  0.00    +0.000 C 
ATOM      6  C   UNL     1      -2.130  13.300  22.980  0.00  0.00    +0.000 A 
ATOM      7  C   UNL     1      -1.341  14.143  22.243  0.00  0.00    +0.000 A 
ATOM      8  C   UNL     1      -0.350  13.386  21.275  0.00  0.00    +0.000 A 
ATOM      9  C   UNL     1      -0.180  12.012  21.322  0.00  0.00    +0.000 A 
ATOM     10  N   UNL     1      -0.920  11.352  22.301  0.00  0.00    +0.000 N 
ATOM     11  C   UNL     1      -1.962  11.841  23.005  0.00  0.00    +0.000 A 
ATOM     12  O   UNL     1      -2.674  11.126  23.709  0.00  0.00    +0.000 OA
ATOM     13  C   UNL     1      -0.548   9.991  22.560  0.00  0.00    +0.000 C 
ATOM     14  C   UNL     1       0.402   9.685  21.458  0.00  0.00    +0.000 A 
ATOM     15  C   UNL     1       0.917   8.418  21.200  0.00  0.00    +0.000 A 
ATOM     16  C   UNL     1       1.613   8.167  20.044  0.00  0.00    +0.000 A 
ATOM     17  C   UNL     1       2.153   6.850  19.757  0.00  0.00    +0.000 A 
ATOM     18  C   UNL     1       2.714   6.655  18.496  0.00  0.00    +0.000 A 
ATOM     19  C   UNL     1       2.730   7.686  17.570  0.00  0.00    +0.000 A 
ATOM     20  C   UNL     1       2.248   8.975  17.920  0.00  0.00    +0.000 A 
ATOM     21  C   UNL     1       1.693   9.293  19.163  0.00  0.00    +0.000 A 
ATOM     22  N   UNL     1       1.224  10.606  19.476  0.00  0.00    +0.000 NA
ATOM     23  C   UNL     1       0.601  10.821  20.669  0.00  0.00    +0.000 A 
ENDROOT
BRANCH   1  25
ATOM     24  C   UNL     1      -1.254  17.939  21.138  0.00  0.00    +0.000 C 
ATOM     25  C   UNL     1      -1.257  17.287  22.556  0.00  0.00    +0.000 C 
ENDBRANCH   1  25
BRANCH   1  26
ATOM     26  O   UNL     1      -0.206  15.504  23.776  0.00  0.00    +0.000 OA
ATOM     27  H   UNL     1       0.355  16.296  23.804  0.00  0.00    +0.000 HD
ENDBRANCH   1  26
BRANCH  18  28
ATOM     28  O   UNL     1       3.256   5.456  18.116  0.00  0.00    +0.000 OA
ATOM     29  H   UNL     1       2.740   4.748  18.554  0.00  0.00    +0.000 HD
ENDBRANCH  18  28
BRANCH  17  30
ATOM     30  C   UNL     1       2.099   5.646  20.708  0.00  0.00    +0.000 C 
BRANCH  30  31
ATOM     31  O   UNL     1       0.872   4.907  20.508  0.00  0.00    +0.000 OA
BRANCH  31  32
ATOM     32  C   UNL     1       1.030   3.485  20.714  0.00  0.00    +0.000 C 
BRANCH  32  33
ATOM     33  C   UNL     1       2.536   3.137  20.832  0.00  0.00    +0.000 C 
BRANCH  33  34
ATOM     34  N   UNL     1       3.069   2.164  19.849  0.00  0.00    +0.000 NA
ATOM     35  C   UNL     1       2.295   2.139  18.606  0.00  0.00    +0.000 C 
ATOM     36  C   UNL     1       4.468   2.489  19.531  0.00  0.00    +0.000 C 
ENDBRANCH  33  34
ENDBRANCH  32  33
ENDBRANCH  31  32
ENDBRANCH  30  31
ENDBRANCH  17  30
TORSDOF 8
ENDMDL
MODEL 8
REMARK VINA RESULT:      -7.2      1.344      1.978
REMARK  Name = 
REMARK  11 active torsions:
REMARK  status: ('A' for Active; 'I' for Inactive)
REMARK    1  A    between atoms: C_1  and  C_2
REMARK    2  A    between atoms: C_2  and  C_3
REMARK    3  A    between atoms: C_3  and  O_4
REMARK    4  A    between atoms: C_20  and  C_21
REMARK    5  A    between atoms: C_21  and  O_22
REMARK    6  A    between atoms: O_22  and  C_23
REMARK    7  A    between atoms: C_23  and  C_24
REMARK    8  A    between atoms: C_24  and  N_25
REMARK    9  A    between atoms: N_25  and  C_26
REMARK   10  A    between atoms: N_25  and  C_27
REMARK   11  A    between atoms: C_28  and  O_29
REMARK                            x       y       z     vdW  Elec       q    Type
REMARK                         _______ _______ _______ _____ _____    ______ ____
ROOT
ATOM      1  C   UNL     1      -2.546  12.847  21.558  0.00  0.00    +0.000 C 
ATOM      2  C   UNL     1      -2.056  14.326  21.655  0.00  0.00    +0.000 C 
ATOM      3  O   UNL     1      -1.592  14.868  22.645  0.00  0.00    +0.000 OA
ATOM      4  O   UNL     1      -1.862  14.841  20.431  0.00  0.00    +0.000 OA
ATOM      5  C   UNL     1      -0.520  14.491  20.195  0.00  0.00    +0.000 C 
ATOM      6  C   UNL     1      -0.300  13.005  20.416  0.00  0.00    +0.000 A 
ATOM      7  C   UNL     1      -1.088  12.152  21.144  0.00  0.00    +0.000 A 
ATOM      8  C   UNL     1      -0.625  10.646  21.056  0.00  0.00    +0.000 A 
ATOM      9  C   UNL     1       0.360  10.227  20.177  0.00  0.00    +0.000 A 
ATOM     10  N   UNL     1       0.890  11.221  19.357  0.00  0.00    +0.000 N 
ATOM     11  C   UNL     1       0.761  12.557  19.505  0.00  0.00    +0.000 A 
ATOM     12  O   UNL     1       1.420  13.358  18.845  0.00  0.00    +0.000 OA
ATOM     13  C   UNL     1       1.688  10.769  18.254  0.00  0.00    +0.000 C 
ATOM     14  C   UNL     1       1.863   9.320  18.537  0.00  0.00    +0.000 A 
ATOM     15  C   UNL     1       2.705   8.479  17.814  0.00  0.00    +0.000 A 
ATOM     16  C   UNL     1       2.981   7.211  18.261  0.00  0.00    +0.000 A 
ATOM     17  C   UNL     1       3.860   6.322  17.523  0.00  0.00    +0.000 A 
ATOM     18  C   UNL     1       4.197   5.114  18.130  0.00  0.00    +0.000 A 
ATOM     19  C   UNL     1       3.711   4.803  19.390  0.00  0.00    +0.000 A 
ATOM     20  C   UNL     1       2.802   5.676  20.046  0.00  0.00    +0.000 A 
ATOM     21  C   UNL     1       2.372   6.898  19.520  0.00  0.00    +0.000 A 
ATOM     22  N   UNL     1       1.451   7.745  20.211  0.00  0.00    +0.000 NA
ATOM     23  C   UNL     1       1.154   8.968  19.689  0.00  0.00    +0.000 A 
ENDROOT
BRANCH   1  25
ATOM     24  C   UNL     1      -3.732  12.304  24.080  0.00  0.00    +0.000 C 
ATOM     25  C   UNL     1      -3.728  12.979  22.672  0.00  0.00    +0.000 C 
ENDBRANCH   1  25
BRANCH   1  26
ATOM     26  O   UNL     1      -3.281  12.446  20.373  0.00  0.00    +0.000 OA
ATOM     27  H   UNL     1      -3.049  11.542  20.108  0.00  0.00    +0.000 HD
ENDBRANCH   1  26
BRANCH  18  28
ATOM     28  O   UNL     1       5.016   4.197  17.525  0.00  0.00    +0.000 OA
ATOM     29  H   UNL     1       4.444   3.505  17.134  0.00  0.00    +0.000 HD
ENDBRANCH  18  28
BRANCH  17  30
ATOM     30  C   UNL     1       4.492   6.637  16.160  0.00  0.00    +0.000 C 
BRANCH  30  31
ATOM     31  O   UNL     1       5.935   6.595  16.256  0.00  0.00    +0.000 OA
BRANCH  31  32
ATOM     32  C   UNL     1       6.461   7.504  17.249  0.00  0.00    +0.000 C 
BRANCH  32  33
ATOM     33  C   UNL     1       7.701   6.873  17.932  0.00  0.00    +0.000 C 
BRANCH  33  34
ATOM     34  N   UNL     1       7.489   5.577  18.621  0.00  0.00    +0.000 NA
ATOM     35  C   UNL     1       8.022   4.444  17.864  0.00  0.00    +0.000 C 
ATOM     36  C   UNL     1       8.126   5.605  19.947  0.00  0.00    +0.000 C 
ENDBRANCH  33  34
ENDBRANCH  32  33
ENDBRANCH  31  32
ENDBRANCH  30  31
ENDBRANCH  17  30
TORSDOF 8
ENDMDL
MODEL 9
REMARK VINA RESULT:      -7.1      2.358      9.724
REMARK  Name = 
REMARK  11 active torsions:
REMARK  status: ('A' for Active; 'I' for Inactive)
REMARK    1  A    between atoms: C_1  and  C_2
REMARK    2  A    between atoms: C_2  and  C_3
REMARK    3  A    between atoms: C_3  and  O_4
REMARK    4  A    between atoms: C_20  and  C_21
REMARK    5  A    between atoms: C_21  and  O_22
REMARK    6  A    between atoms: O_22  and  C_23
REMARK    7  A    between atoms: C_23  and  C_24
REMARK    8  A    between atoms: C_24  and  N_25
REMARK    9  A    between atoms: N_25  and  C_26
REMARK   10  A    between atoms: N_25  and  C_27
REMARK   11  A    between atoms: C_28  and  O_29
REMARK                            x       y       z     vdW  Elec       q    Type
REMARK                         _______ _______ _______ _____ _____    ______ ____
ROOT
ATOM      1  C   UNL     1       2.775   4.843  17.953  0.00  0.00    +0.000 C 
ATOM      2  C   UNL     1       2.928   3.966  19.236  0.00  0.00    +0.000 C 
ATOM      3  O   UNL     1       3.976   3.668  19.784  0.00  0.00    +0.000 OA
ATOM      4  O   UNL     1       1.757   3.870  19.885  0.00  0.00    +0.000 OA
ATOM      5  C   UNL     1       1.823   4.990  20.735  0.00  0.00    +0.000 C 
ATOM      6  C   UNL     1       2.131   6.251  19.947  0.00  0.00    +0.000 A 
ATOM      7  C   UNL     1       2.701   6.330  18.704  0.00  0.00    +0.000 A 
ATOM      8  C   UNL     1       2.761   7.801  18.136  0.00  0.00    +0.000 A 
ATOM      9  C   UNL     1       2.124   8.860  18.762  0.00  0.00    +0.000 A 
ATOM     10  N   UNL     1       1.404   8.529  19.909  0.00  0.00    +0.000 N 
ATOM     11  C   UNL     1       1.480   7.383  20.619  0.00  0.00    +0.000 A 
ATOM     12  O   UNL     1       0.950   7.257  21.721  0.00  0.00    +0.000 OA
ATOM     13  C   UNL     1       0.510   9.536  20.404  0.00  0.00    +0.000 C 
ATOM     14  C   UNL     1       0.868  10.732  19.596  0.00  0.00    +0.000 A 
ATOM     15  C   UNL     1       0.367  12.009  19.827  0.00  0.00    +0.000 A 
ATOM     16  C   UNL     1       0.901  13.098  19.185  0.00  0.00    +0.000 A 
ATOM     17  C   UNL     1       0.394  14.439  19.417  0.00  0.00    +0.000 A 
ATOM     18  C   UNL     1       1.096  15.493  18.836  0.00  0.00    +0.000 A 
ATOM     19  C   UNL     1       2.234  15.247  18.084  0.00  0.00    +0.000 A 
ATOM     20  C   UNL     1       2.655  13.914  17.831  0.00  0.00    +0.000 A 
ATOM     21  C   UNL     1       2.011  12.781  18.337  0.00  0.00    +0.000 A 
ATOM     22  N   UNL     1       2.466  11.455  18.054  0.00  0.00    +0.000 NA
ATOM     23  C   UNL     1       1.854  10.400  18.662  0.00  0.00    +0.000 A 
ENDROOT
BRANCH   1  25
ATOM     24  C   UNL     1       4.912   4.227  16.189  0.00  0.00    +0.000 C 
ATOM     25  C   UNL     1       3.609   3.854  16.962  0.00  0.00    +0.000 C 
ENDBRANCH   1  25
BRANCH   1  26
ATOM     26  O   UNL     1       1.474   4.898  17.313  0.00  0.00    +0.000 OA
ATOM     27  H   UNL     1       0.872   5.484  17.799  0.00  0.00    +0.000 HD
ENDBRANCH   1  26
BRANCH  18  28
ATOM     28  O   UNL     1       0.707  16.798  18.985  0.00  0.00    +0.000 OA
ATOM     29  H   UNL     1       0.637  16.976  19.945  0.00  0.00    +0.000 HD
ENDBRANCH  18  28
BRANCH  17  30
ATOM     30  C   UNL     1      -0.813  14.785  20.299  0.00  0.00    +0.000 C 
BRANCH  30  31
ATOM     31  O   UNL     1      -0.380  15.064  21.652  0.00  0.00    +0.000 OA
BRANCH  31  32
ATOM     32  C   UNL     1      -0.887  14.112  22.614  0.00  0.00    +0.000 C 
BRANCH  32  33
ATOM     33  C   UNL     1      -2.221  13.510  22.102  0.00  0.00    +0.000 C 
BRANCH  33  34
ATOM     34  N   UNL     1      -2.615  12.198  22.668  0.00  0.00    +0.000 NA
ATOM     35  C   UNL     1      -1.463  11.385  23.059  0.00  0.00    +0.000 C 
ATOM     36  C   UNL     1      -3.476  12.399  23.844  0.00  0.00    +0.000 C 
ENDBRANCH  33  34
ENDBRANCH  32  33
ENDBRANCH  31  32
ENDBRANCH  30  31
ENDBRANCH  17  30
TORSDOF 8
ENDMDL
