MODEL 1
REMARK VINA RESULT:      -8.4      0.000      0.000
REMARK  Name = 
REMARK  14 active torsions:
REMARK  status: ('A' for Active; 'I' for Inactive)
REMARK    1  A    between atoms: C_1  and  C_2
REMARK    2  A    between atoms: C_3  and  O_4
REMARK    3  A    between atoms: C_6  and  C_7
REMARK    4  A    between atoms: C_7  and  C_8
REMARK    5  A    between atoms: C_7  and  C_9
REMARK    6  A    between atoms: C_9  and  C_10
REMARK    7  A    between atoms: C_10  and  C_11
REMARK    8  A    between atoms: C_12  and  C_13
REMARK    9  A    between atoms: C_12  and  C_14
REMARK   10  A    between atoms: C_14  and  C_15
REMARK   11  A    between atoms: C_15  and  C_16
REMARK   12  A    between atoms: C_16  and  C_17
REMARK   13  A    between atoms: C_20  and  C_21
REMARK   14  A    between atoms: C_21  and  C_22
REMARK                            x       y       z     vdW  Elec       q    Type
REMARK                         _______ _______ _______ _____ _____    ______ ____
ROOT
ATOM      1  C   UNL     1       1.525   4.064  18.947  0.00  0.00    +0.000 C 
ATOM      2  C   UNL     1       1.829   5.295  19.406  0.00  0.00    +0.000 C 
ATOM      3  C   UNL     1       1.516   5.639  20.837  0.00  0.00    +0.000 C 
ENDROOT
BRANCH   1   4
ATOM      4  C   UNL     1       1.798   3.636  17.541  0.00  0.00    +0.000 C 
BRANCH   4   5
ATOM      5  C   UNL     1       2.660   2.380  17.417  0.00  0.00    +0.000 C 
BRANCH   5   6
ATOM      6  C   UNL     1       4.136   2.678  17.741  0.00  0.00    +0.000 C 
ATOM      7  C   UNL     1       4.387   2.667  19.261  0.00  0.00    +0.000 C 
BRANCH   6  12
ATOM      8  C   UNL     1       7.813   7.716  17.630  0.00  0.00    +0.000 C 
ATOM      9  C   UNL     1       7.041   6.459  17.688  0.00  0.00    +0.000 C 
ATOM     10  C   UNL     1       6.023   5.981  16.983  0.00  0.00    +0.000 C 
ATOM     11  C   UNL     1       5.610   4.722  17.491  0.00  0.00    +0.000 C 
ATOM     12  C   UNL     1       4.535   4.003  17.128  0.00  0.00    +0.000 C 
ATOM     13  O   UNL     1       6.474   4.335  18.508  0.00  0.00    +0.000 OA
ATOM     14  C   UNL     1       7.306   5.408  18.686  0.00  0.00    +0.000 C 
ATOM     15  O   UNL     1       8.166   5.496  19.550  0.00  0.00    +0.000 OA
BRANCH  10  16
ATOM     16  O   UNL     1       5.381   6.553  15.921  0.00  0.00    +0.000 OA
ATOM     17  H   UNL     1       4.473   6.766  16.176  0.00  0.00    +0.000 HD
ENDBRANCH  10  16
ENDBRANCH   6  12
ENDBRANCH   5   6
ENDBRANCH   4   5
ENDBRANCH   1   4
BRANCH   2  18
ATOM     18  C   UNL     1       2.519   6.320  18.520  0.00  0.00    +0.000 C 
BRANCH  18  19
ATOM     19  C   UNL     1       2.326   7.783  18.927  0.00  0.00    +0.000 C 
BRANCH  19  20
ATOM     20  C   UNL     1       2.061   8.728  17.771  0.00  0.00    +0.000 C 
BRANCH  20  21
ATOM     21  C   UNL     1       1.226   9.881  18.170  0.00  0.00    +0.000 A 
ATOM     22  C   UNL     1       1.620  11.112  18.592  0.00  0.00    +0.000 A 
ATOM     23  O   UNL     1       0.538  11.890  18.903  0.00  0.00    +0.000 OA
ATOM     24  C   UNL     1      -0.562  11.118  18.668  0.00  0.00    +0.000 A 
ATOM     25  C   UNL     1      -0.201   9.876  18.223  0.00  0.00    +0.000 A 
BRANCH  24  26
ATOM     26  C   UNL     1      -1.894  11.715  18.941  0.00  0.00    +0.000 C 
BRANCH  26  27
ATOM     27  C   UNL     1      -2.889  11.434  17.867  0.00  0.00    +0.000 A 
ATOM     28  C   UNL     1      -2.618  11.052  16.523  0.00  0.00    +0.000 A 
ATOM     29  C   UNL     1      -3.830  11.011  15.873  0.00  0.00    +0.000 A 
ATOM     30  O   UNL     1      -4.838  11.287  16.739  0.00  0.00    +0.000 OA
ATOM     31  C   UNL     1      -4.268  11.533  17.947  0.00  0.00    +0.000 A 
ENDBRANCH  26  27
ENDBRANCH  24  26
ENDBRANCH  20  21
ENDBRANCH  19  20
ENDBRANCH  18  19
ENDBRANCH   2  18
TORSDOF 11
ENDMDL
MODEL 2
REMARK VINA RESULT:      -8.2      5.184      9.139
REMARK  Name = 
REMARK  14 active torsions:
REMARK  status: ('A' for Active; 'I' for Inactive)
REMARK    1  A    between atoms: C_1  and  C_2
REMARK    2  A    between atoms: C_3  and  O_4
REMARK    3  A    between atoms: C_6  and  C_7
REMARK    4  A    between atoms: C_7  and  C_8
REMARK    5  A    between atoms: C_7  and  C_9
REMARK    6  A    between atoms: C_9  and  C_10
REMARK    7  A    between atoms: C_10  and  C_11
REMARK    8  A    between atoms: C_12  and  C_13
REMARK    9  A    between atoms: C_12  and  C_14
REMARK   10  A    between atoms: C_14  and  C_15
REMARK   11  A    between atoms: C_15  and  C_16
REMARK   12  A    between atoms: C_16  and  C_17
REMARK   13  A    between atoms: C_20  and  C_21
REMARK   14  A    between atoms: C_21  and  C_22
REMARK                            x       y       z     vdW  Elec       q    Type
REMARK                         _______ _______ _______ _____ _____    ______ ____
ROOT
ATOM      1  C   UNL     1       8.509   7.946  18.942  0.00  0.00    +0.000 C 
ATOM      2  C   UNL     1       7.927   6.824  18.473  0.00  0.00    +0.000 C 
ATOM      3  C   UNL     1       7.894   5.598  19.345  0.00  0.00    +0.000 C 
ENDROOT
BRANCH   1   4
ATOM      4  C   UNL     1       8.590   9.208  18.145  0.00  0.00    +0.000 C 
BRANCH   4   5
ATOM      5  C   UNL     1       8.947  10.450  18.961  0.00  0.00    +0.000 C 
BRANCH   5   6
ATOM      6  C   UNL     1       9.735  11.469  18.115  0.00  0.00    +0.000 C 
ATOM      7  C   UNL     1      11.223  11.491  18.513  0.00  0.00    +0.000 C 
BRANCH   6  12
ATOM      8  C   UNL     1      10.118  17.678  17.666  0.00  0.00    +0.000 C 
ATOM      9  C   UNL     1      10.097  16.202  17.672  0.00  0.00    +0.000 C 
ATOM     10  C   UNL     1       9.178  15.306  18.007  0.00  0.00    +0.000 C 
ATOM     11  C   UNL     1       9.692  13.990  17.877  0.00  0.00    +0.000 C 
ATOM     12  C   UNL     1       9.108  12.839  18.253  0.00  0.00    +0.000 C 
ATOM     13  O   UNL     1      10.970  14.051  17.338  0.00  0.00    +0.000 OA
ATOM     14  C   UNL     1      11.258  15.389  17.272  0.00  0.00    +0.000 C 
ATOM     15  O   UNL     1      12.329  15.862  16.921  0.00  0.00    +0.000 OA
BRANCH  10  16
ATOM     16  O   UNL     1       7.902  15.519  18.446  0.00  0.00    +0.000 OA
ATOM     17  H   UNL     1       7.598  16.381  18.131  0.00  0.00    +0.000 HD
ENDBRANCH  10  16
ENDBRANCH   6  12
ENDBRANCH   5   6
ENDBRANCH   4   5
ENDBRANCH   1   4
BRANCH   2  18
ATOM     18  C   UNL     1       7.269   6.789  17.103  0.00  0.00    +0.000 C 
BRANCH  18  19
ATOM     19  C   UNL     1       7.046   5.395  16.511  0.00  0.00    +0.000 C 
BRANCH  19  20
ATOM     20  C   UNL     1       5.771   5.252  15.701  0.00  0.00    +0.000 C 
BRANCH  20  21
ATOM     21  C   UNL     1       4.634   4.784  16.523  0.00  0.00    +0.000 A 
ATOM     22  C   UNL     1       4.090   3.539  16.592  0.00  0.00    +0.000 A 
ATOM     23  O   UNL     1       3.021   3.522  17.446  0.00  0.00    +0.000 OA
ATOM     24  C   UNL     1       2.897   4.796  17.922  0.00  0.00    +0.000 A 
ATOM     25  C   UNL     1       3.855   5.613  17.386  0.00  0.00    +0.000 A 
BRANCH  24  26
ATOM     26  C   UNL     1       1.791   5.072  18.872  0.00  0.00    +0.000 C 
BRANCH  26  27
ATOM     27  C   UNL     1       1.824   4.193  20.076  0.00  0.00    +0.000 A 
ATOM     28  C   UNL     1       1.127   2.966  20.263  0.00  0.00    +0.000 A 
ATOM     29  C   UNL     1       1.369   2.569  21.558  0.00  0.00    +0.000 A 
ATOM     30  O   UNL     1       2.215   3.439  22.166  0.00  0.00    +0.000 OA
ATOM     31  C   UNL     1       2.495   4.415  21.266  0.00  0.00    +0.000 A 
ENDBRANCH  26  27
ENDBRANCH  24  26
ENDBRANCH  20  21
ENDBRANCH  19  20
ENDBRANCH  18  19
ENDBRANCH   2  18
TORSDOF 11
ENDMDL
MODEL 3
REMARK VINA RESULT:      -8.1      1.243      1.612
REMARK  Name = 
REMARK  14 active torsions:
REMARK  status: ('A' for Active; 'I' for Inactive)
REMARK    1  A    between atoms: C_1  and  C_2
REMARK    2  A    between atoms: C_3  and  O_4
REMARK    3  A    between atoms: C_6  and  C_7
REMARK    4  A    between atoms: C_7  and  C_8
REMARK    5  A    between atoms: C_7  and  C_9
REMARK    6  A    between atoms: C_9  and  C_10
REMARK    7  A    between atoms: C_10  and  C_11
REMARK    8  A    between atoms: C_12  and  C_13
REMARK    9  A    between atoms: C_12  and  C_14
REMARK   10  A    between atoms: C_14  and  C_15
REMARK   11  A    between atoms: C_15  and  C_16
REMARK   12  A    between atoms: C_16  and  C_17
REMARK   13  A    between atoms: C_20  and  C_21
REMARK   14  A    between atoms: C_21  and  C_22
REMARK                            x       y       z     vdW  Elec       q    Type
REMARK                         _______ _______ _______ _____ _____    ______ ____
ROOT
ATOM      1  C   UNL     1       1.949   5.460  18.004  0.00  0.00    +0.000 C 
ATOM      2  C   UNL     1       2.381   6.551  18.669  0.00  0.00    +0.000 C 
ATOM      3  C   UNL     1       2.882   7.733  17.885  0.00  0.00    +0.000 C 
ENDROOT
BRANCH   1   4
ATOM      4  C   UNL     1       1.436   4.240  18.700  0.00  0.00    +0.000 C 
BRANCH   4   5
ATOM      5  C   UNL     1       2.522   3.259  19.139  0.00  0.00    +0.000 C 
BRANCH   5   6
ATOM      6  C   UNL     1       3.123   2.511  17.933  0.00  0.00    +0.000 C 
ATOM      7  C   UNL     1       3.959   1.300  18.388  0.00  0.00    +0.000 C 
BRANCH   6  12
ATOM      8  C   UNL     1       7.633   6.794  17.465  0.00  0.00    +0.000 C 
ATOM      9  C   UNL     1       6.635   5.724  17.659  0.00  0.00    +0.000 C 
ATOM     10  C   UNL     1       5.790   5.108  16.842  0.00  0.00    +0.000 C 
ATOM     11  C   UNL     1       4.996   4.173  17.557  0.00  0.00    +0.000 C 
ATOM     12  C   UNL     1       3.947   3.468  17.100  0.00  0.00    +0.000 C 
ATOM     13  O   UNL     1       5.427   4.123  18.876  0.00  0.00    +0.000 OA
ATOM     14  C   UNL     1       6.375   5.107  18.971  0.00  0.00    +0.000 C 
ATOM     15  O   UNL     1       6.947   5.437  20.000  0.00  0.00    +0.000 OA
BRANCH  10  16
ATOM     16  O   UNL     1       5.617   5.292  15.500  0.00  0.00    +0.000 OA
ATOM     17  H   UNL     1       5.514   4.431  15.072  0.00  0.00    +0.000 HD
ENDBRANCH  10  16
ENDBRANCH   6  12
ENDBRANCH   5   6
ENDBRANCH   4   5
ENDBRANCH   1   4
BRANCH   2  18
ATOM     18  C   UNL     1       2.329   6.624  20.186  0.00  0.00    +0.000 C 
BRANCH  18  19
ATOM     19  C   UNL     1       1.150   7.405  20.772  0.00  0.00    +0.000 C 
BRANCH  19  20
ATOM     20  C   UNL     1       1.451   8.858  21.085  0.00  0.00    +0.000 C 
BRANCH  20  21
ATOM     21  C   UNL     1       0.695   9.787  20.218  0.00  0.00    +0.000 A 
ATOM     22  C   UNL     1       1.170  10.697  19.326  0.00  0.00    +0.000 A 
ATOM     23  O   UNL     1       0.144  11.393  18.747  0.00  0.00    +0.000 OA
ATOM     24  C   UNL     1      -1.004  10.900  19.296  0.00  0.00    +0.000 A 
ATOM     25  C   UNL     1      -0.727   9.919  20.208  0.00  0.00    +0.000 A 
BRANCH  24  26
ATOM     26  C   UNL     1      -2.290  11.495  18.853  0.00  0.00    +0.000 C 
BRANCH  26  27
ATOM     27  C   UNL     1      -2.762  10.955  17.546  0.00  0.00    +0.000 A 
ATOM     28  C   UNL     1      -2.170   9.907  16.785  0.00  0.00    +0.000 A 
ATOM     29  C   UNL     1      -2.878   9.827  15.608  0.00  0.00    +0.000 A 
ATOM     30  O   UNL     1      -3.903  10.717  15.614  0.00  0.00    +0.000 OA
ATOM     31  C   UNL     1      -3.837  11.391  16.791  0.00  0.00    +0.000 A 
ENDBRANCH  26  27
ENDBRANCH  24  26
ENDBRANCH  20  21
ENDBRANCH  19  20
ENDBRANCH  18  19
ENDBRANCH   2  18
TORSDOF 11
ENDMDL
MODEL 4
REMARK VINA RESULT:      -8.0      2.913      3.855
REMARK  Name = 
REMARK  14 active torsions:
REMARK  status: ('A' for Active; 'I' for Inactive)
REMARK    1  A    between atoms: C_1  and  C_2
REMARK    2  A    between atoms: C_3  and  O_4
REMARK    3  A    between atoms: C_6  and  C_7
REMARK    4  A    between atoms: C_7  and  C_8
REMARK    5  A    between atoms: C_7  and  C_9
REMARK    6  A    between atoms: C_9  and  C_10
REMARK    7  A    between atoms: C_10  and  C_11
REMARK    8  A    between atoms: C_12  and  C_13
REMARK    9  A    between atoms: C_12  and  C_14
REMARK   10  A    between atoms: C_14  and  C_15
REMARK   11  A    between atoms: C_15  and  C_16
REMARK   12  A    between atoms: C_16  and  C_17
REMARK   13  A    between atoms: C_20  and  C_21
REMARK   14  A    between atoms: C_21  and  C_22
REMARK                            x       y       z     vdW  Elec       q    Type
REMARK                         _______ _______ _______ _____ _____    ______ ____
ROOT
ATOM      1  C   UNL     1       1.843   5.245  17.950  0.00  0.00    +0.000 C 
ATOM      2  C   UNL     1       2.166   6.373  18.613  0.00  0.00    +0.000 C 
ATOM      3  C   UNL     1       2.726   7.539  17.843  0.00  0.00    +0.000 C 
ENDROOT
BRANCH   1   4
ATOM      4  C   UNL     1       1.283   4.038  18.633  0.00  0.00    +0.000 C 
BRANCH   4   5
ATOM      5  C   UNL     1       2.321   3.187  19.363  0.00  0.00    +0.000 C 
BRANCH   5   6
ATOM      6  C   UNL     1       3.556   2.929  18.480  0.00  0.00    +0.000 C 
ATOM      7  C   UNL     1       3.890   1.426  18.413  0.00  0.00    +0.000 C 
BRANCH   6  12
ATOM      8  C   UNL     1       7.948   7.278  17.642  0.00  0.00    +0.000 C 
ATOM      9  C   UNL     1       6.833   6.319  17.774  0.00  0.00    +0.000 C 
ATOM     10  C   UNL     1       6.437   5.512  18.750  0.00  0.00    +0.000 C 
ATOM     11  C   UNL     1       5.318   4.743  18.338  0.00  0.00    +0.000 C 
ATOM     12  C   UNL     1       4.730   3.730  18.999  0.00  0.00    +0.000 C 
ATOM     13  O   UNL     1       4.923   5.153  17.072  0.00  0.00    +0.000 OA
ATOM     14  C   UNL     1       5.874   6.061  16.687  0.00  0.00    +0.000 C 
ATOM     15  O   UNL     1       5.929   6.601  15.592  0.00  0.00    +0.000 OA
BRANCH  10  16
ATOM     16  O   UNL     1       6.975   5.356  19.996  0.00  0.00    +0.000 OA
ATOM     17  H   UNL     1       6.261   5.306  20.646  0.00  0.00    +0.000 HD
ENDBRANCH  10  16
ENDBRANCH   6  12
ENDBRANCH   5   6
ENDBRANCH   4   5
ENDBRANCH   1   4
BRANCH   2  18
ATOM     18  C   UNL     1       1.935   6.503  20.110  0.00  0.00    +0.000 C 
BRANCH  18  19
ATOM     19  C   UNL     1       1.659   7.921  20.617  0.00  0.00    +0.000 C 
BRANCH  19  20
ATOM     20  C   UNL     1       0.539   8.018  21.635  0.00  0.00    +0.000 C 
BRANCH  20  21
ATOM     21  C   UNL     1       0.210   9.419  21.975  0.00  0.00    +0.000 A 
ATOM     22  C   UNL     1      -0.400   9.903  23.090  0.00  0.00    +0.000 A 
ATOM     23  O   UNL     1      -0.558  11.261  23.008  0.00  0.00    +0.000 OA
ATOM     24  C   UNL     1      -0.029  11.630  21.805  0.00  0.00    +0.000 A 
ATOM     25  C   UNL     1       0.450  10.543  21.127  0.00  0.00    +0.000 A 
BRANCH  24  26
ATOM     26  C   UNL     1      -0.080  13.069  21.443  0.00  0.00    +0.000 C 
BRANCH  26  27
ATOM     27  C   UNL     1       1.017  13.476  20.518  0.00  0.00    +0.000 A 
ATOM     28  C   UNL     1       0.933  13.644  19.107  0.00  0.00    +0.000 A 
ATOM     29  C   UNL     1       2.208  13.914  18.666  0.00  0.00    +0.000 A 
ATOM     30  O   UNL     1       3.065  13.981  19.716  0.00  0.00    +0.000 OA
ATOM     31  C   UNL     1       2.341  13.725  20.836  0.00  0.00    +0.000 A 
ENDBRANCH  26  27
ENDBRANCH  24  26
ENDBRANCH  20  21
ENDBRANCH  19  20
ENDBRANCH  18  19
ENDBRANCH   2  18
TORSDOF 11
ENDMDL
MODEL 5
REMARK VINA RESULT:      -8.0      3.185      9.244
REMARK  Name = 
REMARK  14 active torsions:
REMARK  status: ('A' for Active; 'I' for Inactive)
REMARK    1  A    between atoms: C_1  and  C_2
REMARK    2  A    between atoms: C_3  and  O_4
REMARK    3  A    between atoms: C_6  and  C_7
REMARK    4  A    between atoms: C_7  and  C_8
REMARK    5  A    between atoms: C_7  and  C_9
REMARK    6  A    between atoms: C_9  and  C_10
REMARK    7  A    between atoms: C_10  and  C_11
REMARK    8  A    between atoms: C_12  and  C_13
REMARK    9  A    between atoms: C_12  and  C_14
REMARK   10  A    between atoms: C_14  and  C_15
REMARK   11  A    between atoms: C_15  and  C_16
REMARK   12  A    between atoms: C_16  and  C_17
REMARK   13  A    between atoms: C_20  and  C_21
REMARK   14  A    between atoms: C_21  and  C_22
REMARK                            x       y       z     vdW  Elec       q    Type
REMARK                         _______ _______ _______ _____ _____    ______ ____
ROOT
ATOM      1  C   UNL     1       1.397   5.320  20.368  0.00  0.00    +0.000 C 
ATOM      2  C   UNL     1       1.918   4.106  20.099  0.00  0.00    +0.000 C 
ATOM      3  C   UNL     1       1.007   2.909  20.073  0.00  0.00    +0.000 C 
ENDROOT
BRANCH   1   4
ATOM      4  C   UNL     1       2.227   6.563  20.417  0.00  0.00    +0.000 C 
BRANCH   4   5
ATOM      5  C   UNL     1       2.336   7.304  19.085  0.00  0.00    +0.000 C 
BRANCH   5   6
ATOM      6  C   UNL     1       1.422   8.544  19.056  0.00  0.00    +0.000 C 
ATOM      7  C   UNL     1       2.035   9.669  18.201  0.00  0.00    +0.000 C 
BRANCH   6  12
ATOM      8  C   UNL     1      -1.494  12.347  23.048  0.00  0.00    +0.000 C 
ATOM      9  C   UNL     1      -0.907  11.445  22.038  0.00  0.00    +0.000 C 
ATOM     10  C   UNL     1      -0.046  10.438  22.106  0.00  0.00    +0.000 C 
ATOM     11  C   UNL     1       0.235   9.932  20.811  0.00  0.00    +0.000 C 
ATOM     12  C   UNL     1       1.154   9.012  20.470  0.00  0.00    +0.000 C 
ATOM     13  O   UNL     1      -0.565  10.585  19.883  0.00  0.00    +0.000 OA
ATOM     14  C   UNL     1      -1.213  11.554  20.601  0.00  0.00    +0.000 C 
ATOM     15  O   UNL     1      -1.958  12.401  20.129  0.00  0.00    +0.000 OA
BRANCH  10  16
ATOM     16  O   UNL     1       0.557   9.908  23.212  0.00  0.00    +0.000 OA
ATOM     17  H   UNL     1       0.644  10.596  23.886  0.00  0.00    +0.000 HD
ENDBRANCH  10  16
ENDBRANCH   6  12
ENDBRANCH   5   6
ENDBRANCH   4   5
ENDBRANCH   1   4
BRANCH   2  18
ATOM     18  C   UNL     1       3.395   3.933  19.780  0.00  0.00    +0.000 C 
BRANCH  18  19
ATOM     19  C   UNL     1       3.777   4.098  18.307  0.00  0.00    +0.000 C 
BRANCH  19  20
ATOM     20  C   UNL     1       5.271   4.162  18.048  0.00  0.00    +0.000 C 
BRANCH  20  21
ATOM     21  C   UNL     1       5.584   4.673  16.696  0.00  0.00    +0.000 A 
ATOM     22  C   UNL     1       5.230   5.858  16.131  0.00  0.00    +0.000 A 
ATOM     23  O   UNL     1       5.685   5.939  14.843  0.00  0.00    +0.000 OA
ATOM     24  C   UNL     1       6.341   4.767  14.601  0.00  0.00    +0.000 A 
ATOM     25  C   UNL     1       6.306   3.951  15.698  0.00  0.00    +0.000 A 
BRANCH  24  26
ATOM     26  C   UNL     1       6.932   4.574  13.252  0.00  0.00    +0.000 C 
BRANCH  26  27
ATOM     27  C   UNL     1       6.235   3.525  12.455  0.00  0.00    +0.000 A 
ATOM     28  C   UNL     1       6.825   2.398  11.815  0.00  0.00    +0.000 A 
ATOM     29  C   UNL     1       5.821   1.775  11.111  0.00  0.00    +0.000 A 
ATOM     30  O   UNL     1       4.638   2.408  11.318  0.00  0.00    +0.000 OA
ATOM     31  C   UNL     1       4.889   3.460  12.139  0.00  0.00    +0.000 A 
ENDBRANCH  26  27
ENDBRANCH  24  26
ENDBRANCH  20  21
ENDBRANCH  19  20
ENDBRANCH  18  19
ENDBRANCH   2  18
TORSDOF 11
ENDMDL
MODEL 6
REMARK VINA RESULT:      -7.9      2.023      2.856
REMARK  Name = 
REMARK  14 active torsions:
REMARK  status: ('A' for Active; 'I' for Inactive)
REMARK    1  A    between atoms: C_1  and  C_2
REMARK    2  A    between atoms: C_3  and  O_4
REMARK    3  A    between atoms: C_6  and  C_7
REMARK    4  A    between atoms: C_7  and  C_8
REMARK    5  A    between atoms: C_7  and  C_9
REMARK    6  A    between atoms: C_9  and  C_10
REMARK    7  A    between atoms: C_10  and  C_11
REMARK    8  A    between atoms: C_12  and  C_13
REMARK    9  A    between atoms: C_12  and  C_14
REMARK   10  A    between atoms: C_14  and  C_15
REMARK   11  A    between atoms: C_15  and  C_16
REMARK   12  A    between atoms: C_16  and  C_17
REMARK   13  A    between atoms: C_20  and  C_21
REMARK   14  A    between atoms: C_21  and  C_22
REMARK                            x       y       z     vdW  Elec       q    Type
REMARK                         _______ _______ _______ _____ _____    ______ ____
ROOT
ATOM      1  C   UNL     1       1.422   4.918  20.617  0.00  0.00    +0.000 C 
ATOM      2  C   UNL     1       1.686   6.225  20.414  0.00  0.00    +0.000 C 
ATOM      3  C   UNL     1       0.881   7.256  21.156  0.00  0.00    +0.000 C 
ENDROOT
BRANCH   1   4
ATOM      4  C   UNL     1       2.170   3.825  19.922  0.00  0.00    +0.000 C 
BRANCH   4   5
ATOM      5  C   UNL     1       1.664   3.507  18.516  0.00  0.00    +0.000 C 
BRANCH   5   6
ATOM      6  C   UNL     1       2.734   2.769  17.689  0.00  0.00    +0.000 C 
ATOM      7  C   UNL     1       3.616   1.879  18.586  0.00  0.00    +0.000 C 
BRANCH   6  12
ATOM      8  C   UNL     1       7.417   6.883  17.453  0.00  0.00    +0.000 C 
ATOM      9  C   UNL     1       6.379   5.841  17.582  0.00  0.00    +0.000 C 
ATOM     10  C   UNL     1       5.471   5.351  16.747  0.00  0.00    +0.000 C 
ATOM     11  C   UNL     1       4.666   4.381  17.398  0.00  0.00    +0.000 C 
ATOM     12  C   UNL     1       3.567   3.772  16.921  0.00  0.00    +0.000 C 
ATOM     13  O   UNL     1       5.150   4.174  18.683  0.00  0.00    +0.000 OA
ATOM     14  C   UNL     1       6.146   5.101  18.834  0.00  0.00    +0.000 C 
ATOM     15  O   UNL     1       6.775   5.297  19.864  0.00  0.00    +0.000 OA
BRANCH  10  16
ATOM     16  O   UNL     1       5.251   5.682  15.440  0.00  0.00    +0.000 OA
ATOM     17  H   UNL     1       6.069   6.029  15.058  0.00  0.00    +0.000 HD
ENDBRANCH  10  16
ENDBRANCH   6  12
ENDBRANCH   5   6
ENDBRANCH   4   5
ENDBRANCH   1   4
BRANCH   2  18
ATOM     18  C   UNL     1       2.807   6.670  19.489  0.00  0.00    +0.000 C 
BRANCH  18  19
ATOM     19  C   UNL     1       2.379   7.071  18.076  0.00  0.00    +0.000 C 
BRANCH  19  20
ATOM     20  C   UNL     1       2.624   8.528  17.733  0.00  0.00    +0.000 C 
BRANCH  20  21
ATOM     21  C   UNL     1       1.520   9.403  18.183  0.00  0.00    +0.000 A 
ATOM     22  C   UNL     1       0.238   9.456  17.732  0.00  0.00    +0.000 A 
ATOM     23  O   UNL     1      -0.467  10.432  18.383  0.00  0.00    +0.000 OA
ATOM     24  C   UNL     1       0.404  11.003  19.265  0.00  0.00    +0.000 A 
ATOM     25  C   UNL     1       1.637  10.417  19.182  0.00  0.00    +0.000 A 
BRANCH  24  26
ATOM     26  C   UNL     1      -0.099  12.119  20.105  0.00  0.00    +0.000 C 
BRANCH  26  27
ATOM     27  C   UNL     1       0.363  13.456  19.635  0.00  0.00    +0.000 A 
ATOM     28  C   UNL     1       1.594  14.099  19.950  0.00  0.00    +0.000 A 
ATOM     29  C   UNL     1       1.538  15.353  19.388  0.00  0.00    +0.000 A 
ATOM     30  O   UNL     1       0.379  15.509  18.700  0.00  0.00    +0.000 OA
ATOM     31  C   UNL     1      -0.326  14.357  18.843  0.00  0.00    +0.000 A 
ENDBRANCH  26  27
ENDBRANCH  24  26
ENDBRANCH  20  21
ENDBRANCH  19  20
ENDBRANCH  18  19
ENDBRANCH   2  18
TORSDOF 11
ENDMDL
MODEL 7
REMARK VINA RESULT:      -7.9      2.410      4.615
REMARK  Name = 
REMARK  14 active torsions:
REMARK  status: ('A' for Active; 'I' for Inactive)
REMARK    1  A    between atoms: C_1  and  C_2
REMARK    2  A    between atoms: C_3  and  O_4
REMARK    3  A    between atoms: C_6  and  C_7
REMARK    4  A    between atoms: C_7  and  C_8
REMARK    5  A    between atoms: C_7  and  C_9
REMARK    6  A    between atoms: C_9  and  C_10
REMARK    7  A    between atoms: C_10  and  C_11
REMARK    8  A    between atoms: C_12  and  C_13
REMARK    9  A    between atoms: C_12  and  C_14
REMARK   10  A    between atoms: C_14  and  C_15
REMARK   11  A    between atoms: C_15  and  C_16
REMARK   12  A    between atoms: C_16  and  C_17
REMARK   13  A    between atoms: C_20  and  C_21
REMARK   14  A    between atoms: C_21  and  C_22
REMARK                            x       y       z     vdW  Elec       q    Type
REMARK                         _______ _______ _______ _____ _____    ______ ____
ROOT
ATOM      1  C   UNL     1       0.557   9.139  21.830  0.00  0.00    +0.000 C 
ATOM      2  C   UNL     1       0.182  10.416  21.614  0.00  0.00    +0.000 C 
ATOM      3  C   UNL     1      -1.010  10.962  22.352  0.00  0.00    +0.000 C 
ENDROOT
BRANCH   1   4
ATOM      4  C   UNL     1       1.726   8.512  21.139  0.00  0.00    +0.000 C 
BRANCH   4   5
ATOM      5  C   UNL     1       1.356   7.617  19.957  0.00  0.00    +0.000 C 
BRANCH   5   6
ATOM      6  C   UNL     1       2.387   7.738  18.819  0.00  0.00    +0.000 C 
ATOM      7  C   UNL     1       1.923   8.750  17.753  0.00  0.00    +0.000 C 
BRANCH   6  12
ATOM      8  C   UNL     1       6.030   3.814  15.619  0.00  0.00    +0.000 C 
ATOM      9  C   UNL     1       5.269   4.787  16.428  0.00  0.00    +0.000 C 
ATOM     10  C   UNL     1       4.083   4.748  17.022  0.00  0.00    +0.000 C 
ATOM     11  C   UNL     1       3.792   5.993  17.637  0.00  0.00    +0.000 C 
ATOM     12  C   UNL     1       2.638   6.376  18.211  0.00  0.00    +0.000 C 
ATOM     13  O   UNL     1       4.891   6.832  17.512  0.00  0.00    +0.000 OA
ATOM     14  C   UNL     1       5.770   6.141  16.722  0.00  0.00    +0.000 C 
ATOM     15  O   UNL     1       6.838   6.572  16.312  0.00  0.00    +0.000 OA
BRANCH  10  16
ATOM     16  O   UNL     1       3.190   3.716  17.070  0.00  0.00    +0.000 OA
ATOM     17  H   UNL     1       2.740   3.645  16.217  0.00  0.00    +0.000 HD
ENDBRANCH  10  16
ENDBRANCH   6  12
ENDBRANCH   5   6
ENDBRANCH   4   5
ENDBRANCH   1   4
BRANCH   2  18
ATOM     18  C   UNL     1       0.964  11.321  20.675  0.00  0.00    +0.000 C 
BRANCH  18  19
ATOM     19  C   UNL     1       0.219  11.771  19.416  0.00  0.00    +0.000 C 
BRANCH  19  20
ATOM     20  C   UNL     1      -0.715  10.729  18.831  0.00  0.00    +0.000 C 
BRANCH  20  21
ATOM     21  C   UNL     1      -2.121  11.188  18.802  0.00  0.00    +0.000 A 
ATOM     22  C   UNL     1      -2.685  12.241  19.450  0.00  0.00    +0.000 A 
ATOM     23  O   UNL     1      -4.027  12.310  19.192  0.00  0.00    +0.000 OA
ATOM     24  C   UNL     1      -4.305  11.267  18.356  0.00  0.00    +0.000 A 
ATOM     25  C   UNL     1      -3.176  10.542  18.089  0.00  0.00    +0.000 A 
BRANCH  24  26
ATOM     26  C   UNL     1      -5.712  11.089  17.920  0.00  0.00    +0.000 C 
BRANCH  26  27
ATOM     27  C   UNL     1      -6.603  10.600  19.010  0.00  0.00    +0.000 A 
ATOM     28  C   UNL     1      -7.326  11.390  19.949  0.00  0.00    +0.000 A 
ATOM     29  C   UNL     1      -7.917  10.513  20.829  0.00  0.00    +0.000 A 
ATOM     30  O   UNL     1      -7.655   9.232  20.465  0.00  0.00    +0.000 OA
ATOM     31  C   UNL     1      -6.868   9.287  19.360  0.00  0.00    +0.000 A 
ENDBRANCH  26  27
ENDBRANCH  24  26
ENDBRANCH  20  21
ENDBRANCH  19  20
ENDBRANCH  18  19
ENDBRANCH   2  18
TORSDOF 11
ENDMDL
MODEL 8
REMARK VINA RESULT:      -7.8      4.706      9.179
REMARK  Name = 
REMARK  14 active torsions:
REMARK  status: ('A' for Active; 'I' for Inactive)
REMARK    1  A    between atoms: C_1  and  C_2
REMARK    2  A    between atoms: C_3  and  O_4
REMARK    3  A    between atoms: C_6  and  C_7
REMARK    4  A    between atoms: C_7  and  C_8
REMARK    5  A    between atoms: C_7  and  C_9
REMARK    6  A    between atoms: C_9  and  C_10
REMARK    7  A    between atoms: C_10  and  C_11
REMARK    8  A    between atoms: C_12  and  C_13
REMARK    9  A    between atoms: C_12  and  C_14
REMARK   10  A    between atoms: C_14  and  C_15
REMARK   11  A    between atoms: C_15  and  C_16
REMARK   12  A    between atoms: C_16  and  C_17
REMARK   13  A    between atoms: C_20  and  C_21
REMARK   14  A    between atoms: C_21  and  C_22
REMARK                            x       y       z     vdW  Elec       q    Type
REMARK                         _______ _______ _______ _____ _____    ______ ____
ROOT
ATOM      1  C   UNL     1       5.798   5.307  17.345  0.00  0.00    +0.000 C 
ATOM      2  C   UNL     1       6.795   6.038  17.884  0.00  0.00    +0.000 C 
ATOM      3  C   UNL     1       7.924   5.332  18.584  0.00  0.00    +0.000 C 
ENDROOT
BRANCH   1   4
ATOM      4  C   UNL     1       4.636   5.923  16.634  0.00  0.00    +0.000 C 
BRANCH   4   5
ATOM      5  C   UNL     1       4.197   7.276  17.194  0.00  0.00    +0.000 C 
BRANCH   5   6
ATOM      6  C   UNL     1       2.745   7.226  17.705  0.00  0.00    +0.000 C 
ATOM      7  C   UNL     1       2.126   8.636  17.766  0.00  0.00    +0.000 C 
BRANCH   6  12
ATOM      8  C   UNL     1       1.176   2.371  21.293  0.00  0.00    +0.000 C 
ATOM      9  C   UNL     1       1.573   3.440  20.356  0.00  0.00    +0.000 C 
ATOM     10  C   UNL     1       2.182   4.609  20.512  0.00  0.00    +0.000 C 
ATOM     11  C   UNL     1       2.278   5.292  19.272  0.00  0.00    +0.000 C 
ATOM     12  C   UNL     1       2.703   6.549  19.057  0.00  0.00    +0.000 C 
ATOM     13  O   UNL     1       1.794   4.472  18.261  0.00  0.00    +0.000 OA
ATOM     14  C   UNL     1       1.300   3.372  18.910  0.00  0.00    +0.000 C 
ATOM     15  O   UNL     1       0.713   2.443  18.375  0.00  0.00    +0.000 OA
BRANCH  10  16
ATOM     16  O   UNL     1       2.662   5.171  21.661  0.00  0.00    +0.000 OA
ATOM     17  H   UNL     1       3.443   5.702  21.452  0.00  0.00    +0.000 HD
ENDBRANCH  10  16
ENDBRANCH   6  12
ENDBRANCH   5   6
ENDBRANCH   4   5
ENDBRANCH   1   4
BRANCH   2  18
ATOM     18  C   UNL     1       6.819   7.553  17.759  0.00  0.00    +0.000 C 
BRANCH  18  19
ATOM     19  C   UNL     1       8.134   8.229  18.154  0.00  0.00    +0.000 C 
BRANCH  19  20
ATOM     20  C   UNL     1       8.298   9.642  17.628  0.00  0.00    +0.000 C 
BRANCH  20  21
ATOM     21  C   UNL     1       9.242  10.438  18.443  0.00  0.00    +0.000 A 
ATOM     22  C   UNL     1       9.360  10.493  19.797  0.00  0.00    +0.000 A 
ATOM     23  O   UNL     1      10.333  11.382  20.165  0.00  0.00    +0.000 OA
ATOM     24  C   UNL     1      10.834  11.895  19.004  0.00  0.00    +0.000 A 
ATOM     25  C   UNL     1      10.199  11.358  17.918  0.00  0.00    +0.000 A 
BRANCH  24  26
ATOM     26  C   UNL     1      11.910  12.912  19.108  0.00  0.00    +0.000 C 
BRANCH  26  27
ATOM     27  C   UNL     1      11.540  14.218  18.491  0.00  0.00    +0.000 A 
ATOM     28  C   UNL     1      10.273  14.865  18.545  0.00  0.00    +0.000 A 
ATOM     29  C   UNL     1      10.367  15.981  17.746  0.00  0.00    +0.000 A 
ATOM     30  O   UNL     1      11.623  16.097  17.245  0.00  0.00    +0.000 OA
ATOM     31  C   UNL     1      12.333  15.035  17.704  0.00  0.00    +0.000 A 
ENDBRANCH  26  27
ENDBRANCH  24  26
ENDBRANCH  20  21
ENDBRANCH  19  20
ENDBRANCH  18  19
ENDBRANCH   2  18
TORSDOF 11
ENDMDL
MODEL 9
REMARK VINA RESULT:      -7.8      2.295      8.520
REMARK  Name = 
REMARK  14 active torsions:
REMARK  status: ('A' for Active; 'I' for Inactive)
REMARK    1  A    between atoms: C_1  and  C_2
REMARK    2  A    between atoms: C_3  and  O_4
REMARK    3  A    between atoms: C_6  and  C_7
REMARK    4  A    between atoms: C_7  and  C_8
REMARK    5  A    between atoms: C_7  and  C_9
REMARK    6  A    between atoms: C_9  and  C_10
REMARK    7  A    between atoms: C_10  and  C_11
REMARK    8  A    between atoms: C_12  and  C_13
REMARK    9  A    between atoms: C_12  and  C_14
REMARK   10  A    between atoms: C_14  and  C_15
REMARK   11  A    between atoms: C_15  and  C_16
REMARK   12  A    between atoms: C_16  and  C_17
REMARK   13  A    between atoms: C_20  and  C_21
REMARK   14  A    between atoms: C_21  and  C_22
REMARK                            x       y       z     vdW  Elec       q    Type
REMARK                         _______ _______ _______ _____ _____    ______ ____
ROOT
ATOM      1  C   UNL     1       1.896   4.973  20.905  0.00  0.00    +0.000 C 
ATOM      2  C   UNL     1       1.601   3.674  20.696  0.00  0.00    +0.000 C 
ATOM      3  C   UNL     1       2.097   2.645  21.675  0.00  0.00    +0.000 C 
ENDROOT
BRANCH   1   4
ATOM      4  C   UNL     1       1.447   6.063  19.984  0.00  0.00    +0.000 C 
BRANCH   4   5
ATOM      5  C   UNL     1       2.197   7.383  20.154  0.00  0.00    +0.000 C 
BRANCH   5   6
ATOM      6  C   UNL     1       1.321   8.439  20.855  0.00  0.00    +0.000 C 
ATOM      7  C   UNL     1       0.183   7.777  21.655  0.00  0.00    +0.000 C 
BRANCH   6  12
ATOM      8  C   UNL     1      -0.365  14.222  19.238  0.00  0.00    +0.000 C 
ATOM      9  C   UNL     1       0.126  12.903  19.685  0.00  0.00    +0.000 C 
ATOM     10  C   UNL     1       0.180  11.709  19.109  0.00  0.00    +0.000 C 
ATOM     11  C   UNL     1       0.704  10.744  20.009  0.00  0.00    +0.000 C 
ATOM     12  C   UNL     1       0.780   9.414  19.833  0.00  0.00    +0.000 C 
ATOM     13  O   UNL     1       1.094  11.378  21.181  0.00  0.00    +0.000 OA
ATOM     14  C   UNL     1       0.687  12.677  21.028  0.00  0.00    +0.000 C 
ATOM     15  O   UNL     1       0.777  13.549  21.880  0.00  0.00    +0.000 OA
BRANCH  10  16
ATOM     16  O   UNL     1      -0.208  11.353  17.849  0.00  0.00    +0.000 OA
ATOM     17  H   UNL     1      -1.006  10.810  17.904  0.00  0.00    +0.000 HD
ENDBRANCH  10  16
ENDBRANCH   6  12
ENDBRANCH   5   6
ENDBRANCH   4   5
ENDBRANCH   1   4
BRANCH   2  18
ATOM     18  C   UNL     1       0.745   3.239  19.517  0.00  0.00    +0.000 C 
BRANCH  18  19
ATOM     19  C   UNL     1       1.491   3.034  18.197  0.00  0.00    +0.000 C 
BRANCH  19  20
ATOM     20  C   UNL     1       2.804   2.286  18.325  0.00  0.00    +0.000 C 
BRANCH  20  21
ATOM     21  C   UNL     1       3.974   3.164  18.109  0.00  0.00    +0.000 A 
ATOM     22  C   UNL     1       4.510   3.594  16.936  0.00  0.00    +0.000 A 
ATOM     23  O   UNL     1       5.618   4.366  17.161  0.00  0.00    +0.000 OA
ATOM     24  C   UNL     1       5.773   4.418  18.516  0.00  0.00    +0.000 A 
ATOM     25  C   UNL     1       4.799   3.695  19.147  0.00  0.00    +0.000 A 
BRANCH  24  26
ATOM     26  C   UNL     1       6.924   5.189  19.048  0.00  0.00    +0.000 C 
BRANCH  26  27
ATOM     27  C   UNL     1       7.177   6.452  18.298  0.00  0.00    +0.000 A 
ATOM     28  C   UNL     1       8.250   7.368  18.492  0.00  0.00    +0.000 A 
ATOM     29  C   UNL     1       8.014   8.434  17.656  0.00  0.00    +0.000 A 
ATOM     30  O   UNL     1       6.897   8.214  16.917  0.00  0.00    +0.000 OA
ATOM     31  C   UNL     1       6.398   7.011  17.300  0.00  0.00    +0.000 A 
ENDBRANCH  26  27
ENDBRANCH  24  26
ENDBRANCH  20  21
ENDBRANCH  19  20
ENDBRANCH  18  19
ENDBRANCH   2  18
TORSDOF 11
ENDMDL
