MODEL 1
REMARK VINA RESULT:      -8.8      0.000      0.000
REMARK  Name = 
REMARK  9 active torsions:
REMARK  status: ('A' for Active; 'I' for Inactive)
REMARK    1  A    between atoms: C_2  and  C_24
REMARK    2  A    between atoms: N_3  and  C_4
REMARK    3  A    between atoms: C_7  and  C_8
REMARK    4  A    between atoms: C_8  and  C_9
REMARK    5  A    between atoms: C_9  and  S_10
REMARK    6  A    between atoms: S_10  and  C_12
REMARK    7  A    between atoms: C_13  and  C_14
REMARK    8  A    between atoms: C_17  and  O_18
REMARK    9  A    between atoms: C_19  and  O_20
REMARK                            x       y       z     vdW  Elec       q    Type
REMARK                         _______ _______ _______ _____ _____    ______ ____
ROOT
ATOM      1  C   UNL     1       7.890   7.286  18.367  0.00  0.00    +0.000 A 
ATOM      2  C   UNL     1       7.887   6.044  19.003  0.00  0.00    +0.000 A 
ATOM      3  C   UNL     1       7.065   5.012  18.547  0.00  0.00    +0.000 A 
ATOM      4  C   UNL     1       6.212   5.210  17.458  0.00  0.00    +0.000 A 
ATOM      5  C   UNL     1       6.201   6.460  16.828  0.00  0.00    +0.000 A 
ATOM      6  C   UNL     1       7.028   7.493  17.285  0.00  0.00    +0.000 A 
ENDROOT
BRANCH   1   9
ATOM      7  O   UNL     1       7.733  10.141  17.636  0.00  0.00    +0.000 OA
ATOM      8  C   UNL     1       8.608   9.670  18.355  0.00  0.00    +0.000 C 
ATOM      9  N   UNL     1       8.724   8.352  18.762  0.00  0.00    +0.000 N 
ATOM     10  H   UNL     1       9.376   8.152  19.509  0.00  0.00    +0.000 HD
BRANCH   8  11
ATOM     11  C   UNL     1       9.620  10.600  18.918  0.00  0.00    +0.000 A 
ATOM     12  C   UNL     1      10.610  11.099  18.059  0.00  0.00    +0.000 A 
ATOM     13  C   UNL     1      11.583  11.970  18.546  0.00  0.00    +0.000 A 
ATOM     14  C   UNL     1      11.577  12.336  19.891  0.00  0.00    +0.000 A 
ATOM     15  C   UNL     1      10.606  11.826  20.755  0.00  0.00    +0.000 A 
ATOM     16  C   UNL     1       9.628  10.954  20.272  0.00  0.00    +0.000 A 
ENDBRANCH   8  11
ENDBRANCH   1   9
BRANCH   4  17
ATOM     17  C   UNL     1       5.320   4.095  16.969  0.00  0.00    +0.000 C 
BRANCH  17  18
ATOM     18  C   UNL     1       4.538   3.394  18.078  0.00  0.00    +0.000 C 
BRANCH  18  19
ATOM     19  S   UNL     1       2.813   3.047  17.571  0.00  0.00    +0.000 S 
ATOM     20  O   UNL     1       2.149   2.232  18.736  0.00  0.00    +0.000 OA
BRANCH  19  21
ATOM     21  C   UNL     1       2.212   4.719  17.783  0.00  0.00    +0.000 C 
ATOM     22  C   UNL     1       2.790   5.501  18.708  0.00  0.00    +0.000 C 
BRANCH  22  23
ATOM     23  C   UNL     1       2.341   6.868  19.014  0.00  0.00    +0.000 A 
ATOM     24  C   UNL     1       1.808   7.146  20.285  0.00  0.00    +0.000 A 
ATOM     25  C   UNL     1       1.306   8.418  20.595  0.00  0.00    +0.000 A 
ATOM     26  C   UNL     1       1.328   9.409  19.623  0.00  0.00    +0.000 A 
ATOM     27  C   UNL     1       1.843   9.138  18.359  0.00  0.00    +0.000 A 
ATOM     28  C   UNL     1       2.346   7.883  18.045  0.00  0.00    +0.000 A 
BRANCH  26  29
ATOM     29  O   UNL     1       0.844  10.666  19.857  0.00  0.00    +0.000 OA
ATOM     30  H   UNL     1       1.601  11.262  19.994  0.00  0.00    +0.000 HD
ENDBRANCH  26  29
BRANCH  27  31
ATOM     31  O   UNL     1       1.845  10.112  17.401  0.00  0.00    +0.000 OA
ATOM     32  H   UNL     1       1.168   9.824  16.756  0.00  0.00    +0.000 HD
ENDBRANCH  27  31
ENDBRANCH  22  23
ENDBRANCH  19  21
ENDBRANCH  18  19
ENDBRANCH  17  18
ENDBRANCH   4  17
TORSDOF 9
ENDMDL
MODEL 2
REMARK VINA RESULT:      -8.6      0.655      1.573
REMARK  Name = 
REMARK  9 active torsions:
REMARK  status: ('A' for Active; 'I' for Inactive)
REMARK    1  A    between atoms: C_2  and  C_24
REMARK    2  A    between atoms: N_3  and  C_4
REMARK    3  A    between atoms: C_7  and  C_8
REMARK    4  A    between atoms: C_8  and  C_9
REMARK    5  A    between atoms: C_9  and  S_10
REMARK    6  A    between atoms: S_10  and  C_12
REMARK    7  A    between atoms: C_13  and  C_14
REMARK    8  A    between atoms: C_17  and  O_18
REMARK    9  A    between atoms: C_19  and  O_20
REMARK                            x       y       z     vdW  Elec       q    Type
REMARK                         _______ _______ _______ _____ _____    ______ ____
ROOT
ATOM      1  C   UNL     1       7.960   7.301  18.357  0.00  0.00    +0.000 A 
ATOM      2  C   UNL     1       7.926   6.087  19.042  0.00  0.00    +0.000 A 
ATOM      3  C   UNL     1       7.126   5.035  18.592  0.00  0.00    +0.000 A 
ATOM      4  C   UNL     1       6.324   5.188  17.457  0.00  0.00    +0.000 A 
ATOM      5  C   UNL     1       6.342   6.412  16.778  0.00  0.00    +0.000 A 
ATOM      6  C   UNL     1       7.148   7.463  17.230  0.00  0.00    +0.000 A 
ENDROOT
BRANCH   1   9
ATOM      7  O   UNL     1       7.732  10.155  17.639  0.00  0.00    +0.000 OA
ATOM      8  C   UNL     1       8.626   9.700  18.347  0.00  0.00    +0.000 C 
ATOM      9  N   UNL     1       8.776   8.383  18.747  0.00  0.00    +0.000 N 
ATOM     10  H   UNL     1       9.440   8.194  19.485  0.00  0.00    +0.000 HD
BRANCH   8  11
ATOM     11  C   UNL     1       9.625  10.650  18.901  0.00  0.00    +0.000 A 
ATOM     12  C   UNL     1       9.554  10.963  20.265  0.00  0.00    +0.000 A 
ATOM     13  C   UNL     1      10.469  11.854  20.826  0.00  0.00    +0.000 A 
ATOM     14  C   UNL     1      11.445  12.442  20.025  0.00  0.00    +0.000 A 
ATOM     15  C   UNL     1      11.507  12.149  18.660  0.00  0.00    +0.000 A 
ATOM     16  C   UNL     1      10.595  11.257  18.094  0.00  0.00    +0.000 A 
ENDBRANCH   8  11
ENDBRANCH   1   9
BRANCH   4  17
ATOM     17  C   UNL     1       5.454   4.054  16.974  0.00  0.00    +0.000 C 
BRANCH  17  18
ATOM     18  C   UNL     1       4.419   3.585  17.995  0.00  0.00    +0.000 C 
BRANCH  18  19
ATOM     19  S   UNL     1       2.795   3.268  17.212  0.00  0.00    +0.000 S 
ATOM     20  O   UNL     1       2.132   2.082  17.999  0.00  0.00    +0.000 OA
BRANCH  19  21
ATOM     21  C   UNL     1       1.991   4.737  17.838  0.00  0.00    +0.000 C 
ATOM     22  C   UNL     1       2.744   5.804  18.149  0.00  0.00    +0.000 C 
BRANCH  22  23
ATOM     23  C   UNL     1       2.201   7.042  18.729  0.00  0.00    +0.000 A 
ATOM     24  C   UNL     1       1.919   8.129  17.883  0.00  0.00    +0.000 A 
ATOM     25  C   UNL     1       1.464   9.349  18.402  0.00  0.00    +0.000 A 
ATOM     26  C   UNL     1       1.304   9.482  19.774  0.00  0.00    +0.000 A 
ATOM     27  C   UNL     1       1.592   8.415  20.620  0.00  0.00    +0.000 A 
ATOM     28  C   UNL     1       2.038   7.202  20.113  0.00  0.00    +0.000 A 
BRANCH  26  29
ATOM     29  O   UNL     1       0.875  10.648  20.346  0.00  0.00    +0.000 OA
ATOM     30  H   UNL     1      -0.092  10.697  20.249  0.00  0.00    +0.000 HD
ENDBRANCH  26  29
BRANCH  27  31
ATOM     31  O   UNL     1       1.450   8.558  21.970  0.00  0.00    +0.000 OA
ATOM     32  H   UNL     1       1.658   7.675  22.335  0.00  0.00    +0.000 HD
ENDBRANCH  27  31
ENDBRANCH  22  23
ENDBRANCH  19  21
ENDBRANCH  18  19
ENDBRANCH  17  18
ENDBRANCH   4  17
TORSDOF 9
ENDMDL
MODEL 3
REMARK VINA RESULT:      -8.5      0.877      1.670
REMARK  Name = 
REMARK  9 active torsions:
REMARK  status: ('A' for Active; 'I' for Inactive)
REMARK    1  A    between atoms: C_2  and  C_24
REMARK    2  A    between atoms: N_3  and  C_4
REMARK    3  A    between atoms: C_7  and  C_8
REMARK    4  A    between atoms: C_8  and  C_9
REMARK    5  A    between atoms: C_9  and  S_10
REMARK    6  A    between atoms: S_10  and  C_12
REMARK    7  A    between atoms: C_13  and  C_14
REMARK    8  A    between atoms: C_17  and  O_18
REMARK    9  A    between atoms: C_19  and  O_20
REMARK                            x       y       z     vdW  Elec       q    Type
REMARK                         _______ _______ _______ _____ _____    ______ ____
ROOT
ATOM      1  C   UNL     1       7.997   7.274  18.290  0.00  0.00    +0.000 A 
ATOM      2  C   UNL     1       7.315   7.320  17.074  0.00  0.00    +0.000 A 
ATOM      3  C   UNL     1       6.567   6.227  16.634  0.00  0.00    +0.000 A 
ATOM      4  C   UNL     1       6.506   5.055  17.394  0.00  0.00    +0.000 A 
ATOM      5  C   UNL     1       7.204   5.000  18.606  0.00  0.00    +0.000 A 
ATOM      6  C   UNL     1       7.950   6.099  19.046  0.00  0.00    +0.000 A 
ENDROOT
BRANCH   1   9
ATOM      7  O   UNL     1       7.830  10.135  17.583  0.00  0.00    +0.000 OA
ATOM      8  C   UNL     1       8.625   9.681  18.399  0.00  0.00    +0.000 C 
ATOM      9  N   UNL     1       8.738   8.361  18.799  0.00  0.00    +0.000 N 
ATOM     10  H   UNL     1       9.299   8.169  19.619  0.00  0.00    +0.000 HD
BRANCH   8  11
ATOM     11  C   UNL     1       9.527  10.635  19.095  0.00  0.00    +0.000 A 
ATOM     12  C   UNL     1      10.597  11.181  18.372  0.00  0.00    +0.000 A 
ATOM     13  C   UNL     1      11.471  12.076  18.987  0.00  0.00    +0.000 A 
ATOM     14  C   UNL     1      11.287  12.417  20.326  0.00  0.00    +0.000 A 
ATOM     15  C   UNL     1      10.234  11.861  21.056  0.00  0.00    +0.000 A 
ATOM     16  C   UNL     1       9.355  10.965  20.444  0.00  0.00    +0.000 A 
ENDBRANCH   8  11
ENDBRANCH   1   9
BRANCH   4  17
ATOM     17  C   UNL     1       5.703   3.871  16.915  0.00  0.00    +0.000 C 
BRANCH  17  18
ATOM     18  C   UNL     1       4.195   4.117  16.877  0.00  0.00    +0.000 C 
BRANCH  18  19
ATOM     19  S   UNL     1       3.345   3.305  18.280  0.00  0.00    +0.000 S 
ATOM     20  O   UNL     1       4.435   3.023  19.374  0.00  0.00    +0.000 OA
BRANCH  19  21
ATOM     21  C   UNL     1       2.487   4.765  18.855  0.00  0.00    +0.000 C 
ATOM     22  C   UNL     1       2.807   5.955  18.322  0.00  0.00    +0.000 C 
BRANCH  22  23
ATOM     23  C   UNL     1       2.215   7.228  18.759  0.00  0.00    +0.000 A 
ATOM     24  C   UNL     1       2.070   8.272  17.828  0.00  0.00    +0.000 A 
ATOM     25  C   UNL     1       1.573   9.523  18.218  0.00  0.00    +0.000 A 
ATOM     26  C   UNL     1       1.232   9.731  19.548  0.00  0.00    +0.000 A 
ATOM     27  C   UNL     1       1.383   8.707  20.477  0.00  0.00    +0.000 A 
ATOM     28  C   UNL     1       1.870   7.463  20.098  0.00  0.00    +0.000 A 
BRANCH  26  29
ATOM     29  O   UNL     1       0.752  10.930  19.996  0.00  0.00    +0.000 OA
ATOM     30  H   UNL     1       0.273  10.774  20.828  0.00  0.00    +0.000 HD
ENDBRANCH  26  29
BRANCH  27  31
ATOM     31  O   UNL     1       1.063   8.922  21.787  0.00  0.00    +0.000 OA
ATOM     32  H   UNL     1       1.138   9.890  21.903  0.00  0.00    +0.000 HD
ENDBRANCH  27  31
ENDBRANCH  22  23
ENDBRANCH  19  21
ENDBRANCH  18  19
ENDBRANCH  17  18
ENDBRANCH   4  17
TORSDOF 9
ENDMDL
MODEL 4
REMARK VINA RESULT:      -8.5      0.671      1.120
REMARK  Name = 
REMARK  9 active torsions:
REMARK  status: ('A' for Active; 'I' for Inactive)
REMARK    1  A    between atoms: C_2  and  C_24
REMARK    2  A    between atoms: N_3  and  C_4
REMARK    3  A    between atoms: C_7  and  C_8
REMARK    4  A    between atoms: C_8  and  C_9
REMARK    5  A    between atoms: C_9  and  S_10
REMARK    6  A    between atoms: S_10  and  C_12
REMARK    7  A    between atoms: C_13  and  C_14
REMARK    8  A    between atoms: C_17  and  O_18
REMARK    9  A    between atoms: C_19  and  O_20
REMARK                            x       y       z     vdW  Elec       q    Type
REMARK                         _______ _______ _______ _____ _____    ______ ____
ROOT
ATOM      1  C   UNL     1       8.019   7.094  18.401  0.00  0.00    +0.000 A 
ATOM      2  C   UNL     1       7.744   6.015  19.241  0.00  0.00    +0.000 A 
ATOM      3  C   UNL     1       7.038   4.906  18.771  0.00  0.00    +0.000 A 
ATOM      4  C   UNL     1       6.573   4.866  17.453  0.00  0.00    +0.000 A 
ATOM      5  C   UNL     1       6.833   5.955  16.613  0.00  0.00    +0.000 A 
ATOM      6  C   UNL     1       7.543   7.064  17.086  0.00  0.00    +0.000 A 
ENDROOT
BRANCH   1   9
ATOM      7  O   UNL     1       7.663   9.925  17.648  0.00  0.00    +0.000 OA
ATOM      8  C   UNL     1       8.551   9.526  18.395  0.00  0.00    +0.000 C 
ATOM      9  N   UNL     1       8.757   8.222  18.813  0.00  0.00    +0.000 N 
ATOM     10  H   UNL     1       9.401   8.076  19.579  0.00  0.00    +0.000 HD
BRANCH   8  11
ATOM     11  C   UNL     1       9.473  10.534  18.980  0.00  0.00    +0.000 A 
ATOM     12  C   UNL     1       9.362  10.816  20.348  0.00  0.00    +0.000 A 
ATOM     13  C   UNL     1      10.203  11.759  20.938  0.00  0.00    +0.000 A 
ATOM     14  C   UNL     1      11.146  12.429  20.161  0.00  0.00    +0.000 A 
ATOM     15  C   UNL     1      11.247  12.166  18.793  0.00  0.00    +0.000 A 
ATOM     16  C   UNL     1      10.408  11.222  18.198  0.00  0.00    +0.000 A 
ENDBRANCH   8  11
ENDBRANCH   1   9
BRANCH   4  17
ATOM     17  C   UNL     1       5.805   3.670  16.946  0.00  0.00    +0.000 C 
BRANCH  17  18
ATOM     18  C   UNL     1       4.379   3.990  16.501  0.00  0.00    +0.000 C 
BRANCH  18  19
ATOM     19  S   UNL     1       3.154   3.535  17.783  0.00  0.00    +0.000 S 
ATOM     20  O   UNL     1       3.952   3.316  19.119  0.00  0.00    +0.000 OA
BRANCH  19  21
ATOM     21  C   UNL     1       2.433   5.164  17.945  0.00  0.00    +0.000 C 
ATOM     22  C   UNL     1       2.857   5.964  18.936  0.00  0.00    +0.000 C 
BRANCH  22  23
ATOM     23  C   UNL     1       2.295   7.297  19.203  0.00  0.00    +0.000 A 
ATOM     24  C   UNL     1       1.684   7.546  20.445  0.00  0.00    +0.000 A 
ATOM     25  C   UNL     1       1.076   8.780  20.716  0.00  0.00    +0.000 A 
ATOM     26  C   UNL     1       1.071   9.761  19.734  0.00  0.00    +0.000 A 
ATOM     27  C   UNL     1       1.662   9.517  18.497  0.00  0.00    +0.000 A 
ATOM     28  C   UNL     1       2.270   8.300  18.223  0.00  0.00    +0.000 A 
BRANCH  26  29
ATOM     29  O   UNL     1       0.485  10.981  19.929  0.00  0.00    +0.000 OA
ATOM     30  H   UNL     1       1.176  11.610  20.196  0.00  0.00    +0.000 HD
ENDBRANCH  26  29
BRANCH  27  31
ATOM     31  O   UNL     1       1.637  10.480  17.529  0.00  0.00    +0.000 OA
ATOM     32  H   UNL     1       2.565  10.779  17.454  0.00  0.00    +0.000 HD
ENDBRANCH  27  31
ENDBRANCH  22  23
ENDBRANCH  19  21
ENDBRANCH  18  19
ENDBRANCH  17  18
ENDBRANCH   4  17
TORSDOF 9
ENDMDL
MODEL 5
REMARK VINA RESULT:      -7.8      1.157      1.511
REMARK  Name = 
REMARK  9 active torsions:
REMARK  status: ('A' for Active; 'I' for Inactive)
REMARK    1  A    between atoms: C_2  and  C_24
REMARK    2  A    between atoms: N_3  and  C_4
REMARK    3  A    between atoms: C_7  and  C_8
REMARK    4  A    between atoms: C_8  and  C_9
REMARK    5  A    between atoms: C_9  and  S_10
REMARK    6  A    between atoms: S_10  and  C_12
REMARK    7  A    between atoms: C_13  and  C_14
REMARK    8  A    between atoms: C_17  and  O_18
REMARK    9  A    between atoms: C_19  and  O_20
REMARK                            x       y       z     vdW  Elec       q    Type
REMARK                         _______ _______ _______ _____ _____    ______ ____
ROOT
ATOM      1  C   UNL     1       6.592   7.283  17.310  0.00  0.00    +0.000 A 
ATOM      2  C   UNL     1       6.935   6.146  18.042  0.00  0.00    +0.000 A 
ATOM      3  C   UNL     1       6.312   4.922  17.792  0.00  0.00    +0.000 A 
ATOM      4  C   UNL     1       5.317   4.817  16.816  0.00  0.00    +0.000 A 
ATOM      5  C   UNL     1       4.959   5.960  16.092  0.00  0.00    +0.000 A 
ATOM      6  C   UNL     1       5.586   7.186  16.343  0.00  0.00    +0.000 A 
ENDROOT
BRANCH   1   9
ATOM      7  O   UNL     1       8.909   7.978  19.001  0.00  0.00    +0.000 OA
ATOM      8  C   UNL     1       8.285   8.796  18.332  0.00  0.00    +0.000 C 
ATOM      9  N   UNL     1       7.213   8.536  17.497  0.00  0.00    +0.000 N 
ATOM     10  H   UNL     1       6.929   9.270  16.862  0.00  0.00    +0.000 HD
BRANCH   8  11
ATOM     11  C   UNL     1       8.750  10.207  18.349  0.00  0.00    +0.000 A 
ATOM     12  C   UNL     1       9.725  10.571  19.288  0.00  0.00    +0.000 A 
ATOM     13  C   UNL     1      10.186  11.886  19.343  0.00  0.00    +0.000 A 
ATOM     14  C   UNL     1       9.667  12.840  18.470  0.00  0.00    +0.000 A 
ATOM     15  C   UNL     1       8.681  12.487  17.546  0.00  0.00    +0.000 A 
ATOM     16  C   UNL     1       8.217  11.171  17.486  0.00  0.00    +0.000 A 
ENDBRANCH   8  11
ENDBRANCH   1   9
BRANCH   4  17
ATOM     17  C   UNL     1       4.640   3.495  16.550  0.00  0.00    +0.000 C 
BRANCH  17  18
ATOM     18  C   UNL     1       4.167   2.773  17.810  0.00  0.00    +0.000 C 
BRANCH  18  19
ATOM     19  S   UNL     1       2.347   2.577  17.833  0.00  0.00    +0.000 S 
ATOM     20  O   UNL     1       1.968   1.997  19.241  0.00  0.00    +0.000 OA
BRANCH  19  21
ATOM     21  C   UNL     1       1.969   4.322  17.941  0.00  0.00    +0.000 C 
ATOM     22  C   UNL     1       2.472   5.031  18.963  0.00  0.00    +0.000 C 
BRANCH  22  23
ATOM     23  C   UNL     1       2.178   6.455  19.189  0.00  0.00    +0.000 A 
ATOM     24  C   UNL     1       1.744   6.872  20.459  0.00  0.00    +0.000 A 
ATOM     25  C   UNL     1       1.389   8.206  20.698  0.00  0.00    +0.000 A 
ATOM     26  C   UNL     1       1.460   9.122  19.657  0.00  0.00    +0.000 A 
ATOM     27  C   UNL     1       1.877   8.715  18.394  0.00  0.00    +0.000 A 
ATOM     28  C   UNL     1       2.235   7.396  18.150  0.00  0.00    +0.000 A 
BRANCH  26  29
ATOM     29  O   UNL     1       1.117  10.436  19.820  0.00  0.00    +0.000 OA
ATOM     30  H   UNL     1       0.887  10.576  20.755  0.00  0.00    +0.000 HD
ENDBRANCH  26  29
BRANCH  27  31
ATOM     31  O   UNL     1       1.927   9.616  17.369  0.00  0.00    +0.000 OA
ATOM     32  H   UNL     1       1.825  10.487  17.801  0.00  0.00    +0.000 HD
ENDBRANCH  27  31
ENDBRANCH  22  23
ENDBRANCH  19  21
ENDBRANCH  18  19
ENDBRANCH  17  18
ENDBRANCH   4  17
TORSDOF 9
ENDMDL
MODEL 6
REMARK VINA RESULT:      -7.7      5.568      9.334
REMARK  Name = 
REMARK  9 active torsions:
REMARK  status: ('A' for Active; 'I' for Inactive)
REMARK    1  A    between atoms: C_2  and  C_24
REMARK    2  A    between atoms: N_3  and  C_4
REMARK    3  A    between atoms: C_7  and  C_8
REMARK    4  A    between atoms: C_8  and  C_9
REMARK    5  A    between atoms: C_9  and  S_10
REMARK    6  A    between atoms: S_10  and  C_12
REMARK    7  A    between atoms: C_13  and  C_14
REMARK    8  A    between atoms: C_17  and  O_18
REMARK    9  A    between atoms: C_19  and  O_20
REMARK                            x       y       z     vdW  Elec       q    Type
REMARK                         _______ _______ _______ _____ _____    ______ ____
ROOT
ATOM      1  C   UNL     1       0.505   9.838  21.386  0.00  0.00    +0.000 A 
ATOM      2  C   UNL     1       0.480  11.177  20.994  0.00  0.00    +0.000 A 
ATOM      3  C   UNL     1      -0.303  12.106  21.680  0.00  0.00    +0.000 A 
ATOM      4  C   UNL     1      -1.096  11.709  22.760  0.00  0.00    +0.000 A 
ATOM      5  C   UNL     1      -1.086  10.363  23.145  0.00  0.00    +0.000 A 
ATOM      6  C   UNL     1      -0.298   9.434  22.458  0.00  0.00    +0.000 A 
ENDROOT
BRANCH   1   9
ATOM      7  O   UNL     1       1.050   9.463  18.510  0.00  0.00    +0.000 OA
ATOM      8  C   UNL     1       1.494   8.730  19.388  0.00  0.00    +0.000 C 
ATOM      9  N   UNL     1       1.304   8.865  20.753  0.00  0.00    +0.000 N 
ATOM     10  H   UNL     1       1.890   8.307  21.361  0.00  0.00    +0.000 HD
BRANCH   8  11
ATOM     11  C   UNL     1       2.386   7.615  18.978  0.00  0.00    +0.000 A 
ATOM     12  C   UNL     1       3.134   7.765  17.802  0.00  0.00    +0.000 A 
ATOM     13  C   UNL     1       3.979   6.741  17.377  0.00  0.00    +0.000 A 
ATOM     14  C   UNL     1       4.069   5.563  18.116  0.00  0.00    +0.000 A 
ATOM     15  C   UNL     1       3.310   5.400  19.276  0.00  0.00    +0.000 A 
ATOM     16  C   UNL     1       2.463   6.423  19.708  0.00  0.00    +0.000 A 
ENDBRANCH   8  11
ENDBRANCH   1   9
BRANCH   4  17
ATOM     17  C   UNL     1      -1.948  12.713  23.497  0.00  0.00    +0.000 C 
BRANCH  17  18
ATOM     18  C   UNL     1      -2.588  13.767  22.595  0.00  0.00    +0.000 C 
BRANCH  18  19
ATOM     19  S   UNL     1      -4.409  13.588  22.540  0.00  0.00    +0.000 S 
ATOM     20  O   UNL     1      -4.991  14.979  22.101  0.00  0.00    +0.000 OA
BRANCH  19  21
ATOM     21  C   UNL     1      -4.458  12.586  21.059  0.00  0.00    +0.000 C 
ATOM     22  C   UNL     1      -3.470  12.713  20.159  0.00  0.00    +0.000 C 
BRANCH  22  23
ATOM     23  C   UNL     1      -3.436  11.988  18.880  0.00  0.00    +0.000 A 
ATOM     24  C   UNL     1      -4.605  11.917  18.102  0.00  0.00    +0.000 A 
ATOM     25  C   UNL     1      -4.635  11.180  16.910  0.00  0.00    +0.000 A 
ATOM     26  C   UNL     1      -3.493  10.504  16.504  0.00  0.00    +0.000 A 
ATOM     27  C   UNL     1      -2.335  10.560  17.274  0.00  0.00    +0.000 A 
ATOM     28  C   UNL     1      -2.296  11.291  18.454  0.00  0.00    +0.000 A 
BRANCH  26  29
ATOM     29  O   UNL     1      -3.458   9.759  15.358  0.00  0.00    +0.000 OA
ATOM     30  H   UNL     1      -4.249   9.971  14.833  0.00  0.00    +0.000 HD
ENDBRANCH  26  29
BRANCH  27  31
ATOM     31  O   UNL     1      -1.220   9.878  16.879  0.00  0.00    +0.000 OA
ATOM     32  H   UNL     1      -0.898  10.365  16.095  0.00  0.00    +0.000 HD
ENDBRANCH  27  31
ENDBRANCH  22  23
ENDBRANCH  19  21
ENDBRANCH  18  19
ENDBRANCH  17  18
ENDBRANCH   4  17
TORSDOF 9
ENDMDL
MODEL 7
REMARK VINA RESULT:      -7.7      1.246      1.959
REMARK  Name = 
REMARK  9 active torsions:
REMARK  status: ('A' for Active; 'I' for Inactive)
REMARK    1  A    between atoms: C_2  and  C_24
REMARK    2  A    between atoms: N_3  and  C_4
REMARK    3  A    between atoms: C_7  and  C_8
REMARK    4  A    between atoms: C_8  and  C_9
REMARK    5  A    between atoms: C_9  and  S_10
REMARK    6  A    between atoms: S_10  and  C_12
REMARK    7  A    between atoms: C_13  and  C_14
REMARK    8  A    between atoms: C_17  and  O_18
REMARK    9  A    between atoms: C_19  and  O_20
REMARK                            x       y       z     vdW  Elec       q    Type
REMARK                         _______ _______ _______ _____ _____    ______ ____
ROOT
ATOM      1  C   UNL     1       7.943   8.201  18.026  0.00  0.00    +0.000 A 
ATOM      2  C   UNL     1       8.254   7.052  18.753  0.00  0.00    +0.000 A 
ATOM      3  C   UNL     1       7.453   5.913  18.665  0.00  0.00    +0.000 A 
ATOM      4  C   UNL     1       6.308   5.909  17.862  0.00  0.00    +0.000 A 
ATOM      5  C   UNL     1       5.984   7.067  17.145  0.00  0.00    +0.000 A 
ATOM      6  C   UNL     1       6.791   8.207  17.233  0.00  0.00    +0.000 A 
ENDROOT
BRANCH   1   9
ATOM      7  O   UNL     1       8.882   9.764  20.347  0.00  0.00    +0.000 OA
ATOM      8  C   UNL     1       9.118  10.068  19.182  0.00  0.00    +0.000 C 
ATOM      9  N   UNL     1       8.736   9.367  18.050  0.00  0.00    +0.000 N 
ATOM     10  H   UNL     1       9.168   9.628  17.174  0.00  0.00    +0.000 HD
BRANCH   8  11
ATOM     11  C   UNL     1       9.955  11.270  18.932  0.00  0.00    +0.000 A 
ATOM     12  C   UNL     1      10.265  12.097  20.020  0.00  0.00    +0.000 A 
ATOM     13  C   UNL     1      11.043  13.238  19.830  0.00  0.00    +0.000 A 
ATOM     14  C   UNL     1      11.502  13.561  18.555  0.00  0.00    +0.000 A 
ATOM     15  C   UNL     1      11.178  12.751  17.464  0.00  0.00    +0.000 A 
ATOM     16  C   UNL     1      10.401  11.607  17.649  0.00  0.00    +0.000 A 
ENDBRANCH   8  11
ENDBRANCH   1   9
BRANCH   4  17
ATOM     17  C   UNL     1       5.438   4.680  17.771  0.00  0.00    +0.000 C 
BRANCH  17  18
ATOM     18  C   UNL     1       5.064   4.081  19.126  0.00  0.00    +0.000 C 
BRANCH  18  19
ATOM     19  S   UNL     1       3.265   3.767  19.250  0.00  0.00    +0.000 S 
ATOM     20  O   UNL     1       2.912   3.728  20.780  0.00  0.00    +0.000 OA
BRANCH  19  21
ATOM     21  C   UNL     1       2.750   5.391  18.704  0.00  0.00    +0.000 C 
ATOM     22  C   UNL     1       2.523   6.341  19.625  0.00  0.00    +0.000 C 
BRANCH  22  23
ATOM     23  C   UNL     1       2.037   7.691  19.299  0.00  0.00    +0.000 A 
ATOM     24  C   UNL     1       2.361   8.253  18.052  0.00  0.00    +0.000 A 
ATOM     25  C   UNL     1       1.976   9.561  17.728  0.00  0.00    +0.000 A 
ATOM     26  C   UNL     1       1.274  10.310  18.662  0.00  0.00    +0.000 A 
ATOM     27  C   UNL     1       0.959   9.765  19.903  0.00  0.00    +0.000 A 
ATOM     28  C   UNL     1       1.333   8.469  20.229  0.00  0.00    +0.000 A 
BRANCH  26  29
ATOM     29  O   UNL     1       0.879  11.596  18.413  0.00  0.00    +0.000 OA
ATOM     30  H   UNL     1       1.122  12.142  19.180  0.00  0.00    +0.000 HD
ENDBRANCH  26  29
BRANCH  27  31
ATOM     31  O   UNL     1       0.285  10.514  20.825  0.00  0.00    +0.000 OA
ATOM     32  H   UNL     1       0.896  10.578  21.585  0.00  0.00    +0.000 HD
ENDBRANCH  27  31
ENDBRANCH  22  23
ENDBRANCH  19  21
ENDBRANCH  18  19
ENDBRANCH  17  18
ENDBRANCH   4  17
TORSDOF 9
ENDMDL
MODEL 8
REMARK VINA RESULT:      -7.6      1.700      2.468
REMARK  Name = 
REMARK  9 active torsions:
REMARK  status: ('A' for Active; 'I' for Inactive)
REMARK    1  A    between atoms: C_2  and  C_24
REMARK    2  A    between atoms: N_3  and  C_4
REMARK    3  A    between atoms: C_7  and  C_8
REMARK    4  A    between atoms: C_8  and  C_9
REMARK    5  A    between atoms: C_9  and  S_10
REMARK    6  A    between atoms: S_10  and  C_12
REMARK    7  A    between atoms: C_13  and  C_14
REMARK    8  A    between atoms: C_17  and  O_18
REMARK    9  A    between atoms: C_19  and  O_20
REMARK                            x       y       z     vdW  Elec       q    Type
REMARK                         _______ _______ _______ _____ _____    ______ ____
ROOT
ATOM      1  C   UNL     1       7.987   8.329  17.895  0.00  0.00    +0.000 A 
ATOM      2  C   UNL     1       8.452   7.364  18.788  0.00  0.00    +0.000 A 
ATOM      3  C   UNL     1       7.805   6.133  18.910  0.00  0.00    +0.000 A 
ATOM      4  C   UNL     1       6.663   5.853  18.154  0.00  0.00    +0.000 A 
ATOM      5  C   UNL     1       6.184   6.826  17.269  0.00  0.00    +0.000 A 
ATOM      6  C   UNL     1       6.837   8.058  17.147  0.00  0.00    +0.000 A 
ENDROOT
BRANCH   1   9
ATOM      7  O   UNL     1       9.172  10.137  19.905  0.00  0.00    +0.000 OA
ATOM      8  C   UNL     1       9.133  10.386  18.704  0.00  0.00    +0.000 C 
ATOM      9  N   UNL     1       8.622   9.574  17.706  0.00  0.00    +0.000 N 
ATOM     10  H   UNL     1       8.837   9.822  16.749  0.00  0.00    +0.000 HD
BRANCH   8  11
ATOM     11  C   UNL     1       9.752  11.654  18.237  0.00  0.00    +0.000 A 
ATOM     12  C   UNL     1       8.978  12.821  18.276  0.00  0.00    +0.000 A 
ATOM     13  C   UNL     1       9.517  14.032  17.842  0.00  0.00    +0.000 A 
ATOM     14  C   UNL     1      10.823  14.076  17.358  0.00  0.00    +0.000 A 
ATOM     15  C   UNL     1      11.591  12.912  17.299  0.00  0.00    +0.000 A 
ATOM     16  C   UNL     1      11.057  11.697  17.733  0.00  0.00    +0.000 A 
ENDBRANCH   8  11
ENDBRANCH   1   9
BRANCH   4  17
ATOM     17  C   UNL     1       5.960   4.525  18.290  0.00  0.00    +0.000 C 
BRANCH  17  18
ATOM     18  C   UNL     1       4.824   4.524  19.311  0.00  0.00    +0.000 C 
BRANCH  18  19
ATOM     19  S   UNL     1       3.194   4.743  18.506  0.00  0.00    +0.000 S 
ATOM     20  O   UNL     1       2.174   3.840  19.287  0.00  0.00    +0.000 OA
BRANCH  19  21
ATOM     21  C   UNL     1       2.899   6.398  19.118  0.00  0.00    +0.000 C 
ATOM     22  C   UNL     1       1.772   6.642  19.804  0.00  0.00    +0.000 C 
BRANCH  22  23
ATOM     23  C   UNL     1       1.395   7.975  20.301  0.00  0.00    +0.000 A 
ATOM     24  C   UNL     1       1.298   9.043  19.391  0.00  0.00    +0.000 A 
ATOM     25  C   UNL     1       1.008  10.341  19.832  0.00  0.00    +0.000 A 
ATOM     26  C   UNL     1       0.825  10.570  21.188  0.00  0.00    +0.000 A 
ATOM     27  C   UNL     1       0.930   9.521  22.096  0.00  0.00    +0.000 A 
ATOM     28  C   UNL     1       1.214   8.231  21.668  0.00  0.00    +0.000 A 
BRANCH  26  29
ATOM     29  O   UNL     1       0.550  11.815  21.685  0.00  0.00    +0.000 OA
ATOM     30  H   UNL     1      -0.192  11.736  22.308  0.00  0.00    +0.000 HD
ENDBRANCH  26  29
BRANCH  27  31
ATOM     31  O   UNL     1       0.768   9.756  23.432  0.00  0.00    +0.000 OA
ATOM     32  H   UNL     1       1.678   9.804  23.786  0.00  0.00    +0.000 HD
ENDBRANCH  27  31
ENDBRANCH  22  23
ENDBRANCH  19  21
ENDBRANCH  18  19
ENDBRANCH  17  18
ENDBRANCH   4  17
TORSDOF 9
ENDMDL
MODEL 9
REMARK VINA RESULT:      -7.6      1.353      1.682
REMARK  Name = 
REMARK  9 active torsions:
REMARK  status: ('A' for Active; 'I' for Inactive)
REMARK    1  A    between atoms: C_2  and  C_24
REMARK    2  A    between atoms: N_3  and  C_4
REMARK    3  A    between atoms: C_7  and  C_8
REMARK    4  A    between atoms: C_8  and  C_9
REMARK    5  A    between atoms: C_9  and  S_10
REMARK    6  A    between atoms: S_10  and  C_12
REMARK    7  A    between atoms: C_13  and  C_14
REMARK    8  A    between atoms: C_17  and  O_18
REMARK    9  A    between atoms: C_19  and  O_20
REMARK                            x       y       z     vdW  Elec       q    Type
REMARK                         _______ _______ _______ _____ _____    ______ ____
ROOT
ATOM      1  C   UNL     1       7.870   8.086  17.916  0.00  0.00    +0.000 A 
ATOM      2  C   UNL     1       8.334   7.089  18.774  0.00  0.00    +0.000 A 
ATOM      3  C   UNL     1       7.658   5.873  18.887  0.00  0.00    +0.000 A 
ATOM      4  C   UNL     1       6.489   5.639  18.157  0.00  0.00    +0.000 A 
ATOM      5  C   UNL     1       6.012   6.644  17.307  0.00  0.00    +0.000 A 
ATOM      6  C   UNL     1       6.693   7.861  17.194  0.00  0.00    +0.000 A 
ENDROOT
BRANCH   1   9
ATOM      7  O   UNL     1       9.135   9.828  19.934  0.00  0.00    +0.000 OA
ATOM      8  C   UNL     1       9.081  10.100  18.739  0.00  0.00    +0.000 C 
ATOM      9  N   UNL     1       8.532   9.318  17.737  0.00  0.00    +0.000 N 
ATOM     10  H   UNL     1       8.735   9.577  16.780  0.00  0.00    +0.000 HD
BRANCH   8  11
ATOM     11  C   UNL     1       9.722  11.360  18.282  0.00  0.00    +0.000 A 
ATOM     12  C   UNL     1      11.102  11.508  18.476  0.00  0.00    +0.000 A 
ATOM     13  C   UNL     1      11.744  12.676  18.068  0.00  0.00    +0.000 A 
ATOM     14  C   UNL     1      11.008  13.701  17.477  0.00  0.00    +0.000 A 
ATOM     15  C   UNL     1       9.630  13.567  17.300  0.00  0.00    +0.000 A 
ATOM     16  C   UNL     1       8.982  12.399  17.706  0.00  0.00    +0.000 A 
ENDBRANCH   8  11
ENDBRANCH   1   9
BRANCH   4  17
ATOM     17  C   UNL     1       5.755   4.326  18.283  0.00  0.00    +0.000 C 
BRANCH  17  18
ATOM     18  C   UNL     1       4.437   4.274  17.513  0.00  0.00    +0.000 C 
BRANCH  18  19
ATOM     19  S   UNL     1       3.003   4.136  18.642  0.00  0.00    +0.000 S 
ATOM     20  O   UNL     1       3.572   3.787  20.064  0.00  0.00    +0.000 OA
BRANCH  19  21
ATOM     21  C   UNL     1       2.644   5.887  18.711  0.00  0.00    +0.000 C 
ATOM     22  C   UNL     1       2.130   6.398  19.841  0.00  0.00    +0.000 C 
BRANCH  22  23
ATOM     23  C   UNL     1       1.739   7.808  19.992  0.00  0.00    +0.000 A 
ATOM     24  C   UNL     1       1.419   8.297  21.271  0.00  0.00    +0.000 A 
ATOM     25  C   UNL     1       0.976   9.615  21.450  0.00  0.00    +0.000 A 
ATOM     26  C   UNL     1       0.844  10.440  20.342  0.00  0.00    +0.000 A 
ATOM     27  C   UNL     1       1.147   9.960  19.071  0.00  0.00    +0.000 A 
ATOM     28  C   UNL     1       1.590   8.658  18.886  0.00  0.00    +0.000 A 
BRANCH  26  29
ATOM     29  O   UNL     1       0.407  11.732  20.445  0.00  0.00    +0.000 OA
ATOM     30  H   UNL     1      -0.125  11.808  21.256  0.00  0.00    +0.000 HD
ENDBRANCH  26  29
BRANCH  27  31
ATOM     31  O   UNL     1       0.997  10.771  17.982  0.00  0.00    +0.000 OA
ATOM     32  H   UNL     1       1.049  11.679  18.342  0.00  0.00    +0.000 HD
ENDBRANCH  27  31
ENDBRANCH  22  23
ENDBRANCH  19  21
ENDBRANCH  18  19
ENDBRANCH  17  18
ENDBRANCH   4  17
TORSDOF 9
ENDMDL
