MODEL 1
REMARK VINA RESULT:      -6.5      0.000      0.000
REMARK  Name = 
REMARK  21 active torsions:
REMARK  status: ('A' for Active; 'I' for Inactive)
REMARK    1  A    between atoms: C_1  and  C_2
REMARK    2  A    between atoms: C_2  and  O_4
REMARK    3  A    between atoms: O_4  and  C_5
REMARK    4  A    between atoms: C_5  and  C_6
REMARK    5  A    between atoms: C_6  and  C_15
REMARK    6  A    between atoms: C_7  and  C_8
REMARK    7  A    between atoms: C_8  and  C_9
REMARK    8  A    between atoms: C_9  and  C_10
REMARK    9  A    between atoms: C_10  and  C_11
REMARK   10  A    between atoms: C_12  and  C_13
REMARK   11  A    between atoms: C_13  and  O_14
REMARK   12  A    between atoms: C_15  and  C_16
REMARK   13  A    between atoms: C_16  and  C_17
REMARK   14  A    between atoms: C_17  and  C_18
REMARK   15  A    between atoms: C_18  and  C_19
REMARK   16  A    between atoms: C_18  and  C_20
REMARK   17  A    between atoms: C_20  and  O_21
REMARK   18  A    between atoms: C_20  and  C_22
REMARK   19  A    between atoms: C_22  and  C_23
REMARK   20  A    between atoms: C_24  and  C_25
REMARK   21  A    between atoms: C_24  and  C_26
REMARK                            x       y       z     vdW  Elec       q    Type
REMARK                         _______ _______ _______ _____ _____    ______ ____
ROOT
ATOM      1  C   UNL     1       7.957   7.306  18.097  0.00  0.00    +0.000 C 
ATOM      2  C   UNL     1       8.450   8.421  18.673  0.00  0.00    +0.000 C 
ENDROOT
BRANCH   2   3
ATOM      3  C   UNL     1       8.409   9.794  18.056  0.00  0.00    +0.000 C 
BRANCH   3   4
ATOM      4  C   UNL     1       9.686  10.617  18.274  0.00  0.00    +0.000 C 
BRANCH   4   5
ATOM      5  C   UNL     1       9.564  11.555  19.467  0.00  0.00    +0.000 C 
ATOM      6  C   UNL     1       9.795  13.018  19.205  0.00  0.00    +0.000 C 
ATOM      7  C   UNL     1       9.268  11.086  20.697  0.00  0.00    +0.000 C 
BRANCH   7   8
ATOM      8  C   UNL     1       9.119  11.899  21.944  0.00  0.00    +0.000 C 
BRANCH   8   9
ATOM      9  O   UNL     1       8.578  11.060  22.954  0.00  0.00    +0.000 OA
ATOM     10  H   UNL     1       8.696  11.534  23.795  0.00  0.00    +0.000 HD
ENDBRANCH   8   9
ENDBRANCH   7   8
ENDBRANCH   4   5
ENDBRANCH   3   4
ENDBRANCH   2   3
BRANCH   1  11
ATOM     11  C   UNL     1       8.006   5.977  18.831  0.00  0.00    +0.000 C 
BRANCH  11  12
ATOM     12  C   UNL     1       6.695   5.537  19.502  0.00  0.00    +0.000 C 
BRANCH  12  13
ATOM     13  C   UNL     1       6.136   4.285  18.830  0.00  0.00    +0.000 C 
BRANCH  13  14
ATOM     14  C   UNL     1       4.597   4.163  18.875  0.00  0.00    +0.000 C 
ATOM     15  C   UNL     1       3.929   5.548  18.844  0.00  0.00    +0.000 C 
BRANCH  14  16
ATOM     16  C   UNL     1       4.071   3.301  17.696  0.00  0.00    +0.000 C 
BRANCH  16  17
ATOM     17  O   UNL     1       3.151   4.085  16.924  0.00  0.00    +0.000 OA
ATOM     18  H   UNL     1       2.393   4.300  17.494  0.00  0.00    +0.000 HD
ENDBRANCH  16  17
BRANCH  16  19
ATOM     19  C   UNL     1       3.363   1.991  18.114  0.00  0.00    +0.000 C 
BRANCH  19  20
ATOM     20  C   UNL     1       2.876   2.065  19.541  0.00  0.00    +0.000 C 
ATOM     21  C   UNL     1       1.660   2.475  19.952  0.00  0.00    +0.000 C 
ATOM     22  C   UNL     1       0.502   2.783  19.043  0.00  0.00    +0.000 C 
ATOM     23  C   UNL     1       1.381   2.678  21.417  0.00  0.00    +0.000 C 
ENDBRANCH  19  20
ENDBRANCH  16  19
ENDBRANCH  14  16
ENDBRANCH  13  14
ENDBRANCH  12  13
ENDBRANCH  11  12
ENDBRANCH   1  11
BRANCH   1  24
ATOM     24  C   UNL     1       7.277   7.322  16.739  0.00  0.00    +0.000 C 
BRANCH  24  25
ATOM     25  O   UNL     1       7.373   6.066  16.054  0.00  0.00    +0.000 OA
BRANCH  25  27
ATOM     26  C   UNL     1       6.505   4.191  14.971  0.00  0.00    +0.000 C 
ATOM     27  C   UNL     1       6.218   5.537  15.565  0.00  0.00    +0.000 C 
ATOM     28  O   UNL     1       5.120   6.069  15.558  0.00  0.00    +0.000 OA
ENDBRANCH  25  27
ENDBRANCH  24  25
ENDBRANCH   1  24
TORSDOF 16
ENDMDL
MODEL 2
REMARK VINA RESULT:      -6.4      4.624      7.347
REMARK  Name = 
REMARK  21 active torsions:
REMARK  status: ('A' for Active; 'I' for Inactive)
REMARK    1  A    between atoms: C_1  and  C_2
REMARK    2  A    between atoms: C_2  and  O_4
REMARK    3  A    between atoms: O_4  and  C_5
REMARK    4  A    between atoms: C_5  and  C_6
REMARK    5  A    between atoms: C_6  and  C_15
REMARK    6  A    between atoms: C_7  and  C_8
REMARK    7  A    between atoms: C_8  and  C_9
REMARK    8  A    between atoms: C_9  and  C_10
REMARK    9  A    between atoms: C_10  and  C_11
REMARK   10  A    between atoms: C_12  and  C_13
REMARK   11  A    between atoms: C_13  and  O_14
REMARK   12  A    between atoms: C_15  and  C_16
REMARK   13  A    between atoms: C_16  and  C_17
REMARK   14  A    between atoms: C_17  and  C_18
REMARK   15  A    between atoms: C_18  and  C_19
REMARK   16  A    between atoms: C_18  and  C_20
REMARK   17  A    between atoms: C_20  and  O_21
REMARK   18  A    between atoms: C_20  and  C_22
REMARK   19  A    between atoms: C_22  and  C_23
REMARK   20  A    between atoms: C_24  and  C_25
REMARK   21  A    between atoms: C_24  and  C_26
REMARK                            x       y       z     vdW  Elec       q    Type
REMARK                         _______ _______ _______ _____ _____    ______ ____
ROOT
ATOM      1  C   UNL     1       3.191   5.443  19.263  0.00  0.00    +0.000 C 
ATOM      2  C   UNL     1       3.232   6.570  18.523  0.00  0.00    +0.000 C 
ENDROOT
BRANCH   2   3
ATOM      3  C   UNL     1       2.222   7.684  18.600  0.00  0.00    +0.000 C 
BRANCH   3   4
ATOM      4  C   UNL     1       1.878   8.118  20.032  0.00  0.00    +0.000 C 
BRANCH   4   5
ATOM      5  C   UNL     1       0.956   9.330  20.054  0.00  0.00    +0.000 C 
ATOM      6  C   UNL     1       0.393   9.727  21.390  0.00  0.00    +0.000 C 
ATOM      7  C   UNL     1       0.661  10.004  18.923  0.00  0.00    +0.000 C 
BRANCH   7   8
ATOM      8  C   UNL     1      -0.225  11.204  18.812  0.00  0.00    +0.000 C 
BRANCH   8   9
ATOM      9  O   UNL     1      -0.919  11.126  17.576  0.00  0.00    +0.000 OA
ATOM     10  H   UNL     1      -1.866  11.092  17.796  0.00  0.00    +0.000 HD
ENDBRANCH   8   9
ENDBRANCH   7   8
ENDBRANCH   4   5
ENDBRANCH   3   4
ENDBRANCH   2   3
BRANCH   1  11
ATOM     11  C   UNL     1       4.291   4.404  19.142  0.00  0.00    +0.000 C 
BRANCH  11  12
ATOM     12  C   UNL     1       5.305   4.636  18.011  0.00  0.00    +0.000 C 
BRANCH  12  13
ATOM     13  C   UNL     1       4.940   3.812  16.778  0.00  0.00    +0.000 C 
BRANCH  13  14
ATOM     14  C   UNL     1       5.255   4.496  15.430  0.00  0.00    +0.000 C 
ATOM     15  C   UNL     1       5.217   6.028  15.563  0.00  0.00    +0.000 C 
BRANCH  14  16
ATOM     16  C   UNL     1       6.639   4.051  14.888  0.00  0.00    +0.000 C 
BRANCH  16  17
ATOM     17  O   UNL     1       7.646   4.927  15.415  0.00  0.00    +0.000 OA
ATOM     18  H   UNL     1       7.405   5.836  15.169  0.00  0.00    +0.000 HD
ENDBRANCH  16  17
BRANCH  16  19
ATOM     19  C   UNL     1       6.761   4.042  13.345  0.00  0.00    +0.000 C 
BRANCH  19  20
ATOM     20  C   UNL     1       5.406   3.925  12.692  0.00  0.00    +0.000 C 
ATOM     21  C   UNL     1       5.032   3.001  11.784  0.00  0.00    +0.000 C 
ATOM     22  C   UNL     1       5.856   1.813  11.374  0.00  0.00    +0.000 C 
ATOM     23  C   UNL     1       3.709   3.124  11.077  0.00  0.00    +0.000 C 
ENDBRANCH  19  20
ENDBRANCH  16  19
ENDBRANCH  14  16
ENDBRANCH  13  14
ENDBRANCH  12  13
ENDBRANCH  11  12
ENDBRANCH   1  11
BRANCH   1  24
ATOM     24  C   UNL     1       2.101   5.182  20.288  0.00  0.00    +0.000 C 
BRANCH  24  25
ATOM     25  O   UNL     1       2.444   4.141  21.213  0.00  0.00    +0.000 OA
BRANCH  25  27
ATOM     26  C   UNL     1       0.960   2.870  19.938  0.00  0.00    +0.000 C 
ATOM     27  C   UNL     1       1.613   3.066  21.274  0.00  0.00    +0.000 C 
ATOM     28  O   UNL     1       1.381   2.379  22.255  0.00  0.00    +0.000 OA
ENDBRANCH  25  27
ENDBRANCH  24  25
ENDBRANCH   1  24
TORSDOF 16
ENDMDL
MODEL 3
REMARK VINA RESULT:      -6.3      3.387      7.835
REMARK  Name = 
REMARK  21 active torsions:
REMARK  status: ('A' for Active; 'I' for Inactive)
REMARK    1  A    between atoms: C_1  and  C_2
REMARK    2  A    between atoms: C_2  and  O_4
REMARK    3  A    between atoms: O_4  and  C_5
REMARK    4  A    between atoms: C_5  and  C_6
REMARK    5  A    between atoms: C_6  and  C_15
REMARK    6  A    between atoms: C_7  and  C_8
REMARK    7  A    between atoms: C_8  and  C_9
REMARK    8  A    between atoms: C_9  and  C_10
REMARK    9  A    between atoms: C_10  and  C_11
REMARK   10  A    between atoms: C_12  and  C_13
REMARK   11  A    between atoms: C_13  and  O_14
REMARK   12  A    between atoms: C_15  and  C_16
REMARK   13  A    between atoms: C_16  and  C_17
REMARK   14  A    between atoms: C_17  and  C_18
REMARK   15  A    between atoms: C_18  and  C_19
REMARK   16  A    between atoms: C_18  and  C_20
REMARK   17  A    between atoms: C_20  and  O_21
REMARK   18  A    between atoms: C_20  and  C_22
REMARK   19  A    between atoms: C_22  and  C_23
REMARK   20  A    between atoms: C_24  and  C_25
REMARK   21  A    between atoms: C_24  and  C_26
REMARK                            x       y       z     vdW  Elec       q    Type
REMARK                         _______ _______ _______ _____ _____    ______ ____
ROOT
ATOM      1  C   UNL     1       5.511   4.569  16.016  0.00  0.00    +0.000 C 
ATOM      2  C   UNL     1       5.188   4.562  14.706  0.00  0.00    +0.000 C 
ENDROOT
BRANCH   2   3
ATOM      3  C   UNL     1       6.186   4.591  13.577  0.00  0.00    +0.000 C 
BRANCH   3   4
ATOM      4  C   UNL     1       6.530   3.206  13.012  0.00  0.00    +0.000 C 
BRANCH   4   5
ATOM      5  C   UNL     1       5.542   2.765  11.941  0.00  0.00    +0.000 C 
ATOM      6  C   UNL     1       5.865   1.495  11.204  0.00  0.00    +0.000 C 
ATOM      7  C   UNL     1       4.436   3.489  11.671  0.00  0.00    +0.000 C 
BRANCH   7   8
ATOM      8  C   UNL     1       3.391   3.165  10.650  0.00  0.00    +0.000 C 
BRANCH   8   9
ATOM      9  O   UNL     1       3.149   4.334   9.882  0.00  0.00    +0.000 OA
ATOM     10  H   UNL     1       3.673   5.044  10.292  0.00  0.00    +0.000 HD
ENDBRANCH   8   9
ENDBRANCH   7   8
ENDBRANCH   4   5
ENDBRANCH   3   4
ENDBRANCH   2   3
BRANCH   1  11
ATOM     11  C   UNL     1       4.425   4.487  17.073  0.00  0.00    +0.000 C 
BRANCH  11  12
ATOM     12  C   UNL     1       4.914   4.464  18.530  0.00  0.00    +0.000 C 
BRANCH  12  13
ATOM     13  C   UNL     1       3.770   4.115  19.480  0.00  0.00    +0.000 C 
BRANCH  13  14
ATOM     14  C   UNL     1       2.444   4.851  19.189  0.00  0.00    +0.000 C 
ATOM     15  C   UNL     1       1.324   4.368  20.127  0.00  0.00    +0.000 C 
BRANCH  14  16
ATOM     16  C   UNL     1       2.617   6.387  19.328  0.00  0.00    +0.000 C 
BRANCH  16  17
ATOM     17  O   UNL     1       2.053   6.805  20.579  0.00  0.00    +0.000 OA
ATOM     18  H   UNL     1       2.010   7.776  20.576  0.00  0.00    +0.000 HD
ENDBRANCH  16  17
BRANCH  16  19
ATOM     19  C   UNL     1       1.964   7.219  18.198  0.00  0.00    +0.000 C 
BRANCH  19  20
ATOM     20  C   UNL     1       2.406   8.660  18.255  0.00  0.00    +0.000 C 
ATOM     21  C   UNL     1       1.618   9.746  18.127  0.00  0.00    +0.000 C 
ATOM     22  C   UNL     1       0.116   9.717  18.062  0.00  0.00    +0.000 C 
ATOM     23  C   UNL     1       2.226  11.118  18.014  0.00  0.00    +0.000 C 
ENDBRANCH  19  20
ENDBRANCH  16  19
ENDBRANCH  14  16
ENDBRANCH  13  14
ENDBRANCH  12  13
ENDBRANCH  11  12
ENDBRANCH   1  11
BRANCH   1  24
ATOM     24  C   UNL     1       6.951   4.591  16.500  0.00  0.00    +0.000 C 
BRANCH  24  25
ATOM     25  O   UNL     1       7.574   5.871  16.333  0.00  0.00    +0.000 OA
BRANCH  25  27
ATOM     26  C   UNL     1       7.866   6.492  18.563  0.00  0.00    +0.000 C 
ATOM     27  C   UNL     1       7.258   6.838  17.237  0.00  0.00    +0.000 C 
ATOM     28  O   UNL     1       6.557   7.817  17.040  0.00  0.00    +0.000 OA
ENDBRANCH  25  27
ENDBRANCH  24  25
ENDBRANCH   1  24
TORSDOF 16
ENDMDL
MODEL 4
REMARK VINA RESULT:      -6.3      4.334      7.029
REMARK  Name = 
REMARK  21 active torsions:
REMARK  status: ('A' for Active; 'I' for Inactive)
REMARK    1  A    between atoms: C_1  and  C_2
REMARK    2  A    between atoms: C_2  and  O_4
REMARK    3  A    between atoms: O_4  and  C_5
REMARK    4  A    between atoms: C_5  and  C_6
REMARK    5  A    between atoms: C_6  and  C_15
REMARK    6  A    between atoms: C_7  and  C_8
REMARK    7  A    between atoms: C_8  and  C_9
REMARK    8  A    between atoms: C_9  and  C_10
REMARK    9  A    between atoms: C_10  and  C_11
REMARK   10  A    between atoms: C_12  and  C_13
REMARK   11  A    between atoms: C_13  and  O_14
REMARK   12  A    between atoms: C_15  and  C_16
REMARK   13  A    between atoms: C_16  and  C_17
REMARK   14  A    between atoms: C_17  and  C_18
REMARK   15  A    between atoms: C_18  and  C_19
REMARK   16  A    between atoms: C_18  and  C_20
REMARK   17  A    between atoms: C_20  and  O_21
REMARK   18  A    between atoms: C_20  and  C_22
REMARK   19  A    between atoms: C_22  and  C_23
REMARK   20  A    between atoms: C_24  and  C_25
REMARK   21  A    between atoms: C_24  and  C_26
REMARK                            x       y       z     vdW  Elec       q    Type
REMARK                         _______ _______ _______ _____ _____    ______ ____
ROOT
ATOM      1  C   UNL     1       3.606   5.926  18.871  0.00  0.00    +0.000 C 
ATOM      2  C   UNL     1       3.319   7.127  18.329  0.00  0.00    +0.000 C 
ENDROOT
BRANCH   2   3
ATOM      3  C   UNL     1       1.927   7.636  18.061  0.00  0.00    +0.000 C 
BRANCH   3   4
ATOM      4  C   UNL     1       1.822   9.166  17.993  0.00  0.00    +0.000 C 
BRANCH   4   5
ATOM      5  C   UNL     1       0.781   9.709  18.964  0.00  0.00    +0.000 C 
ATOM      6  C   UNL     1      -0.438  10.349  18.360  0.00  0.00    +0.000 C 
ATOM      7  C   UNL     1       0.957   9.620  20.299  0.00  0.00    +0.000 C 
BRANCH   7   8
ATOM      8  C   UNL     1       0.015  10.111  21.352  0.00  0.00    +0.000 C 
BRANCH   8   9
ATOM      9  O   UNL     1       0.424  11.416  21.734  0.00  0.00    +0.000 OA
ATOM     10  H   UNL     1      -0.383  11.886  22.008  0.00  0.00    +0.000 HD
ENDBRANCH   8   9
ENDBRANCH   7   8
ENDBRANCH   4   5
ENDBRANCH   3   4
ENDBRANCH   2   3
BRANCH   1  11
ATOM     11  C   UNL     1       5.046   5.532  19.147  0.00  0.00    +0.000 C 
BRANCH  11  12
ATOM     12  C   UNL     1       5.509   4.211  18.513  0.00  0.00    +0.000 C 
BRANCH  12  13
ATOM     13  C   UNL     1       6.546   4.468  17.421  0.00  0.00    +0.000 C 
BRANCH  13  14
ATOM     14  C   UNL     1       6.128   3.996  16.012  0.00  0.00    +0.000 C 
ATOM     15  C   UNL     1       4.670   4.381  15.707  0.00  0.00    +0.000 C 
BRANCH  14  16
ATOM     16  C   UNL     1       7.065   4.588  14.924  0.00  0.00    +0.000 C 
BRANCH  16  17
ATOM     17  O   UNL     1       7.518   5.878  15.357  0.00  0.00    +0.000 OA
ATOM     18  H   UNL     1       8.405   6.021  14.986  0.00  0.00    +0.000 HD
ENDBRANCH  16  17
BRANCH  16  19
ATOM     19  C   UNL     1       6.420   4.742  13.526  0.00  0.00    +0.000 C 
BRANCH  19  20
ATOM     20  C   UNL     1       6.657   3.516  12.678  0.00  0.00    +0.000 C 
ATOM     21  C   UNL     1       5.736   2.858  11.946  0.00  0.00    +0.000 C 
ATOM     22  C   UNL     1       4.326   3.326  11.714  0.00  0.00    +0.000 C 
ATOM     23  C   UNL     1       6.076   1.541  11.304  0.00  0.00    +0.000 C 
ENDBRANCH  19  20
ENDBRANCH  16  19
ENDBRANCH  14  16
ENDBRANCH  13  14
ENDBRANCH  12  13
ENDBRANCH  11  12
ENDBRANCH   1  11
BRANCH   1  24
ATOM     24  C   UNL     1       2.526   4.943  19.291  0.00  0.00    +0.000 C 
BRANCH  24  25
ATOM     25  O   UNL     1       2.995   3.972  20.237  0.00  0.00    +0.000 OA
BRANCH  25  27
ATOM     26  C   UNL     1       0.968   2.826  20.098  0.00  0.00    +0.000 C 
ATOM     27  C   UNL     1       2.057   3.339  20.992  0.00  0.00    +0.000 C 
ATOM     28  O   UNL     1       2.053   3.228  22.207  0.00  0.00    +0.000 OA
ENDBRANCH  25  27
ENDBRANCH  24  25
ENDBRANCH   1  24
TORSDOF 16
ENDMDL
MODEL 5
REMARK VINA RESULT:      -6.2      3.953      7.339
REMARK  Name = 
REMARK  21 active torsions:
REMARK  status: ('A' for Active; 'I' for Inactive)
REMARK    1  A    between atoms: C_1  and  C_2
REMARK    2  A    between atoms: C_2  and  O_4
REMARK    3  A    between atoms: O_4  and  C_5
REMARK    4  A    between atoms: C_5  and  C_6
REMARK    5  A    between atoms: C_6  and  C_15
REMARK    6  A    between atoms: C_7  and  C_8
REMARK    7  A    between atoms: C_8  and  C_9
REMARK    8  A    between atoms: C_9  and  C_10
REMARK    9  A    between atoms: C_10  and  C_11
REMARK   10  A    between atoms: C_12  and  C_13
REMARK   11  A    between atoms: C_13  and  O_14
REMARK   12  A    between atoms: C_15  and  C_16
REMARK   13  A    between atoms: C_16  and  C_17
REMARK   14  A    between atoms: C_17  and  C_18
REMARK   15  A    between atoms: C_18  and  C_19
REMARK   16  A    between atoms: C_18  and  C_20
REMARK   17  A    between atoms: C_20  and  O_21
REMARK   18  A    between atoms: C_20  and  C_22
REMARK   19  A    between atoms: C_22  and  C_23
REMARK   20  A    between atoms: C_24  and  C_25
REMARK   21  A    between atoms: C_24  and  C_26
REMARK                            x       y       z     vdW  Elec       q    Type
REMARK                         _______ _______ _______ _____ _____    ______ ____
ROOT
ATOM      1  C   UNL     1       1.748   6.538  19.546  0.00  0.00    +0.000 C 
ATOM      2  C   UNL     1       1.921   7.796  19.999  0.00  0.00    +0.000 C 
ENDROOT
BRANCH   2   3
ATOM      3  C   UNL     1       1.573   8.263  21.388  0.00  0.00    +0.000 C 
BRANCH   3   4
ATOM      4  C   UNL     1       0.189   8.918  21.500  0.00  0.00    +0.000 C 
BRANCH   4   5
ATOM      5  C   UNL     1       0.054  10.125  20.582  0.00  0.00    +0.000 C 
ATOM      6  C   UNL     1       0.794  11.370  20.988  0.00  0.00    +0.000 C 
ATOM      7  C   UNL     1      -0.699  10.073  19.464  0.00  0.00    +0.000 C 
BRANCH   7   8
ATOM      8  C   UNL     1      -0.911  11.183  18.484  0.00  0.00    +0.000 C 
BRANCH   8   9
ATOM      9  O   UNL     1      -1.340  10.612  17.258  0.00  0.00    +0.000 OA
ATOM     10  H   UNL     1      -1.666  11.348  16.712  0.00  0.00    +0.000 HD
ENDBRANCH   8   9
ENDBRANCH   7   8
ENDBRANCH   4   5
ENDBRANCH   3   4
ENDBRANCH   2   3
BRANCH   1  11
ATOM     11  C   UNL     1       2.181   6.162  18.140  0.00  0.00    +0.000 C 
BRANCH  11  12
ATOM     12  C   UNL     1       3.394   5.223  18.045  0.00  0.00    +0.000 C 
BRANCH  12  13
ATOM     13  C   UNL     1       4.604   5.826  18.757  0.00  0.00    +0.000 C 
BRANCH  13  14
ATOM     14  C   UNL     1       5.501   4.801  19.483  0.00  0.00    +0.000 C 
ATOM     15  C   UNL     1       5.028   3.362  19.215  0.00  0.00    +0.000 C 
BRANCH  14  16
ATOM     16  C   UNL     1       6.984   4.953  19.052  0.00  0.00    +0.000 C 
BRANCH  16  17
ATOM     17  O   UNL     1       7.706   5.612  20.102  0.00  0.00    +0.000 OA
ATOM     18  H   UNL     1       7.069   6.138  20.616  0.00  0.00    +0.000 HD
ENDBRANCH  16  17
BRANCH  16  19
ATOM     19  C   UNL     1       7.201   5.746  17.741  0.00  0.00    +0.000 C 
BRANCH  19  20
ATOM     20  C   UNL     1       7.143   4.838  16.537  0.00  0.00    +0.000 C 
ATOM     21  C   UNL     1       6.315   4.959  15.481  0.00  0.00    +0.000 C 
ATOM     22  C   UNL     1       5.400   6.126  15.234  0.00  0.00    +0.000 C 
ATOM     23  C   UNL     1       6.239   3.870  14.446  0.00  0.00    +0.000 C 
ENDBRANCH  19  20
ENDBRANCH  16  19
ENDBRANCH  14  16
ENDBRANCH  13  14
ENDBRANCH  12  13
ENDBRANCH  11  12
ENDBRANCH   1  11
BRANCH   1  24
ATOM     24  C   UNL     1       1.183   5.429  20.416  0.00  0.00    +0.000 C 
BRANCH  24  25
ATOM     25  O   UNL     1       2.190   4.757  21.185  0.00  0.00    +0.000 OA
BRANCH  25  27
ATOM     26  C   UNL     1       1.134   2.895  20.257  0.00  0.00    +0.000 C 
ATOM     27  C   UNL     1       2.084   3.405  21.298  0.00  0.00    +0.000 C 
ATOM     28  O   UNL     1       2.630   2.700  22.131  0.00  0.00    +0.000 OA
ENDBRANCH  25  27
ENDBRANCH  24  25
ENDBRANCH   1  24
TORSDOF 16
ENDMDL
MODEL 6
REMARK VINA RESULT:      -6.2      5.040      8.369
REMARK  Name = 
REMARK  21 active torsions:
REMARK  status: ('A' for Active; 'I' for Inactive)
REMARK    1  A    between atoms: C_1  and  C_2
REMARK    2  A    between atoms: C_2  and  O_4
REMARK    3  A    between atoms: O_4  and  C_5
REMARK    4  A    between atoms: C_5  and  C_6
REMARK    5  A    between atoms: C_6  and  C_15
REMARK    6  A    between atoms: C_7  and  C_8
REMARK    7  A    between atoms: C_8  and  C_9
REMARK    8  A    between atoms: C_9  and  C_10
REMARK    9  A    between atoms: C_10  and  C_11
REMARK   10  A    between atoms: C_12  and  C_13
REMARK   11  A    between atoms: C_13  and  O_14
REMARK   12  A    between atoms: C_15  and  C_16
REMARK   13  A    between atoms: C_16  and  C_17
REMARK   14  A    between atoms: C_17  and  C_18
REMARK   15  A    between atoms: C_18  and  C_19
REMARK   16  A    between atoms: C_18  and  C_20
REMARK   17  A    between atoms: C_20  and  O_21
REMARK   18  A    between atoms: C_20  and  C_22
REMARK   19  A    between atoms: C_22  and  C_23
REMARK   20  A    between atoms: C_24  and  C_25
REMARK   21  A    between atoms: C_24  and  C_26
REMARK                            x       y       z     vdW  Elec       q    Type
REMARK                         _______ _______ _______ _____ _____    ______ ____
ROOT
ATOM      1  C   UNL     1       2.989   6.306  17.879  0.00  0.00    +0.000 C 
ATOM      2  C   UNL     1       1.779   5.716  17.791  0.00  0.00    +0.000 C 
ENDROOT
BRANCH   2   3
ATOM      3  C   UNL     1       1.539   4.233  17.902  0.00  0.00    +0.000 C 
BRANCH   3   4
ATOM      4  C   UNL     1       1.123   3.769  19.305  0.00  0.00    +0.000 C 
BRANCH   4   5
ATOM      5  C   UNL     1       2.213   2.947  19.980  0.00  0.00    +0.000 C 
ATOM      6  C   UNL     1       2.219   2.936  21.484  0.00  0.00    +0.000 C 
ATOM      7  C   UNL     1       3.128   2.270  19.256  0.00  0.00    +0.000 C 
BRANCH   7   8
ATOM      8  C   UNL     1       4.241   1.430  19.795  0.00  0.00    +0.000 C 
BRANCH   8   9
ATOM      9  O   UNL     1       5.350   2.279  20.050  0.00  0.00    +0.000 OA
ATOM     10  H   UNL     1       5.543   2.735  19.213  0.00  0.00    +0.000 HD
ENDBRANCH   8   9
ENDBRANCH   7   8
ENDBRANCH   4   5
ENDBRANCH   3   4
ENDBRANCH   2   3
BRANCH   1  11
ATOM     11  C   UNL     1       3.113   7.817  17.804  0.00  0.00    +0.000 C 
BRANCH  11  12
ATOM     12  C   UNL     1       1.799   8.601  17.945  0.00  0.00    +0.000 C 
BRANCH  12  13
ATOM     13  C   UNL     1       1.527   8.945  19.408  0.00  0.00    +0.000 C 
BRANCH  13  14
ATOM     14  C   UNL     1       0.213   9.718  19.654  0.00  0.00    +0.000 C 
ATOM     15  C   UNL     1       0.398  10.796  20.736  0.00  0.00    +0.000 C 
BRANCH  14  16
ATOM     16  C   UNL     1      -0.303  10.373  18.345  0.00  0.00    +0.000 C 
BRANCH  16  17
ATOM     17  O   UNL     1       0.034  11.767  18.361  0.00  0.00    +0.000 OA
ATOM     18  H   UNL     1       0.901  11.868  17.933  0.00  0.00    +0.000 HD
ENDBRANCH  16  17
BRANCH  16  19
ATOM     19  C   UNL     1      -1.827  10.243  18.111  0.00  0.00    +0.000 C 
BRANCH  19  20
ATOM     20  C   UNL     1      -2.141  10.063  16.646  0.00  0.00    +0.000 C 
ATOM     21  C   UNL     1      -3.243  10.497  16.003  0.00  0.00    +0.000 C 
ATOM     22  C   UNL     1      -4.294  11.389  16.603  0.00  0.00    +0.000 C 
ATOM     23  C   UNL     1      -3.509  10.078  14.583  0.00  0.00    +0.000 C 
ENDBRANCH  19  20
ENDBRANCH  16  19
ENDBRANCH  14  16
ENDBRANCH  13  14
ENDBRANCH  12  13
ENDBRANCH  11  12
ENDBRANCH   1  11
BRANCH   1  24
ATOM     24  C   UNL     1       4.265   5.517  18.120  0.00  0.00    +0.000 C 
BRANCH  24  25
ATOM     25  O   UNL     1       4.950   5.182  16.905  0.00  0.00    +0.000 OA
BRANCH  25  27
ATOM     26  C   UNL     1       7.198   4.690  17.283  0.00  0.00    +0.000 C 
ATOM     27  C   UNL     1       6.207   5.678  16.745  0.00  0.00    +0.000 C 
ATOM     28  O   UNL     1       6.507   6.766  16.282  0.00  0.00    +0.000 OA
ENDBRANCH  25  27
ENDBRANCH  24  25
ENDBRANCH   1  24
TORSDOF 16
ENDMDL
MODEL 7
REMARK VINA RESULT:      -6.2      6.282      9.156
REMARK  Name = 
REMARK  21 active torsions:
REMARK  status: ('A' for Active; 'I' for Inactive)
REMARK    1  A    between atoms: C_1  and  C_2
REMARK    2  A    between atoms: C_2  and  O_4
REMARK    3  A    between atoms: O_4  and  C_5
REMARK    4  A    between atoms: C_5  and  C_6
REMARK    5  A    between atoms: C_6  and  C_15
REMARK    6  A    between atoms: C_7  and  C_8
REMARK    7  A    between atoms: C_8  and  C_9
REMARK    8  A    between atoms: C_9  and  C_10
REMARK    9  A    between atoms: C_10  and  C_11
REMARK   10  A    between atoms: C_12  and  C_13
REMARK   11  A    between atoms: C_13  and  O_14
REMARK   12  A    between atoms: C_15  and  C_16
REMARK   13  A    between atoms: C_16  and  C_17
REMARK   14  A    between atoms: C_17  and  C_18
REMARK   15  A    between atoms: C_18  and  C_19
REMARK   16  A    between atoms: C_18  and  C_20
REMARK   17  A    between atoms: C_20  and  O_21
REMARK   18  A    between atoms: C_20  and  C_22
REMARK   19  A    between atoms: C_22  and  C_23
REMARK   20  A    between atoms: C_24  and  C_25
REMARK   21  A    between atoms: C_24  and  C_26
REMARK                            x       y       z     vdW  Elec       q    Type
REMARK                         _______ _______ _______ _____ _____    ______ ____
ROOT
ATOM      1  C   UNL     1       0.926   9.823  18.722  0.00  0.00    +0.000 C 
ATOM      2  C   UNL     1      -0.122   9.865  17.873  0.00  0.00    +0.000 C 
ENDROOT
BRANCH   2   3
ATOM      3  C   UNL     1      -1.444  10.520  18.175  0.00  0.00    +0.000 C 
BRANCH   3   4
ATOM      4  C   UNL     1      -2.661   9.745  17.651  0.00  0.00    +0.000 C 
BRANCH   4   5
ATOM      5  C   UNL     1      -3.661  10.657  16.954  0.00  0.00    +0.000 C 
ATOM      6  C   UNL     1      -3.614  10.689  15.451  0.00  0.00    +0.000 C 
ATOM      7  C   UNL     1      -4.539  11.400  17.659  0.00  0.00    +0.000 C 
BRANCH   7   8
ATOM      8  C   UNL     1      -5.567  12.329  17.096  0.00  0.00    +0.000 C 
BRANCH   8   9
ATOM      9  O   UNL     1      -6.845  11.739  17.286  0.00  0.00    +0.000 OA
ATOM     10  H   UNL     1      -7.377  12.392  17.773  0.00  0.00    +0.000 HD
ENDBRANCH   8   9
ENDBRANCH   7   8
ENDBRANCH   4   5
ENDBRANCH   3   4
ENDBRANCH   2   3
BRANCH   1  11
ATOM     11  C   UNL     1       2.233   9.179  18.297  0.00  0.00    +0.000 C 
BRANCH  11  12
ATOM     12  C   UNL     1       2.189   7.658  18.084  0.00  0.00    +0.000 C 
BRANCH  12  13
ATOM     13  C   UNL     1       2.506   6.919  19.382  0.00  0.00    +0.000 C 
BRANCH  13  14
ATOM     14  C   UNL     1       2.769   5.407  19.215  0.00  0.00    +0.000 C 
ATOM     15  C   UNL     1       1.944   4.586  20.222  0.00  0.00    +0.000 C 
BRANCH  14  16
ATOM     16  C   UNL     1       2.448   4.941  17.770  0.00  0.00    +0.000 C 
BRANCH  16  17
ATOM     17  O   UNL     1       1.226   4.188  17.788  0.00  0.00    +0.000 OA
ATOM     18  H   UNL     1       0.563   4.710  18.270  0.00  0.00    +0.000 HD
ENDBRANCH  16  17
BRANCH  16  19
ATOM     19  C   UNL     1       3.545   4.073  17.109  0.00  0.00    +0.000 C 
BRANCH  19  20
ATOM     20  C   UNL     1       4.922   4.516  17.535  0.00  0.00    +0.000 C 
ATOM     21  C   UNL     1       6.061   4.385  16.827  0.00  0.00    +0.000 C 
ATOM     22  C   UNL     1       6.139   3.914  15.401  0.00  0.00    +0.000 C 
ATOM     23  C   UNL     1       7.390   4.699  17.459  0.00  0.00    +0.000 C 
ENDBRANCH  19  20
ENDBRANCH  16  19
ENDBRANCH  14  16
ENDBRANCH  13  14
ENDBRANCH  12  13
ENDBRANCH  11  12
ENDBRANCH   1  11
BRANCH   1  24
ATOM     24  C   UNL     1       0.883  10.460  20.100  0.00  0.00    +0.000 C 
BRANCH  24  25
ATOM     25  O   UNL     1       1.319   9.571  21.138  0.00  0.00    +0.000 OA
BRANCH  25  27
ATOM     26  C   UNL     1      -0.579   8.372  21.773  0.00  0.00    +0.000 C 
ATOM     27  C   UNL     1       0.466   9.368  22.179  0.00  0.00    +0.000 C 
ATOM     28  O   UNL     1       0.496   9.924  23.264  0.00  0.00    +0.000 OA
ENDBRANCH  25  27
ENDBRANCH  24  25
ENDBRANCH   1  24
TORSDOF 16
ENDMDL
MODEL 8
REMARK VINA RESULT:      -6.2      2.946      5.024
REMARK  Name = 
REMARK  21 active torsions:
REMARK  status: ('A' for Active; 'I' for Inactive)
REMARK    1  A    between atoms: C_1  and  C_2
REMARK    2  A    between atoms: C_2  and  O_4
REMARK    3  A    between atoms: O_4  and  C_5
REMARK    4  A    between atoms: C_5  and  C_6
REMARK    5  A    between atoms: C_6  and  C_15
REMARK    6  A    between atoms: C_7  and  C_8
REMARK    7  A    between atoms: C_8  and  C_9
REMARK    8  A    between atoms: C_9  and  C_10
REMARK    9  A    between atoms: C_10  and  C_11
REMARK   10  A    between atoms: C_12  and  C_13
REMARK   11  A    between atoms: C_13  and  O_14
REMARK   12  A    between atoms: C_15  and  C_16
REMARK   13  A    between atoms: C_16  and  C_17
REMARK   14  A    between atoms: C_17  and  C_18
REMARK   15  A    between atoms: C_18  and  C_19
REMARK   16  A    between atoms: C_18  and  C_20
REMARK   17  A    between atoms: C_20  and  O_21
REMARK   18  A    between atoms: C_20  and  C_22
REMARK   19  A    between atoms: C_22  and  C_23
REMARK   20  A    between atoms: C_24  and  C_25
REMARK   21  A    between atoms: C_24  and  C_26
REMARK                            x       y       z     vdW  Elec       q    Type
REMARK                         _______ _______ _______ _____ _____    ______ ____
ROOT
ATOM      1  C   UNL     1       4.400   3.809  16.732  0.00  0.00    +0.000 C 
ATOM      2  C   UNL     1       4.098   5.047  17.176  0.00  0.00    +0.000 C 
ENDROOT
BRANCH   2   3
ATOM      3  C   UNL     1       4.558   6.326  16.528  0.00  0.00    +0.000 C 
BRANCH   3   4
ATOM      4  C   UNL     1       5.170   7.339  17.506  0.00  0.00    +0.000 C 
BRANCH   4   5
ATOM      5  C   UNL     1       6.586   6.954  17.914  0.00  0.00    +0.000 C 
ATOM      6  C   UNL     1       7.705   7.759  17.313  0.00  0.00    +0.000 C 
ATOM      7  C   UNL     1       6.815   5.935  18.768  0.00  0.00    +0.000 C 
BRANCH   7   8
ATOM      8  C   UNL     1       8.151   5.461  19.245  0.00  0.00    +0.000 C 
BRANCH   8   9
ATOM      9  O   UNL     1       8.132   5.447  20.664  0.00  0.00    +0.000 OA
ATOM     10  H   UNL     1       8.404   6.336  20.951  0.00  0.00    +0.000 HD
ENDBRANCH   8   9
ENDBRANCH   7   8
ENDBRANCH   4   5
ENDBRANCH   3   4
ENDBRANCH   2   3
BRANCH   1  11
ATOM     11  C   UNL     1       3.840   2.585  17.433  0.00  0.00    +0.000 C 
BRANCH  11  12
ATOM     12  C   UNL     1       2.349   2.650  17.801  0.00  0.00    +0.000 C 
BRANCH  12  13
ATOM     13  C   UNL     1       2.126   2.195  19.242  0.00  0.00    +0.000 C 
BRANCH  13  14
ATOM     14  C   UNL     1       1.517   3.270  20.169  0.00  0.00    +0.000 C 
ATOM     15  C   UNL     1       1.201   2.689  21.558  0.00  0.00    +0.000 C 
BRANCH  14  16
ATOM     16  C   UNL     1       2.470   4.487  20.314  0.00  0.00    +0.000 C 
BRANCH  16  17
ATOM     17  O   UNL     1       2.715   4.718  21.709  0.00  0.00    +0.000 OA
ATOM     18  H   UNL     1       3.465   5.333  21.780  0.00  0.00    +0.000 HD
ENDBRANCH  16  17
BRANCH  16  19
ATOM     19  C   UNL     1       1.945   5.801  19.688  0.00  0.00    +0.000 C 
BRANCH  19  20
ATOM     20  C   UNL     1       1.542   6.791  20.753  0.00  0.00    +0.000 C 
ATOM     21  C   UNL     1       1.453   8.128  20.611  0.00  0.00    +0.000 C 
ATOM     22  C   UNL     1       1.586   8.867  19.309  0.00  0.00    +0.000 C 
ATOM     23  C   UNL     1       1.225   9.006  21.812  0.00  0.00    +0.000 C 
ENDBRANCH  19  20
ENDBRANCH  16  19
ENDBRANCH  14  16
ENDBRANCH  13  14
ENDBRANCH  12  13
ENDBRANCH  11  12
ENDBRANCH   1  11
BRANCH   1  24
ATOM     24  C   UNL     1       5.245   3.573  15.492  0.00  0.00    +0.000 C 
BRANCH  24  25
ATOM     25  O   UNL     1       6.585   4.065  15.630  0.00  0.00    +0.000 OA
BRANCH  25  27
ATOM     26  C   UNL     1       6.572   4.157  13.299  0.00  0.00    +0.000 C 
ATOM     27  C   UNL     1       7.109   4.740  14.571  0.00  0.00    +0.000 C 
ATOM     28  O   UNL     1       7.921   5.649  14.618  0.00  0.00    +0.000 OA
ENDBRANCH  25  27
ENDBRANCH  24  25
ENDBRANCH   1  24
TORSDOF 16
ENDMDL
MODEL 9
REMARK VINA RESULT:      -6.1      4.166      7.272
REMARK  Name = 
REMARK  21 active torsions:
REMARK  status: ('A' for Active; 'I' for Inactive)
REMARK    1  A    between atoms: C_1  and  C_2
REMARK    2  A    between atoms: C_2  and  O_4
REMARK    3  A    between atoms: O_4  and  C_5
REMARK    4  A    between atoms: C_5  and  C_6
REMARK    5  A    between atoms: C_6  and  C_15
REMARK    6  A    between atoms: C_7  and  C_8
REMARK    7  A    between atoms: C_8  and  C_9
REMARK    8  A    between atoms: C_9  and  C_10
REMARK    9  A    between atoms: C_10  and  C_11
REMARK   10  A    between atoms: C_12  and  C_13
REMARK   11  A    between atoms: C_13  and  O_14
REMARK   12  A    between atoms: C_15  and  C_16
REMARK   13  A    between atoms: C_16  and  C_17
REMARK   14  A    between atoms: C_17  and  C_18
REMARK   15  A    between atoms: C_18  and  C_19
REMARK   16  A    between atoms: C_18  and  C_20
REMARK   17  A    between atoms: C_20  and  O_21
REMARK   18  A    between atoms: C_20  and  C_22
REMARK   19  A    between atoms: C_22  and  C_23
REMARK   20  A    between atoms: C_24  and  C_25
REMARK   21  A    between atoms: C_24  and  C_26
REMARK                            x       y       z     vdW  Elec       q    Type
REMARK                         _______ _______ _______ _____ _____    ______ ____
ROOT
ATOM      1  C   UNL     1       2.480   6.085  18.994  0.00  0.00    +0.000 C 
ATOM      2  C   UNL     1       2.471   7.317  19.542  0.00  0.00    +0.000 C 
ENDROOT
BRANCH   2   3
ATOM      3  C   UNL     1       1.731   7.691  20.800  0.00  0.00    +0.000 C 
BRANCH   3   4
ATOM      4  C   UNL     1       0.389   8.393  20.551  0.00  0.00    +0.000 C 
BRANCH   4   5
ATOM      5  C   UNL     1       0.559   9.893  20.350  0.00  0.00    +0.000 C 
ATOM      6  C   UNL     1       0.315  10.768  21.549  0.00  0.00    +0.000 C 
ATOM      7  C   UNL     1       0.905  10.403  19.150  0.00  0.00    +0.000 C 
BRANCH   7   8
ATOM      8  C   UNL     1       1.103  11.849  18.824  0.00  0.00    +0.000 C 
BRANCH   8   9
ATOM      9  O   UNL     1      -0.012  12.286  18.062  0.00  0.00    +0.000 OA
ATOM     10  H   UNL     1      -0.805  12.015  18.557  0.00  0.00    +0.000 HD
ENDBRANCH   8   9
ENDBRANCH   7   8
ENDBRANCH   4   5
ENDBRANCH   3   4
ENDBRANCH   2   3
BRANCH   1  11
ATOM     11  C   UNL     1       3.303   5.804  17.750  0.00  0.00    +0.000 C 
BRANCH  11  12
ATOM     12  C   UNL     1       3.405   4.328  17.336  0.00  0.00    +0.000 C 
BRANCH  12  13
ATOM     13  C   UNL     1       4.863   3.876  17.293  0.00  0.00    +0.000 C 
BRANCH  13  14
ATOM     14  C   UNL     1       5.858   4.956  16.814  0.00  0.00    +0.000 C 
ATOM     15  C   UNL     1       6.909   5.263  17.895  0.00  0.00    +0.000 C 
BRANCH  14  16
ATOM     16  C   UNL     1       6.566   4.521  15.503  0.00  0.00    +0.000 C 
BRANCH  16  17
ATOM     17  O   UNL     1       7.561   5.498  15.168  0.00  0.00    +0.000 OA
ATOM     18  H   UNL     1       7.189   6.377  15.355  0.00  0.00    +0.000 HD
ENDBRANCH  16  17
BRANCH  16  19
ATOM     19  C   UNL     1       5.627   4.345  14.285  0.00  0.00    +0.000 C 
BRANCH  19  20
ATOM     20  C   UNL     1       6.280   3.514  13.208  0.00  0.00    +0.000 C 
ATOM     21  C   UNL     1       5.690   3.041  12.093  0.00  0.00    +0.000 C 
ATOM     22  C   UNL     1       4.301   3.394  11.638  0.00  0.00    +0.000 C 
ATOM     23  C   UNL     1       6.414   2.066  11.204  0.00  0.00    +0.000 C 
ENDBRANCH  19  20
ENDBRANCH  16  19
ENDBRANCH  14  16
ENDBRANCH  13  14
ENDBRANCH  12  13
ENDBRANCH  11  12
ENDBRANCH   1  11
BRANCH   1  24
ATOM     24  C   UNL     1       1.737   4.913  19.613  0.00  0.00    +0.000 C 
BRANCH  24  25
ATOM     25  O   UNL     1       2.446   4.323  20.711  0.00  0.00    +0.000 OA
BRANCH  25  27
ATOM     26  C   UNL     1       1.745   2.242  19.922  0.00  0.00    +0.000 C 
ATOM     27  C   UNL     1       2.038   3.091  21.122  0.00  0.00    +0.000 C 
ATOM     28  O   UNL     1       1.883   2.723  22.275  0.00  0.00    +0.000 OA
ENDBRANCH  25  27
ENDBRANCH  24  25
ENDBRANCH   1  24
TORSDOF 16
ENDMDL
