MODEL 1
REMARK VINA RESULT:      -7.7      0.000      0.000
REMARK  Name = 
REMARK  5 active torsions:
REMARK  status: ('A' for Active; 'I' for Inactive)
REMARK    1  A    between atoms: C_2  and  C_3
REMARK    2  A    between atoms: C_3  and  O_4
REMARK    3  A    between atoms: O_4  and  C_5
REMARK    4  A    between atoms: C_16  and  S_17
REMARK    5  A    between atoms: S_17  and  N_20
REMARK                            x       y       z     vdW  Elec       q    Type
REMARK                         _______ _______ _______ _____ _____    ______ ____
ROOT
ATOM      1  O   UNL     1      -0.235  11.257  21.856  0.00  0.00    +0.000 OA
ATOM      2  C   UNL     1       0.126  10.569  20.900  0.00  0.00    +0.000 C 
ATOM      3  N   UNL     1       0.827   9.423  21.162  0.00  0.00    +0.000 N 
ATOM      4  C   UNL     1       1.375   8.589  20.228  0.00  0.00    +0.000 A 
ATOM      5  N   UNL     1       1.621   8.807  18.958  0.00  0.00    +0.000 NA
ATOM      6  N   UNL     1       2.133   7.684  18.330  0.00  0.00    +0.000 NA
ATOM      7  C   UNL     1       2.222   6.669  19.165  0.00  0.00    +0.000 A 
ATOM      8  S   UNL     1       1.750   7.013  20.774  0.00  0.00    +0.000 S 
ATOM      9  H   UNL     1       0.904   9.179  22.139  0.00  0.00    +0.000 HD
ENDROOT
BRANCH   7  10
ATOM     10  S   UNL     1       2.777   5.034  18.747  0.00  0.00    +0.000 S 
ATOM     11  O   UNL     1       2.793   4.297  19.999  0.00  0.00    +0.000 OA
ATOM     12  O   UNL     1       1.917   4.618  17.650  0.00  0.00    +0.000 OA
BRANCH  10  13
ATOM     13  N   UNL     1       4.405   5.110  18.154  0.00  0.00    +0.000 NA
ATOM     14  C   UNL     1       5.445   4.645  19.109  0.00  0.00    +0.000 C 
ATOM     15  C   UNL     1       6.760   5.415  18.973  0.00  0.00    +0.000 C 
ATOM     16  C   UNL     1       7.658   4.933  17.839  0.00  0.00    +0.000 C 
ATOM     17  C   UNL     1       7.027   5.055  16.460  0.00  0.00    +0.000 C 
ATOM     18  C   UNL     1       5.843   4.113  16.282  0.00  0.00    +0.000 C 
ATOM     19  C   UNL     1       4.514   4.706  16.724  0.00  0.00    +0.000 C 
ENDBRANCH  10  13
ENDBRANCH   7  10
BRANCH   2  20
ATOM     20  C   UNL     1      -0.322  10.898  19.474  0.00  0.00    +0.000 C 
BRANCH  20  21
ATOM     21  O   UNL     1      -1.647  11.392  19.359  0.00  0.00    +0.000 OA
BRANCH  21  22
ATOM     22  C   UNL     1      -2.267  11.088  18.169  0.00  0.00    +0.000 A 
ATOM     23  C   UNL     1      -3.444  11.683  17.700  0.00  0.00    +0.000 A 
ATOM     24  C   UNL     1      -3.990  11.316  16.470  0.00  0.00    +0.000 A 
ATOM     25  C   UNL     1      -3.357  10.349  15.696  0.00  0.00    +0.000 A 
ATOM     26 CL   UNL     1      -4.023   9.915  14.173  0.00  0.00    +0.000 Cl
ATOM     27  C   UNL     1      -2.185   9.746  16.148  0.00  0.00    +0.000 A 
ATOM     28  C   UNL     1      -1.641  10.114  17.386  0.00  0.00    +0.000 A 
ENDBRANCH  21  22
ENDBRANCH  20  21
ENDBRANCH   2  20
TORSDOF 5
ENDMDL
MODEL 2
REMARK VINA RESULT:      -7.7      1.213      1.990
REMARK  Name = 
REMARK  5 active torsions:
REMARK  status: ('A' for Active; 'I' for Inactive)
REMARK    1  A    between atoms: C_2  and  C_3
REMARK    2  A    between atoms: C_3  and  O_4
REMARK    3  A    between atoms: O_4  and  C_5
REMARK    4  A    between atoms: C_16  and  S_17
REMARK    5  A    between atoms: S_17  and  N_20
REMARK                            x       y       z     vdW  Elec       q    Type
REMARK                         _______ _______ _______ _____ _____    ______ ____
ROOT
ATOM      1  O   UNL     1       0.114  10.934  21.358  0.00  0.00    +0.000 OA
ATOM      2  C   UNL     1       0.535  10.199  20.464  0.00  0.00    +0.000 C 
ATOM      3  N   UNL     1       1.097   9.004  20.826  0.00  0.00    +0.000 N 
ATOM      4  C   UNL     1       1.687   8.108  19.980  0.00  0.00    +0.000 A 
ATOM      5  N   UNL     1       2.111   8.278  18.750  0.00  0.00    +0.000 NA
ATOM      6  N   UNL     1       2.602   7.104  18.205  0.00  0.00    +0.000 NA
ATOM      7  C   UNL     1       2.497   6.103  19.055  0.00  0.00    +0.000 A 
ATOM      8  S   UNL     1       1.853   6.519  20.586  0.00  0.00    +0.000 S 
ATOM      9  H   UNL     1       1.027   8.776  21.808  0.00  0.00    +0.000 HD
ENDROOT
BRANCH   7  10
ATOM     10  S   UNL     1       2.959   4.419  18.729  0.00  0.00    +0.000 S 
ATOM     11  O   UNL     1       2.986   3.765  20.026  0.00  0.00    +0.000 OA
ATOM     12  O   UNL     1       2.043   3.975  17.690  0.00  0.00    +0.000 OA
BRANCH  10  13
ATOM     13  N   UNL     1       4.567   4.376  18.080  0.00  0.00    +0.000 NA
ATOM     14  C   UNL     1       4.672   4.705  16.634  0.00  0.00    +0.000 C 
ATOM     15  C   UNL     1       5.785   3.926  15.929  0.00  0.00    +0.000 C 
ATOM     16  C   UNL     1       7.179   4.517  16.112  0.00  0.00    +0.000 C 
ATOM     17  C   UNL     1       7.640   4.569  17.561  0.00  0.00    +0.000 C 
ATOM     18  C   UNL     1       6.824   5.552  18.391  0.00  0.00    +0.000 C 
ATOM     19  C   UNL     1       5.579   4.941  19.017  0.00  0.00    +0.000 C 
ENDBRANCH  10  13
ENDBRANCH   7  10
BRANCH   2  20
ATOM     20  C   UNL     1       0.302  10.534  18.989  0.00  0.00    +0.000 C 
BRANCH  20  21
ATOM     21  O   UNL     1      -0.428  11.726  18.751  0.00  0.00    +0.000 OA
BRANCH  21  22
ATOM     22  C   UNL     1      -1.768  11.532  18.504  0.00  0.00    +0.000 A 
ATOM     23  C   UNL     1      -2.290  10.740  17.475  0.00  0.00    +0.000 A 
ATOM     24  C   UNL     1      -3.668  10.594  17.313  0.00  0.00    +0.000 A 
ATOM     25  C   UNL     1      -4.537  11.240  18.187  0.00  0.00    +0.000 A 
ATOM     26 CL   UNL     1      -6.232  11.040  17.995  0.00  0.00    +0.000 Cl
ATOM     27  C   UNL     1      -4.035  12.033  19.216  0.00  0.00    +0.000 A 
ATOM     28  C   UNL     1      -2.650  12.180  19.373  0.00  0.00    +0.000 A 
ENDBRANCH  21  22
ENDBRANCH  20  21
ENDBRANCH   2  20
TORSDOF 5
ENDMDL
MODEL 3
REMARK VINA RESULT:      -7.6      3.028      8.926
REMARK  Name = 
REMARK  5 active torsions:
REMARK  status: ('A' for Active; 'I' for Inactive)
REMARK    1  A    between atoms: C_2  and  C_3
REMARK    2  A    between atoms: C_3  and  O_4
REMARK    3  A    between atoms: O_4  and  C_5
REMARK    4  A    between atoms: C_16  and  S_17
REMARK    5  A    between atoms: S_17  and  N_20
REMARK                            x       y       z     vdW  Elec       q    Type
REMARK                         _______ _______ _______ _____ _____    ______ ____
ROOT
ATOM      1  O   UNL     1       3.335   3.820  20.626  0.00  0.00    +0.000 OA
ATOM      2  C   UNL     1       3.273   4.892  20.024  0.00  0.00    +0.000 C 
ATOM      3  N   UNL     1       2.361   5.818  20.453  0.00  0.00    +0.000 N 
ATOM      4  C   UNL     1       2.099   7.020  19.857  0.00  0.00    +0.000 A 
ATOM      5  N   UNL     1       2.401   7.435  18.650  0.00  0.00    +0.000 NA
ATOM      6  N   UNL     1       2.009   8.746  18.440  0.00  0.00    +0.000 NA
ATOM      7  C   UNL     1       1.451   9.255  19.519  0.00  0.00    +0.000 A 
ATOM      8  S   UNL     1       1.308   8.174  20.839  0.00  0.00    +0.000 S 
ATOM      9  H   UNL     1       1.876   5.580  21.307  0.00  0.00    +0.000 HD
ENDROOT
BRANCH   7  10
ATOM     10  S   UNL     1       0.862  10.923  19.687  0.00  0.00    +0.000 S 
ATOM     11  O   UNL     1       0.959  11.229  21.104  0.00  0.00    +0.000 OA
ATOM     12  O   UNL     1       1.619  11.686  18.707  0.00  0.00    +0.000 OA
BRANCH  10  13
ATOM     13  N   UNL     1      -0.813  10.992  19.243  0.00  0.00    +0.000 NA
ATOM     14  C   UNL     1      -1.445  12.331  19.374  0.00  0.00    +0.000 C 
ATOM     15  C   UNL     1      -2.918  12.253  19.783  0.00  0.00    +0.000 C 
ATOM     16  C   UNL     1      -3.876  11.970  18.632  0.00  0.00    +0.000 C 
ATOM     17  C   UNL     1      -3.627  10.640  17.936  0.00  0.00    +0.000 C 
ATOM     18  C   UNL     1      -2.300  10.621  17.189  0.00  0.00    +0.000 C 
ATOM     19  C   UNL     1      -1.122  10.170  18.039  0.00  0.00    +0.000 C 
ENDBRANCH  10  13
ENDBRANCH   7  10
BRANCH   2  20
ATOM     20  C   UNL     1       4.283   5.245  18.929  0.00  0.00    +0.000 C 
BRANCH  20  21
ATOM     21  O   UNL     1       5.051   4.155  18.446  0.00  0.00    +0.000 OA
BRANCH  21  22
ATOM     22  C   UNL     1       5.670   4.385  17.239  0.00  0.00    +0.000 A 
ATOM     23  C   UNL     1       6.996   4.807  17.083  0.00  0.00    +0.000 A 
ATOM     24  C   UNL     1       7.540   5.001  15.813  0.00  0.00    +0.000 A 
ATOM     25  C   UNL     1       6.758   4.770  14.685  0.00  0.00    +0.000 A 
ATOM     26 CL   UNL     1       7.439   4.990  13.124  0.00  0.00    +0.000 Cl
ATOM     27  C   UNL     1       5.437   4.350  14.822  0.00  0.00    +0.000 A 
ATOM     28  C   UNL     1       4.893   4.160  16.100  0.00  0.00    +0.000 A 
ENDBRANCH  21  22
ENDBRANCH  20  21
ENDBRANCH   2  20
TORSDOF 5
ENDMDL
MODEL 4
REMARK VINA RESULT:      -7.4      3.212      4.047
REMARK  Name = 
REMARK  5 active torsions:
REMARK  status: ('A' for Active; 'I' for Inactive)
REMARK    1  A    between atoms: C_2  and  C_3
REMARK    2  A    between atoms: C_3  and  O_4
REMARK    3  A    between atoms: O_4  and  C_5
REMARK    4  A    between atoms: C_16  and  S_17
REMARK    5  A    between atoms: S_17  and  N_20
REMARK                            x       y       z     vdW  Elec       q    Type
REMARK                         _______ _______ _______ _____ _____    ______ ____
ROOT
ATOM      1  O   UNL     1       0.442  12.892  18.363  0.00  0.00    +0.000 OA
ATOM      2  C   UNL     1       0.767  11.900  19.017  0.00  0.00    +0.000 C 
ATOM      3  N   UNL     1       1.000  10.733  18.342  0.00  0.00    +0.000 N 
ATOM      4  C   UNL     1       1.286   9.523  18.909  0.00  0.00    +0.000 A 
ATOM      5  N   UNL     1       1.124   9.124  20.149  0.00  0.00    +0.000 NA
ATOM      6  N   UNL     1       1.591   7.836  20.343  0.00  0.00    +0.000 NA
ATOM      7  C   UNL     1       2.106   7.343  19.235  0.00  0.00    +0.000 A 
ATOM      8  S   UNL     1       2.009   8.373  17.871  0.00  0.00    +0.000 S 
ATOM      9  H   UNL     1       0.984  10.808  17.334  0.00  0.00    +0.000 HD
ENDROOT
BRANCH   7  10
ATOM     10  S   UNL     1       2.863   5.744  19.072  0.00  0.00    +0.000 S 
ATOM     11  O   UNL     1       2.871   5.179  20.410  0.00  0.00    +0.000 OA
ATOM     12  O   UNL     1       2.133   5.094  17.995  0.00  0.00    +0.000 OA
BRANCH  10  13
ATOM     13  N   UNL     1       4.511   5.934  18.566  0.00  0.00    +0.000 NA
ATOM     14  C   UNL     1       5.462   4.943  19.134  0.00  0.00    +0.000 C 
ATOM     15  C   UNL     1       6.853   5.532  19.380  0.00  0.00    +0.000 C 
ATOM     16  C   UNL     1       7.738   5.594  18.140  0.00  0.00    +0.000 C 
ATOM     17  C   UNL     1       7.174   6.460  17.023  0.00  0.00    +0.000 C 
ATOM     18  C   UNL     1       5.908   5.868  16.418  0.00  0.00    +0.000 C 
ATOM     19  C   UNL     1       4.630   6.296  17.125  0.00  0.00    +0.000 C 
ENDBRANCH  10  13
ENDBRANCH   7  10
BRANCH   2  20
ATOM     20  C   UNL     1       1.053  12.001  20.518  0.00  0.00    +0.000 C 
BRANCH  20  21
ATOM     21  O   UNL     1       0.631  13.209  21.130  0.00  0.00    +0.000 OA
BRANCH  21  22
ATOM     22  C   UNL     1      -0.493  13.086  21.915  0.00  0.00    +0.000 A 
ATOM     23  C   UNL     1      -1.364  14.133  22.240  0.00  0.00    +0.000 A 
ATOM     24  C   UNL     1      -2.489  13.906  23.034  0.00  0.00    +0.000 A 
ATOM     25  C   UNL     1      -2.753  12.624  23.506  0.00  0.00    +0.000 A 
ATOM     26 CL   UNL     1      -4.150  12.347  24.466  0.00  0.00    +0.000 Cl
ATOM     27  C   UNL     1      -1.896  11.571  23.192  0.00  0.00    +0.000 A 
ATOM     28  C   UNL     1      -0.765  11.804  22.398  0.00  0.00    +0.000 A 
ENDBRANCH  21  22
ENDBRANCH  20  21
ENDBRANCH   2  20
TORSDOF 5
ENDMDL
MODEL 5
REMARK VINA RESULT:      -7.4      2.906      3.591
REMARK  Name = 
REMARK  5 active torsions:
REMARK  status: ('A' for Active; 'I' for Inactive)
REMARK    1  A    between atoms: C_2  and  C_3
REMARK    2  A    between atoms: C_3  and  O_4
REMARK    3  A    between atoms: O_4  and  C_5
REMARK    4  A    between atoms: C_16  and  S_17
REMARK    5  A    between atoms: S_17  and  N_20
REMARK                            x       y       z     vdW  Elec       q    Type
REMARK                         _______ _______ _______ _____ _____    ______ ____
ROOT
ATOM      1  O   UNL     1      -0.025  10.415  21.767  0.00  0.00    +0.000 OA
ATOM      2  C   UNL     1       0.467   9.770  20.839  0.00  0.00    +0.000 C 
ATOM      3  N   UNL     1       1.000   8.541  21.122  0.00  0.00    +0.000 N 
ATOM      4  C   UNL     1       1.656   7.731  20.238  0.00  0.00    +0.000 A 
ATOM      5  N   UNL     1       2.176   8.021  19.069  0.00  0.00    +0.000 NA
ATOM      6  N   UNL     1       2.710   6.904  18.449  0.00  0.00    +0.000 NA
ATOM      7  C   UNL     1       2.540   5.824  19.183  0.00  0.00    +0.000 A 
ATOM      8  S   UNL     1       1.777   6.088  20.693  0.00  0.00    +0.000 S 
ATOM      9  H   UNL     1       0.853   8.216  22.067  0.00  0.00    +0.000 HD
ENDROOT
BRANCH   7  10
ATOM     10  S   UNL     1       3.029   4.178  18.726  0.00  0.00    +0.000 S 
ATOM     11  O   UNL     1       3.108   3.436  19.973  0.00  0.00    +0.000 OA
ATOM     12  O   UNL     1       2.092   3.786  17.685  0.00  0.00    +0.000 OA
BRANCH  10  13
ATOM     13  N   UNL     1       4.617   4.219  18.031  0.00  0.00    +0.000 NA
ATOM     14  C   UNL     1       4.663   4.552  16.583  0.00  0.00    +0.000 C 
ATOM     15  C   UNL     1       5.794   3.832  15.846  0.00  0.00    +0.000 C 
ATOM     16  C   UNL     1       7.160   4.495  15.989  0.00  0.00    +0.000 C 
ATOM     17  C   UNL     1       7.660   4.572  17.424  0.00  0.00    +0.000 C 
ATOM     18  C   UNL     1       6.817   5.511  18.278  0.00  0.00    +0.000 C 
ATOM     19  C   UNL     1       5.625   4.836  18.939  0.00  0.00    +0.000 C 
ENDBRANCH  10  13
ENDBRANCH   7  10
BRANCH   2  20
ATOM     20  C   UNL     1       0.351  10.253  19.391  0.00  0.00    +0.000 C 
BRANCH  20  21
ATOM     21  O   UNL     1      -0.357  11.470  19.219  0.00  0.00    +0.000 OA
BRANCH  21  22
ATOM     22  C   UNL     1       0.444  12.567  18.998  0.00  0.00    +0.000 A 
ATOM     23  C   UNL     1       0.060  13.898  19.207  0.00  0.00    +0.000 A 
ATOM     24  C   UNL     1       0.951  14.945  18.967  0.00  0.00    +0.000 A 
ATOM     25  C   UNL     1       2.237  14.666  18.516  0.00  0.00    +0.000 A 
ATOM     26 CL   UNL     1       3.335  15.958  18.241  0.00  0.00    +0.000 Cl
ATOM     27  C   UNL     1       2.635  13.348  18.302  0.00  0.00    +0.000 A 
ATOM     28  C   UNL     1       1.737  12.299  18.541  0.00  0.00    +0.000 A 
ENDBRANCH  21  22
ENDBRANCH  20  21
ENDBRANCH   2  20
TORSDOF 5
ENDMDL
MODEL 6
REMARK VINA RESULT:      -7.3      3.334      4.037
REMARK  Name = 
REMARK  5 active torsions:
REMARK  status: ('A' for Active; 'I' for Inactive)
REMARK    1  A    between atoms: C_2  and  C_3
REMARK    2  A    between atoms: C_3  and  O_4
REMARK    3  A    between atoms: O_4  and  C_5
REMARK    4  A    between atoms: C_16  and  S_17
REMARK    5  A    between atoms: S_17  and  N_20
REMARK                            x       y       z     vdW  Elec       q    Type
REMARK                         _______ _______ _______ _____ _____    ______ ____
ROOT
ATOM      1  O   UNL     1       1.421  12.826  18.197  0.00  0.00    +0.000 OA
ATOM      2  C   UNL     1       1.481  11.790  18.860  0.00  0.00    +0.000 C 
ATOM      3  N   UNL     1       1.730  10.617  18.198  0.00  0.00    +0.000 N 
ATOM      4  C   UNL     1       1.748   9.371  18.758  0.00  0.00    +0.000 A 
ATOM      5  N   UNL     1       1.271   8.968  19.912  0.00  0.00    +0.000 NA
ATOM      6  N   UNL     1       1.539   7.631  20.145  0.00  0.00    +0.000 NA
ATOM      7  C   UNL     1       2.231   7.104  19.155  0.00  0.00    +0.000 A 
ATOM      8  S   UNL     1       2.555   8.167  17.853  0.00  0.00    +0.000 S 
ATOM      9  H   UNL     1       1.948  10.715  17.217  0.00  0.00    +0.000 HD
ENDROOT
BRANCH   7  10
ATOM     10  S   UNL     1       2.826   5.431  19.088  0.00  0.00    +0.000 S 
ATOM     11  O   UNL     1       2.956   5.009  20.472  0.00  0.00    +0.000 OA
ATOM     12  O   UNL     1       1.916   4.748  18.183  0.00  0.00    +0.000 OA
BRANCH  10  13
ATOM     13  N   UNL     1       4.408   5.409  18.377  0.00  0.00    +0.000 NA
ATOM     14  C   UNL     1       5.492   4.915  19.267  0.00  0.00    +0.000 C 
ATOM     15  C   UNL     1       6.830   5.614  19.014  0.00  0.00    +0.000 C 
ATOM     16  C   UNL     1       7.616   5.058  17.833  0.00  0.00    +0.000 C 
ATOM     17  C   UNL     1       6.893   5.178  16.500  0.00  0.00    +0.000 C 
ATOM     18  C   UNL     1       5.654   4.293  16.435  0.00  0.00    +0.000 C 
ATOM     19  C   UNL     1       4.392   4.964  16.955  0.00  0.00    +0.000 C 
ENDBRANCH  10  13
ENDBRANCH   7  10
BRANCH   2  20
ATOM     20  C   UNL     1       1.434  11.825  20.389  0.00  0.00    +0.000 C 
BRANCH  20  21
ATOM     21  O   UNL     1       0.865  12.999  20.946  0.00  0.00    +0.000 OA
BRANCH  21  22
ATOM     22  C   UNL     1      -0.245  12.777  21.729  0.00  0.00    +0.000 A 
ATOM     23  C   UNL     1      -0.609  11.541  22.276  0.00  0.00    +0.000 A 
ATOM     24  C   UNL     1      -1.748  11.419  23.072  0.00  0.00    +0.000 A 
ATOM     25  C   UNL     1      -2.532  12.539  23.331  0.00  0.00    +0.000 A 
ATOM     26 CL   UNL     1      -3.923  12.386  24.327  0.00  0.00    +0.000 Cl
ATOM     27  C   UNL     1      -2.184  13.777  22.794  0.00  0.00    +0.000 A 
ATOM     28  C   UNL     1      -1.041  13.895  21.992  0.00  0.00    +0.000 A 
ENDBRANCH  21  22
ENDBRANCH  20  21
ENDBRANCH   2  20
TORSDOF 5
ENDMDL
MODEL 7
REMARK VINA RESULT:      -7.3      3.588      9.162
REMARK  Name = 
REMARK  5 active torsions:
REMARK  status: ('A' for Active; 'I' for Inactive)
REMARK    1  A    between atoms: C_2  and  C_3
REMARK    2  A    between atoms: C_3  and  O_4
REMARK    3  A    between atoms: O_4  and  C_5
REMARK    4  A    between atoms: C_16  and  S_17
REMARK    5  A    between atoms: S_17  and  N_20
REMARK                            x       y       z     vdW  Elec       q    Type
REMARK                         _______ _______ _______ _____ _____    ______ ____
ROOT
ATOM      1  O   UNL     1       2.291   4.479  21.210  0.00  0.00    +0.000 OA
ATOM      2  C   UNL     1       2.357   5.545  20.598  0.00  0.00    +0.000 C 
ATOM      3  N   UNL     1       1.556   6.575  21.012  0.00  0.00    +0.000 N 
ATOM      4  C   UNL     1       1.438   7.793  20.403  0.00  0.00    +0.000 A 
ATOM      5  N   UNL     1       1.793   8.158  19.194  0.00  0.00    +0.000 NA
ATOM      6  N   UNL     1       1.557   9.503  18.969  0.00  0.00    +0.000 NA
ATOM      7  C   UNL     1       1.056  10.085  20.040  0.00  0.00    +0.000 A 
ATOM      8  S   UNL     1       0.782   9.041  21.369  0.00  0.00    +0.000 S 
ATOM      9  H   UNL     1       1.042   6.404  21.865  0.00  0.00    +0.000 HD
ENDROOT
BRANCH   7  10
ATOM     10  S   UNL     1       0.664  11.811  20.188  0.00  0.00    +0.000 S 
ATOM     11  O   UNL     1       1.677  12.366  21.070  0.00  0.00    +0.000 OA
ATOM     12  O   UNL     1       0.530  12.282  18.819  0.00  0.00    +0.000 OA
BRANCH  10  13
ATOM     13  N   UNL     1      -0.875  11.989  20.970  0.00  0.00    +0.000 NA
ATOM     14  C   UNL     1      -0.811  12.264  22.429  0.00  0.00    +0.000 C 
ATOM     15  C   UNL     1      -1.975  11.637  23.200  0.00  0.00    +0.000 C 
ATOM     16  C   UNL     1      -3.267  12.443  23.156  0.00  0.00    +0.000 C 
ATOM     17  C   UNL     1      -3.828  12.632  21.754  0.00  0.00    +0.000 C 
ATOM     18  C   UNL     1      -2.934  13.513  20.890  0.00  0.00    +0.000 C 
ATOM     19  C   UNL     1      -1.855  12.746  20.141  0.00  0.00    +0.000 C 
ENDBRANCH  10  13
ENDBRANCH   7  10
BRANCH   2  20
ATOM     20  C   UNL     1       3.407   5.768  19.506  0.00  0.00    +0.000 C 
BRANCH  20  21
ATOM     21  O   UNL     1       4.302   4.686  19.304  0.00  0.00    +0.000 OA
BRANCH  21  22
ATOM     22  C   UNL     1       4.944   4.699  18.087  0.00  0.00    +0.000 A 
ATOM     23  C   UNL     1       4.383   4.276  16.876  0.00  0.00    +0.000 A 
ATOM     24  C   UNL     1       5.112   4.341  15.689  0.00  0.00    +0.000 A 
ATOM     25  C   UNL     1       6.413   4.835  15.704  0.00  0.00    +0.000 A 
ATOM     26 CL   UNL     1       7.298   4.932  14.236  0.00  0.00    +0.000 Cl
ATOM     27  C   UNL     1       6.987   5.260  16.900  0.00  0.00    +0.000 A 
ATOM     28  C   UNL     1       6.253   5.189  18.092  0.00  0.00    +0.000 A 
ENDBRANCH  21  22
ENDBRANCH  20  21
ENDBRANCH   2  20
TORSDOF 5
ENDMDL
MODEL 8
REMARK VINA RESULT:      -7.3      3.701      9.101
REMARK  Name = 
REMARK  5 active torsions:
REMARK  status: ('A' for Active; 'I' for Inactive)
REMARK    1  A    between atoms: C_2  and  C_3
REMARK    2  A    between atoms: C_3  and  O_4
REMARK    3  A    between atoms: O_4  and  C_5
REMARK    4  A    between atoms: C_16  and  S_17
REMARK    5  A    between atoms: S_17  and  N_20
REMARK                            x       y       z     vdW  Elec       q    Type
REMARK                         _______ _______ _______ _____ _____    ______ ____
ROOT
ATOM      1  O   UNL     1       2.075   5.123  21.137  0.00  0.00    +0.000 OA
ATOM      2  C   UNL     1       2.062   6.189  20.521  0.00  0.00    +0.000 C 
ATOM      3  N   UNL     1       1.411   7.252  21.088  0.00  0.00    +0.000 N 
ATOM      4  C   UNL     1       1.226   8.477  20.513  0.00  0.00    +0.000 A 
ATOM      5  N   UNL     1       1.340   8.833  19.255  0.00  0.00    +0.000 NA
ATOM      6  N   UNL     1       1.124  10.189  19.080  0.00  0.00    +0.000 NA
ATOM      7  C   UNL     1       0.882  10.787  20.229  0.00  0.00    +0.000 A 
ATOM      8  S   UNL     1       0.840   9.748  21.590  0.00  0.00    +0.000 S 
ATOM      9  H   UNL     1       1.077   7.098  22.029  0.00  0.00    +0.000 HD
ENDROOT
BRANCH   7  10
ATOM     10  S   UNL     1       0.607  12.528  20.450  0.00  0.00    +0.000 S 
ATOM     11  O   UNL     1       1.583  12.953  21.438  0.00  0.00    +0.000 OA
ATOM     12  O   UNL     1       0.620  13.081  19.105  0.00  0.00    +0.000 OA
BRANCH  10  13
ATOM     13  N   UNL     1      -0.972  12.784  21.120  0.00  0.00    +0.000 NA
ATOM     14  C   UNL     1      -2.091  12.191  20.340  0.00  0.00    +0.000 C 
ATOM     15  C   UNL     1      -3.369  13.029  20.410  0.00  0.00    +0.000 C 
ATOM     16  C   UNL     1      -4.198  12.809  21.670  0.00  0.00    +0.000 C 
ATOM     17  C   UNL     1      -3.468  13.162  22.957  0.00  0.00    +0.000 C 
ATOM     18  C   UNL     1      -2.303  12.220  23.236  0.00  0.00    +0.000 C 
ATOM     19  C   UNL     1      -0.992  12.662  22.605  0.00  0.00    +0.000 C 
ENDBRANCH  10  13
ENDBRANCH   7  10
BRANCH   2  20
ATOM     20  C   UNL     1       2.874   6.371  19.236  0.00  0.00    +0.000 C 
BRANCH  20  21
ATOM     21  O   UNL     1       2.850   5.265  18.348  0.00  0.00    +0.000 OA
BRANCH  21  22
ATOM     22  C   UNL     1       3.847   5.274  17.401  0.00  0.00    +0.000 A 
ATOM     23  C   UNL     1       4.471   6.423  16.900  0.00  0.00    +0.000 A 
ATOM     24  C   UNL     1       5.485   6.329  15.947  0.00  0.00    +0.000 A 
ATOM     25  C   UNL     1       5.888   5.078  15.489  0.00  0.00    +0.000 A 
ATOM     26 CL   UNL     1       7.151   4.967  14.331  0.00  0.00    +0.000 Cl
ATOM     27  C   UNL     1       5.278   3.924  15.977  0.00  0.00    +0.000 A 
ATOM     28  C   UNL     1       4.256   4.023  16.931  0.00  0.00    +0.000 A 
ENDBRANCH  21  22
ENDBRANCH  20  21
ENDBRANCH   2  20
TORSDOF 5
ENDMDL
MODEL 9
REMARK VINA RESULT:      -7.3      3.213      3.887
REMARK  Name = 
REMARK  5 active torsions:
REMARK  status: ('A' for Active; 'I' for Inactive)
REMARK    1  A    between atoms: C_2  and  C_3
REMARK    2  A    between atoms: C_3  and  O_4
REMARK    3  A    between atoms: O_4  and  C_5
REMARK    4  A    between atoms: C_16  and  S_17
REMARK    5  A    between atoms: S_17  and  N_20
REMARK                            x       y       z     vdW  Elec       q    Type
REMARK                         _______ _______ _______ _____ _____    ______ ____
ROOT
ATOM      1  O   UNL     1      -0.130   9.480  22.380  0.00  0.00    +0.000 OA
ATOM      2  C   UNL     1       0.429   9.020  21.384  0.00  0.00    +0.000 C 
ATOM      3  N   UNL     1       0.895   7.734  21.445  0.00  0.00    +0.000 N 
ATOM      4  C   UNL     1       1.608   7.095  20.470  0.00  0.00    +0.000 A 
ATOM      5  N   UNL     1       2.247   7.596  19.439  0.00  0.00    +0.000 NA
ATOM      6  N   UNL     1       2.804   6.609  18.646  0.00  0.00    +0.000 NA
ATOM      7  C   UNL     1       2.532   5.408  19.115  0.00  0.00    +0.000 A 
ATOM      8  S   UNL     1       1.635   5.389  20.574  0.00  0.00    +0.000 S 
ATOM      9  H   UNL     1       0.648   7.226  22.282  0.00  0.00    +0.000 HD
ENDROOT
BRANCH   7  10
ATOM     10  S   UNL     1       3.013   3.872  18.363  0.00  0.00    +0.000 S 
ATOM     11  O   UNL     1       3.020   2.898  19.441  0.00  0.00    +0.000 OA
ATOM     12  O   UNL     1       2.119   3.718  17.227  0.00  0.00    +0.000 OA
BRANCH  10  13
ATOM     13  N   UNL     1       4.633   4.007  17.759  0.00  0.00    +0.000 NA
ATOM     14  C   UNL     1       4.742   4.446  16.343  0.00  0.00    +0.000 C 
ATOM     15  C   UNL     1       5.931   3.813  15.617  0.00  0.00    +0.000 C 
ATOM     16  C   UNL     1       7.267   4.500  15.880  0.00  0.00    +0.000 C 
ATOM     17  C   UNL     1       7.690   4.485  17.341  0.00  0.00    +0.000 C 
ATOM     18  C   UNL     1       6.776   5.336  18.215  0.00  0.00    +0.000 C 
ATOM     19  C   UNL     1       5.573   4.583  18.761  0.00  0.00    +0.000 C 
ENDBRANCH  10  13
ENDBRANCH   7  10
BRANCH   2  20
ATOM     20  C   UNL     1       0.468   9.800  20.068  0.00  0.00    +0.000 C 
BRANCH  20  21
ATOM     21  O   UNL     1       0.081  11.161  20.164  0.00  0.00    +0.000 OA
BRANCH  21  22
ATOM     22  C   UNL     1       0.999  12.051  19.653  0.00  0.00    +0.000 A 
ATOM     23  C   UNL     1       1.753  11.849  18.491  0.00  0.00    +0.000 A 
ATOM     24  C   UNL     1       2.651  12.819  18.044  0.00  0.00    +0.000 A 
ATOM     25  C   UNL     1       2.797  14.005  18.758  0.00  0.00    +0.000 A 
ATOM     26 CL   UNL     1       3.889  15.204  18.191  0.00  0.00    +0.000 Cl
ATOM     27  C   UNL     1       2.054  14.222  19.916  0.00  0.00    +0.000 A 
ATOM     28  C   UNL     1       1.156  13.243  20.365  0.00  0.00    +0.000 A 
ENDBRANCH  21  22
ENDBRANCH  20  21
ENDBRANCH   2  20
TORSDOF 5
ENDMDL
