MODEL 1
REMARK VINA RESULT:      -5.9      0.000      0.000
REMARK  Name = 
REMARK  16 active torsions:
REMARK  status: ('A' for Active; 'I' for Inactive)
REMARK    1  A    between atoms: C_1  and  C_2
REMARK    2  A    between atoms: C_2  and  O_3
REMARK    3  A    between atoms: O_3  and  C_4
REMARK    4  A    between atoms: C_4  and  C_6
REMARK    5  A    between atoms: C_7  and  O_8
REMARK    6  A    between atoms: C_12  and  C_13
REMARK    7  A    between atoms: C_13  and  C_14
REMARK    8  A    between atoms: C_14  and  C_15
REMARK    9  A    between atoms: C_15  and  C_16
REMARK   10  A    between atoms: C_16  and  C_17
REMARK   11  A    between atoms: C_17  and  C_18
REMARK   12  A    between atoms: C_18  and  C_19
REMARK   13  A    between atoms: C_19  and  C_20
REMARK   14  A    between atoms: C_20  and  C_21
REMARK   15  A    between atoms: C_21  and  C_22
REMARK   16  A    between atoms: C_22  and  O_23
REMARK                            x       y       z     vdW  Elec       q    Type
REMARK                         _______ _______ _______ _____ _____    ______ ____
ROOT
ATOM      1  C   UNL     1       6.241   5.202  16.625  0.00  0.00    +0.000 A 
ATOM      2  C   UNL     1       7.230   6.064  17.141  0.00  0.00    +0.000 A 
ATOM      3  C   UNL     1       7.439   6.187  18.514  0.00  0.00    +0.000 A 
ATOM      4  C   UNL     1       6.672   5.443  19.404  0.00  0.00    +0.000 A 
ATOM      5  C   UNL     1       5.720   4.553  18.913  0.00  0.00    +0.000 A 
ATOM      6  C   UNL     1       5.497   4.409  17.526  0.00  0.00    +0.000 A 
ENDROOT
BRANCH   1   7
ATOM      7  C   UNL     1       6.019   5.237  15.152  0.00  0.00    +0.000 C 
ATOM      8  O   UNL     1       5.326   6.091  14.617  0.00  0.00    +0.000 OA
BRANCH   7   9
ATOM      9  O   UNL     1       6.500   4.121  14.568  0.00  0.00    +0.000 OA
BRANCH   9  11
ATOM     10  C   UNL     1       6.899   4.008  12.177  0.00  0.00    +0.000 C 
ATOM     11  C   UNL     1       5.932   3.730  13.310  0.00  0.00    +0.000 C 
ENDBRANCH   9  11
ENDBRANCH   7   9
ENDBRANCH   1   7
BRANCH   2  12
ATOM     12  O   UNL     1       8.041   6.842  16.354  0.00  0.00    +0.000 OA
ATOM     13  H   UNL     1       8.970   6.544  16.467  0.00  0.00    +0.000 HD
ENDBRANCH   2  12
BRANCH   6  14
ATOM     14  C   UNL     1       4.476   3.377  17.107  0.00  0.00    +0.000 C 
BRANCH  14  15
ATOM     15  C   UNL     1       3.827   2.668  18.302  0.00  0.00    +0.000 C 
BRANCH  15  16
ATOM     16  C   UNL     1       2.409   2.187  17.997  0.00  0.00    +0.000 C 
BRANCH  16  17
ATOM     17  C   UNL     1       1.626   1.916  19.279  0.00  0.00    +0.000 C 
BRANCH  17  18
ATOM     18  C   UNL     1       0.755   3.096  19.680  0.00  0.00    +0.000 C 
BRANCH  18  19
ATOM     19  C   UNL     1       1.442   3.885  20.793  0.00  0.00    +0.000 C 
BRANCH  19  20
ATOM     20  C   UNL     1       1.372   5.379  20.520  0.00  0.00    +0.000 C 
BRANCH  20  21
ATOM     21  C   UNL     1       2.674   5.886  19.907  0.00  0.00    +0.000 C 
BRANCH  21  22
ATOM     22  C   UNL     1       2.476   6.210  18.431  0.00  0.00    +0.000 C 
BRANCH  22  23
ATOM     23  C   UNL     1       3.085   7.555  18.063  0.00  0.00    +0.000 C 
BRANCH  23  24
ATOM     24  O   UNL     1       3.740   7.450  16.808  0.00  0.00    +0.000 OA
ATOM     25  H   UNL     1       4.289   8.246  16.697  0.00  0.00    +0.000 HD
ENDBRANCH  23  24
ENDBRANCH  22  23
ENDBRANCH  21  22
ENDBRANCH  20  21
ENDBRANCH  19  20
ENDBRANCH  18  19
ENDBRANCH  17  18
ENDBRANCH  16  17
ENDBRANCH  15  16
ENDBRANCH  14  15
ENDBRANCH   6  14
TORSDOF 15
ENDMDL
MODEL 2
REMARK VINA RESULT:      -5.7      3.901      5.866
REMARK  Name = 
REMARK  16 active torsions:
REMARK  status: ('A' for Active; 'I' for Inactive)
REMARK    1  A    between atoms: C_1  and  C_2
REMARK    2  A    between atoms: C_2  and  O_3
REMARK    3  A    between atoms: O_3  and  C_4
REMARK    4  A    between atoms: C_4  and  C_6
REMARK    5  A    between atoms: C_7  and  O_8
REMARK    6  A    between atoms: C_12  and  C_13
REMARK    7  A    between atoms: C_13  and  C_14
REMARK    8  A    between atoms: C_14  and  C_15
REMARK    9  A    between atoms: C_15  and  C_16
REMARK   10  A    between atoms: C_16  and  C_17
REMARK   11  A    between atoms: C_17  and  C_18
REMARK   12  A    between atoms: C_18  and  C_19
REMARK   13  A    between atoms: C_19  and  C_20
REMARK   14  A    between atoms: C_20  and  C_21
REMARK   15  A    between atoms: C_21  and  C_22
REMARK   16  A    between atoms: C_22  and  O_23
REMARK                            x       y       z     vdW  Elec       q    Type
REMARK                         _______ _______ _______ _____ _____    ______ ____
ROOT
ATOM      1  C   UNL     1       3.916   3.987  19.002  0.00  0.00    +0.000 A 
ATOM      2  C   UNL     1       3.958   2.892  19.889  0.00  0.00    +0.000 A 
ATOM      3  C   UNL     1       2.978   2.712  20.863  0.00  0.00    +0.000 A 
ATOM      4  C   UNL     1       1.926   3.615  20.968  0.00  0.00    +0.000 A 
ATOM      5  C   UNL     1       1.842   4.678  20.073  0.00  0.00    +0.000 A 
ATOM      6  C   UNL     1       2.821   4.876  19.074  0.00  0.00    +0.000 A 
ENDROOT
BRANCH   1   7
ATOM      7  C   UNL     1       5.076   4.151  18.080  0.00  0.00    +0.000 C 
ATOM      8  O   UNL     1       4.981   3.970  16.874  0.00  0.00    +0.000 OA
BRANCH   7   9
ATOM      9  O   UNL     1       6.221   4.311  18.774  0.00  0.00    +0.000 OA
BRANCH   9  11
ATOM     10  C   UNL     1       7.664   6.233  18.442  0.00  0.00    +0.000 C 
ATOM     11  C   UNL     1       7.368   4.796  18.064  0.00  0.00    +0.000 C 
ENDBRANCH   9  11
ENDBRANCH   7   9
ENDBRANCH   1   7
BRANCH   2  12
ATOM     12  O   UNL     1       4.950   1.943  19.874  0.00  0.00    +0.000 OA
ATOM     13  H   UNL     1       4.821   1.366  19.089  0.00  0.00    +0.000 HD
ENDBRANCH   2  12
BRANCH   6  14
ATOM     14  C   UNL     1       2.600   6.031  18.126  0.00  0.00    +0.000 C 
BRANCH  14  15
ATOM     15  C   UNL     1       2.377   7.360  18.858  0.00  0.00    +0.000 C 
BRANCH  15  16
ATOM     16  C   UNL     1       2.507   8.568  17.930  0.00  0.00    +0.000 C 
BRANCH  16  17
ATOM     17  C   UNL     1       1.177   9.303  17.784  0.00  0.00    +0.000 C 
BRANCH  17  18
ATOM     18  C   UNL     1       1.143  10.595  18.585  0.00  0.00    +0.000 C 
BRANCH  18  19
ATOM     19  C   UNL     1      -0.251  10.795  19.176  0.00  0.00    +0.000 C 
BRANCH  19  20
ATOM     20  C   UNL     1      -1.310  10.151  18.296  0.00  0.00    +0.000 C 
BRANCH  20  21
ATOM     21  C   UNL     1      -2.247  11.201  17.708  0.00  0.00    +0.000 C 
BRANCH  21  22
ATOM     22  C   UNL     1      -3.306  10.538  16.835  0.00  0.00    +0.000 C 
BRANCH  22  23
ATOM     23  C   UNL     1      -3.188  10.971  15.380  0.00  0.00    +0.000 C 
BRANCH  23  24
ATOM     24  O   UNL     1      -2.847   9.849  14.580  0.00  0.00    +0.000 OA
ATOM     25  H   UNL     1      -3.668   9.510  14.185  0.00  0.00    +0.000 HD
ENDBRANCH  23  24
ENDBRANCH  22  23
ENDBRANCH  21  22
ENDBRANCH  20  21
ENDBRANCH  19  20
ENDBRANCH  18  19
ENDBRANCH  17  18
ENDBRANCH  16  17
ENDBRANCH  15  16
ENDBRANCH  14  15
ENDBRANCH   6  14
TORSDOF 15
ENDMDL
MODEL 3
REMARK VINA RESULT:      -5.7      2.668      6.564
REMARK  Name = 
REMARK  16 active torsions:
REMARK  status: ('A' for Active; 'I' for Inactive)
REMARK    1  A    between atoms: C_1  and  C_2
REMARK    2  A    between atoms: C_2  and  O_3
REMARK    3  A    between atoms: O_3  and  C_4
REMARK    4  A    between atoms: C_4  and  C_6
REMARK    5  A    between atoms: C_7  and  O_8
REMARK    6  A    between atoms: C_12  and  C_13
REMARK    7  A    between atoms: C_13  and  C_14
REMARK    8  A    between atoms: C_14  and  C_15
REMARK    9  A    between atoms: C_15  and  C_16
REMARK   10  A    between atoms: C_16  and  C_17
REMARK   11  A    between atoms: C_17  and  C_18
REMARK   12  A    between atoms: C_18  and  C_19
REMARK   13  A    between atoms: C_19  and  C_20
REMARK   14  A    between atoms: C_20  and  C_21
REMARK   15  A    between atoms: C_21  and  C_22
REMARK   16  A    between atoms: C_22  and  O_23
REMARK                            x       y       z     vdW  Elec       q    Type
REMARK                         _______ _______ _______ _____ _____    ______ ____
ROOT
ATOM      1  C   UNL     1       3.319   4.707  19.562  0.00  0.00    +0.000 A 
ATOM      2  C   UNL     1       2.434   4.978  20.626  0.00  0.00    +0.000 A 
ATOM      3  C   UNL     1       1.818   6.222  20.756  0.00  0.00    +0.000 A 
ATOM      4  C   UNL     1       2.062   7.220  19.819  0.00  0.00    +0.000 A 
ATOM      5  C   UNL     1       2.898   6.958  18.737  0.00  0.00    +0.000 A 
ATOM      6  C   UNL     1       3.528   5.704  18.584  0.00  0.00    +0.000 A 
ENDROOT
BRANCH   1   7
ATOM      7  C   UNL     1       4.016   3.390  19.586  0.00  0.00    +0.000 C 
ATOM      8  O   UNL     1       5.234   3.295  19.526  0.00  0.00    +0.000 OA
BRANCH   7   9
ATOM      9  O   UNL     1       3.132   2.377  19.474  0.00  0.00    +0.000 OA
BRANCH   9  11
ATOM     10  C   UNL     1       0.841   2.328  18.675  0.00  0.00    +0.000 C 
ATOM     11  C   UNL     1       2.309   2.339  18.300  0.00  0.00    +0.000 C 
ENDBRANCH   9  11
ENDBRANCH   7   9
ENDBRANCH   1   7
BRANCH   2  12
ATOM     12  O   UNL     1       2.124   4.066  21.604  0.00  0.00    +0.000 OA
ATOM     13  H   UNL     1       2.957   3.674  21.945  0.00  0.00    +0.000 HD
ENDBRANCH   2  12
BRANCH   6  14
ATOM     14  C   UNL     1       4.372   5.514  17.345  0.00  0.00    +0.000 C 
BRANCH  14  15
ATOM     15  C   UNL     1       5.417   6.623  17.168  0.00  0.00    +0.000 C 
BRANCH  15  16
ATOM     16  C   UNL     1       6.825   6.165  17.546  0.00  0.00    +0.000 C 
BRANCH  16  17
ATOM     17  C   UNL     1       7.156   4.811  16.923  0.00  0.00    +0.000 C 
BRANCH  17  18
ATOM     18  C   UNL     1       7.197   4.873  15.404  0.00  0.00    +0.000 C 
BRANCH  18  19
ATOM     19  C   UNL     1       6.365   3.731  14.823  0.00  0.00    +0.000 C 
BRANCH  19  20
ATOM     20  C   UNL     1       5.697   4.154  13.524  0.00  0.00    +0.000 C 
BRANCH  20  21
ATOM     21  C   UNL     1       6.315   3.433  12.330  0.00  0.00    +0.000 C 
BRANCH  21  22
ATOM     22  C   UNL     1       5.257   2.617  11.597  0.00  0.00    +0.000 C 
BRANCH  22  23
ATOM     23  C   UNL     1       3.978   3.414  11.385  0.00  0.00    +0.000 C 
BRANCH  23  24
ATOM     24  O   UNL     1       3.203   2.802  10.365  0.00  0.00    +0.000 OA
ATOM     25  H   UNL     1       2.275   3.053  10.511  0.00  0.00    +0.000 HD
ENDBRANCH  23  24
ENDBRANCH  22  23
ENDBRANCH  21  22
ENDBRANCH  20  21
ENDBRANCH  19  20
ENDBRANCH  18  19
ENDBRANCH  17  18
ENDBRANCH  16  17
ENDBRANCH  15  16
ENDBRANCH  14  15
ENDBRANCH   6  14
TORSDOF 15
ENDMDL
MODEL 4
REMARK VINA RESULT:      -5.6      2.581      6.628
REMARK  Name = 
REMARK  16 active torsions:
REMARK  status: ('A' for Active; 'I' for Inactive)
REMARK    1  A    between atoms: C_1  and  C_2
REMARK    2  A    between atoms: C_2  and  O_3
REMARK    3  A    between atoms: O_3  and  C_4
REMARK    4  A    between atoms: C_4  and  C_6
REMARK    5  A    between atoms: C_7  and  O_8
REMARK    6  A    between atoms: C_12  and  C_13
REMARK    7  A    between atoms: C_13  and  C_14
REMARK    8  A    between atoms: C_14  and  C_15
REMARK    9  A    between atoms: C_15  and  C_16
REMARK   10  A    between atoms: C_16  and  C_17
REMARK   11  A    between atoms: C_17  and  C_18
REMARK   12  A    between atoms: C_18  and  C_19
REMARK   13  A    between atoms: C_19  and  C_20
REMARK   14  A    between atoms: C_20  and  C_21
REMARK   15  A    between atoms: C_21  and  C_22
REMARK   16  A    between atoms: C_22  and  O_23
REMARK                            x       y       z     vdW  Elec       q    Type
REMARK                         _______ _______ _______ _____ _____    ______ ____
ROOT
ATOM      1  C   UNL     1       3.109   4.093  18.366  0.00  0.00    +0.000 A 
ATOM      2  C   UNL     1       1.953   4.710  17.845  0.00  0.00    +0.000 A 
ATOM      3  C   UNL     1       1.836   6.098  17.791  0.00  0.00    +0.000 A 
ATOM      4  C   UNL     1       2.874   6.903  18.245  0.00  0.00    +0.000 A 
ATOM      5  C   UNL     1       4.042   6.313  18.722  0.00  0.00    +0.000 A 
ATOM      6  C   UNL     1       4.184   4.910  18.780  0.00  0.00    +0.000 A 
ENDROOT
BRANCH   1   7
ATOM      7  C   UNL     1       3.081   2.608  18.489  0.00  0.00    +0.000 C 
ATOM      8  O   UNL     1       2.905   1.877  17.525  0.00  0.00    +0.000 OA
BRANCH   7   9
ATOM      9  O   UNL     1       3.067   2.235  19.785  0.00  0.00    +0.000 OA
BRANCH   9  11
ATOM     10  C   UNL     1       1.999   3.256  21.710  0.00  0.00    +0.000 C 
ATOM     11  C   UNL     1       1.830   2.358  20.500  0.00  0.00    +0.000 C 
ENDBRANCH   9  11
ENDBRANCH   7   9
ENDBRANCH   1   7
BRANCH   2  12
ATOM     12  O   UNL     1       0.871   4.012  17.371  0.00  0.00    +0.000 OA
ATOM     13  H   UNL     1       0.601   3.352  18.046  0.00  0.00    +0.000 HD
ENDBRANCH   2  12
BRANCH   6  14
ATOM     14  C   UNL     1       5.513   4.381  19.267  0.00  0.00    +0.000 C 
BRANCH  14  15
ATOM     15  C   UNL     1       6.582   5.476  19.369  0.00  0.00    +0.000 C 
BRANCH  15  16
ATOM     16  C   UNL     1       7.579   5.430  18.211  0.00  0.00    +0.000 C 
BRANCH  16  17
ATOM     17  C   UNL     1       7.337   6.569  17.223  0.00  0.00    +0.000 C 
BRANCH  17  18
ATOM     18  C   UNL     1       6.433   6.151  16.074  0.00  0.00    +0.000 C 
BRANCH  18  19
ATOM     19  C   UNL     1       6.781   4.729  15.639  0.00  0.00    +0.000 C 
BRANCH  19  20
ATOM     20  C   UNL     1       6.752   4.603  14.125  0.00  0.00    +0.000 C 
BRANCH  20  21
ATOM     21  C   UNL     1       5.625   3.679  13.673  0.00  0.00    +0.000 C 
BRANCH  21  22
ATOM     22  C   UNL     1       5.631   3.539  12.155  0.00  0.00    +0.000 C 
BRANCH  22  23
ATOM     23  C   UNL     1       6.593   2.454  11.693  0.00  0.00    +0.000 C 
BRANCH  23  24
ATOM     24  O   UNL     1       5.882   1.241  11.499  0.00  0.00    +0.000 OA
ATOM     25  H   UNL     1       4.953   1.405  11.740  0.00  0.00    +0.000 HD
ENDBRANCH  23  24
ENDBRANCH  22  23
ENDBRANCH  21  22
ENDBRANCH  20  21
ENDBRANCH  19  20
ENDBRANCH  18  19
ENDBRANCH  17  18
ENDBRANCH  16  17
ENDBRANCH  15  16
ENDBRANCH  14  15
ENDBRANCH   6  14
TORSDOF 15
ENDMDL
MODEL 5
REMARK VINA RESULT:      -5.5      3.775      5.941
REMARK  Name = 
REMARK  16 active torsions:
REMARK  status: ('A' for Active; 'I' for Inactive)
REMARK    1  A    between atoms: C_1  and  C_2
REMARK    2  A    between atoms: C_2  and  O_3
REMARK    3  A    between atoms: O_3  and  C_4
REMARK    4  A    between atoms: C_4  and  C_6
REMARK    5  A    between atoms: C_7  and  O_8
REMARK    6  A    between atoms: C_12  and  C_13
REMARK    7  A    between atoms: C_13  and  C_14
REMARK    8  A    between atoms: C_14  and  C_15
REMARK    9  A    between atoms: C_15  and  C_16
REMARK   10  A    between atoms: C_16  and  C_17
REMARK   11  A    between atoms: C_17  and  C_18
REMARK   12  A    between atoms: C_18  and  C_19
REMARK   13  A    between atoms: C_19  and  C_20
REMARK   14  A    between atoms: C_20  and  C_21
REMARK   15  A    between atoms: C_21  and  C_22
REMARK   16  A    between atoms: C_22  and  O_23
REMARK                            x       y       z     vdW  Elec       q    Type
REMARK                         _______ _______ _______ _____ _____    ______ ____
ROOT
ATOM      1  C   UNL     1       2.900   3.996  18.644  0.00  0.00    +0.000 A 
ATOM      2  C   UNL     1       2.180   2.787  18.555  0.00  0.00    +0.000 A 
ATOM      3  C   UNL     1       1.117   2.513  19.415  0.00  0.00    +0.000 A 
ATOM      4  C   UNL     1       0.742   3.445  20.376  0.00  0.00    +0.000 A 
ATOM      5  C   UNL     1       1.412   4.663  20.451  0.00  0.00    +0.000 A 
ATOM      6  C   UNL     1       2.487   4.963  19.586  0.00  0.00    +0.000 A 
ENDROOT
BRANCH   1   7
ATOM      7  C   UNL     1       4.091   4.135  17.759  0.00  0.00    +0.000 C 
ATOM      8  O   UNL     1       3.996   4.185  16.541  0.00  0.00    +0.000 OA
BRANCH   7   9
ATOM      9  O   UNL     1       5.232   3.989  18.464  0.00  0.00    +0.000 OA
BRANCH   9  11
ATOM     10  C   UNL     1       7.311   4.537  17.340  0.00  0.00    +0.000 C 
ATOM     11  C   UNL     1       6.242   4.995  18.312  0.00  0.00    +0.000 C 
ENDBRANCH   9  11
ENDBRANCH   7   9
ENDBRANCH   1   7
BRANCH   2  12
ATOM     12  O   UNL     1       2.465   1.800  17.645  0.00  0.00    +0.000 OA
ATOM     13  H   UNL     1       1.832   1.060  17.773  0.00  0.00    +0.000 HD
ENDBRANCH   2  12
BRANCH   6  14
ATOM     14  C   UNL     1       3.106   6.335  19.722  0.00  0.00    +0.000 C 
BRANCH  14  15
ATOM     15  C   UNL     1       2.107   7.464  19.444  0.00  0.00    +0.000 C 
BRANCH  15  16
ATOM     16  C   UNL     1       2.082   7.873  17.971  0.00  0.00    +0.000 C 
BRANCH  16  17
ATOM     17  C   UNL     1       1.250   9.135  17.759  0.00  0.00    +0.000 C 
BRANCH  17  18
ATOM     18  C   UNL     1       1.102   9.948  19.035  0.00  0.00    +0.000 C 
BRANCH  18  19
ATOM     19  C   UNL     1      -0.308  10.531  19.111  0.00  0.00    +0.000 C 
BRANCH  19  20
ATOM     20  C   UNL     1      -1.126  10.130  17.894  0.00  0.00    +0.000 C 
BRANCH  20  21
ATOM     21  C   UNL     1      -2.458  10.873  17.860  0.00  0.00    +0.000 C 
BRANCH  21  22
ATOM     22  C   UNL     1      -2.909  11.088  16.420  0.00  0.00    +0.000 C 
BRANCH  22  23
ATOM     23  C   UNL     1      -2.791   9.813  15.596  0.00  0.00    +0.000 C 
BRANCH  23  24
ATOM     24  O   UNL     1      -2.689  10.147  14.220  0.00  0.00    +0.000 OA
ATOM     25  H   UNL     1      -1.778   9.955  13.939  0.00  0.00    +0.000 HD
ENDBRANCH  23  24
ENDBRANCH  22  23
ENDBRANCH  21  22
ENDBRANCH  20  21
ENDBRANCH  19  20
ENDBRANCH  18  19
ENDBRANCH  17  18
ENDBRANCH  16  17
ENDBRANCH  15  16
ENDBRANCH  14  15
ENDBRANCH   6  14
TORSDOF 15
ENDMDL
MODEL 6
REMARK VINA RESULT:      -5.5      1.566      3.053
REMARK  Name = 
REMARK  16 active torsions:
REMARK  status: ('A' for Active; 'I' for Inactive)
REMARK    1  A    between atoms: C_1  and  C_2
REMARK    2  A    between atoms: C_2  and  O_3
REMARK    3  A    between atoms: O_3  and  C_4
REMARK    4  A    between atoms: C_4  and  C_6
REMARK    5  A    between atoms: C_7  and  O_8
REMARK    6  A    between atoms: C_12  and  C_13
REMARK    7  A    between atoms: C_13  and  C_14
REMARK    8  A    between atoms: C_14  and  C_15
REMARK    9  A    between atoms: C_15  and  C_16
REMARK   10  A    between atoms: C_16  and  C_17
REMARK   11  A    between atoms: C_17  and  C_18
REMARK   12  A    between atoms: C_18  and  C_19
REMARK   13  A    between atoms: C_19  and  C_20
REMARK   14  A    between atoms: C_20  and  C_21
REMARK   15  A    between atoms: C_21  and  C_22
REMARK   16  A    between atoms: C_22  and  O_23
REMARK                            x       y       z     vdW  Elec       q    Type
REMARK                         _______ _______ _______ _____ _____    ______ ____
ROOT
ATOM      1  C   UNL     1       5.883   5.566  16.794  0.00  0.00    +0.000 A 
ATOM      2  C   UNL     1       7.125   4.954  17.064  0.00  0.00    +0.000 A 
ATOM      3  C   UNL     1       7.626   4.880  18.363  0.00  0.00    +0.000 A 
ATOM      4  C   UNL     1       6.895   5.404  19.423  0.00  0.00    +0.000 A 
ATOM      5  C   UNL     1       5.647   5.973  19.182  0.00  0.00    +0.000 A 
ATOM      6  C   UNL     1       5.117   6.053  17.876  0.00  0.00    +0.000 A 
ENDROOT
BRANCH   1   7
ATOM      7  C   UNL     1       5.498   5.700  15.360  0.00  0.00    +0.000 C 
ATOM      8  O   UNL     1       5.297   6.787  14.838  0.00  0.00    +0.000 OA
BRANCH   7   9
ATOM      9  O   UNL     1       5.215   4.494  14.825  0.00  0.00    +0.000 OA
BRANCH   9  11
ATOM     10  C   UNL     1       5.068   3.645  12.557  0.00  0.00    +0.000 C 
ATOM     11  C   UNL     1       5.981   4.075  13.688  0.00  0.00    +0.000 C 
ENDBRANCH   9  11
ENDBRANCH   7   9
ENDBRANCH   1   7
BRANCH   2  12
ATOM     12  O   UNL     1       7.927   4.407  16.095  0.00  0.00    +0.000 OA
ATOM     13  H   UNL     1       8.048   5.066  15.377  0.00  0.00    +0.000 HD
ENDBRANCH   2  12
BRANCH   6  14
ATOM     14  C   UNL     1       3.733   6.642  17.739  0.00  0.00    +0.000 C 
BRANCH  14  15
ATOM     15  C   UNL     1       2.642   5.725  18.307  0.00  0.00    +0.000 C 
BRANCH  15  16
ATOM     16  C   UNL     1       2.758   5.546  19.820  0.00  0.00    +0.000 C 
BRANCH  16  17
ATOM     17  C   UNL     1       1.400   5.249  20.450  0.00  0.00    +0.000 C 
BRANCH  17  18
ATOM     18  C   UNL     1       1.199   3.764  20.708  0.00  0.00    +0.000 C 
BRANCH  18  19
ATOM     19  C   UNL     1       0.717   3.083  19.429  0.00  0.00    +0.000 C 
BRANCH  19  20
ATOM     20  C   UNL     1       1.599   1.893  19.083  0.00  0.00    +0.000 C 
BRANCH  20  21
ATOM     21  C   UNL     1       2.325   2.116  17.760  0.00  0.00    +0.000 C 
BRANCH  21  22
ATOM     22  C   UNL     1       3.772   2.524  18.011  0.00  0.00    +0.000 C 
BRANCH  22  23
ATOM     23  C   UNL     1       4.358   1.805  19.218  0.00  0.00    +0.000 C 
BRANCH  23  24
ATOM     24  O   UNL     1       4.582   0.442  18.895  0.00  0.00    +0.000 OA
ATOM     25  H   UNL     1       3.756  -0.041  19.075  0.00  0.00    +0.000 HD
ENDBRANCH  23  24
ENDBRANCH  22  23
ENDBRANCH  21  22
ENDBRANCH  20  21
ENDBRANCH  19  20
ENDBRANCH  18  19
ENDBRANCH  17  18
ENDBRANCH  16  17
ENDBRANCH  15  16
ENDBRANCH  14  15
ENDBRANCH   6  14
TORSDOF 15
ENDMDL
MODEL 7
REMARK VINA RESULT:      -5.5      3.585      5.497
REMARK  Name = 
REMARK  16 active torsions:
REMARK  status: ('A' for Active; 'I' for Inactive)
REMARK    1  A    between atoms: C_1  and  C_2
REMARK    2  A    between atoms: C_2  and  O_3
REMARK    3  A    between atoms: O_3  and  C_4
REMARK    4  A    between atoms: C_4  and  C_6
REMARK    5  A    between atoms: C_7  and  O_8
REMARK    6  A    between atoms: C_12  and  C_13
REMARK    7  A    between atoms: C_13  and  C_14
REMARK    8  A    between atoms: C_14  and  C_15
REMARK    9  A    between atoms: C_15  and  C_16
REMARK   10  A    between atoms: C_16  and  C_17
REMARK   11  A    between atoms: C_17  and  C_18
REMARK   12  A    between atoms: C_18  and  C_19
REMARK   13  A    between atoms: C_19  and  C_20
REMARK   14  A    between atoms: C_20  and  C_21
REMARK   15  A    between atoms: C_21  and  C_22
REMARK   16  A    between atoms: C_22  and  O_23
REMARK                            x       y       z     vdW  Elec       q    Type
REMARK                         _______ _______ _______ _____ _____    ______ ____
ROOT
ATOM      1  C   UNL     1       3.736   3.662  19.444  0.00  0.00    +0.000 A 
ATOM      2  C   UNL     1       3.863   2.584  20.344  0.00  0.00    +0.000 A 
ATOM      3  C   UNL     1       2.817   2.222  21.192  0.00  0.00    +0.000 A 
ATOM      4  C   UNL     1       1.615   2.920  21.152  0.00  0.00    +0.000 A 
ATOM      5  C   UNL     1       1.454   3.959  20.239  0.00  0.00    +0.000 A 
ATOM      6  C   UNL     1       2.498   4.338  19.368  0.00  0.00    +0.000 A 
ENDROOT
BRANCH   1   7
ATOM      7  C   UNL     1       4.953   4.041  18.673  0.00  0.00    +0.000 C 
ATOM      8  O   UNL     1       5.890   4.638  19.185  0.00  0.00    +0.000 OA
BRANCH   7   9
ATOM      9  O   UNL     1       4.771   3.825  17.354  0.00  0.00    +0.000 OA
BRANCH   9  11
ATOM     10  C   UNL     1       5.362   4.237  15.037  0.00  0.00    +0.000 C 
ATOM     11  C   UNL     1       5.849   4.161  16.470  0.00  0.00    +0.000 C 
ENDBRANCH   9  11
ENDBRANCH   7   9
ENDBRANCH   1   7
BRANCH   2  12
ATOM     12  O   UNL     1       5.003   1.830  20.466  0.00  0.00    +0.000 OA
ATOM     13  H   UNL     1       5.663   2.338  20.988  0.00  0.00    +0.000 HD
ENDBRANCH   2  12
BRANCH   6  14
ATOM     14  C   UNL     1       2.194   5.444  18.384  0.00  0.00    +0.000 C 
BRANCH  14  15
ATOM     15  C   UNL     1       2.394   6.841  18.986  0.00  0.00    +0.000 C 
BRANCH  15  16
ATOM     16  C   UNL     1       3.133   7.785  18.039  0.00  0.00    +0.000 C 
BRANCH  16  17
ATOM     17  C   UNL     1       2.192   8.836  17.456  0.00  0.00    +0.000 C 
BRANCH  17  18
ATOM     18  C   UNL     1       1.541   9.687  18.535  0.00  0.00    +0.000 C 
BRANCH  18  19
ATOM     19  C   UNL     1       0.050   9.835  18.240  0.00  0.00    +0.000 C 
BRANCH  19  20
ATOM     20  C   UNL     1      -0.693  10.359  19.459  0.00  0.00    +0.000 C 
BRANCH  20  21
ATOM     21  C   UNL     1      -0.195   9.689  20.735  0.00  0.00    +0.000 C 
BRANCH  21  22
ATOM     22  C   UNL     1      -0.126  10.700  21.873  0.00  0.00    +0.000 C 
BRANCH  22  23
ATOM     23  C   UNL     1      -0.832  10.191  23.122  0.00  0.00    +0.000 C 
BRANCH  23  24
ATOM     24  O   UNL     1       0.080   9.441  23.909  0.00  0.00    +0.000 OA
ATOM     25  H   UNL     1      -0.311   9.339  24.794  0.00  0.00    +0.000 HD
ENDBRANCH  23  24
ENDBRANCH  22  23
ENDBRANCH  21  22
ENDBRANCH  20  21
ENDBRANCH  19  20
ENDBRANCH  18  19
ENDBRANCH  17  18
ENDBRANCH  16  17
ENDBRANCH  15  16
ENDBRANCH  14  15
ENDBRANCH   6  14
TORSDOF 15
ENDMDL
MODEL 8
REMARK VINA RESULT:      -5.4      1.646      2.289
REMARK  Name = 
REMARK  16 active torsions:
REMARK  status: ('A' for Active; 'I' for Inactive)
REMARK    1  A    between atoms: C_1  and  C_2
REMARK    2  A    between atoms: C_2  and  O_3
REMARK    3  A    between atoms: O_3  and  C_4
REMARK    4  A    between atoms: C_4  and  C_6
REMARK    5  A    between atoms: C_7  and  O_8
REMARK    6  A    between atoms: C_12  and  C_13
REMARK    7  A    between atoms: C_13  and  C_14
REMARK    8  A    between atoms: C_14  and  C_15
REMARK    9  A    between atoms: C_15  and  C_16
REMARK   10  A    between atoms: C_16  and  C_17
REMARK   11  A    between atoms: C_17  and  C_18
REMARK   12  A    between atoms: C_18  and  C_19
REMARK   13  A    between atoms: C_19  and  C_20
REMARK   14  A    between atoms: C_20  and  C_21
REMARK   15  A    between atoms: C_21  and  C_22
REMARK   16  A    between atoms: C_22  and  O_23
REMARK                            x       y       z     vdW  Elec       q    Type
REMARK                         _______ _______ _______ _____ _____    ______ ____
ROOT
ATOM      1  C   UNL     1       5.664   5.217  16.562  0.00  0.00    +0.000 A 
ATOM      2  C   UNL     1       5.995   6.549  16.885  0.00  0.00    +0.000 A 
ATOM      3  C   UNL     1       5.060   7.405  17.466  0.00  0.00    +0.000 A 
ATOM      4  C   UNL     1       3.778   6.948  17.748  0.00  0.00    +0.000 A 
ATOM      5  C   UNL     1       3.446   5.623  17.477  0.00  0.00    +0.000 A 
ATOM      6  C   UNL     1       4.378   4.738  16.895  0.00  0.00    +0.000 A 
ENDROOT
BRANCH   1   7
ATOM      7  C   UNL     1       6.697   4.426  15.835  0.00  0.00    +0.000 C 
ATOM      8  O   UNL     1       7.871   4.414  16.179  0.00  0.00    +0.000 OA
BRANCH   7   9
ATOM      9  O   UNL     1       6.199   3.931  14.683  0.00  0.00    +0.000 OA
BRANCH   9  11
ATOM     10  C   UNL     1       6.443   3.465  12.315  0.00  0.00    +0.000 C 
ATOM     11  C   UNL     1       6.759   4.412  13.454  0.00  0.00    +0.000 C 
ENDBRANCH   9  11
ENDBRANCH   7   9
ENDBRANCH   1   7
BRANCH   2  12
ATOM     12  O   UNL     1       7.228   7.103  16.650  0.00  0.00    +0.000 OA
ATOM     13  H   UNL     1       7.411   7.064  15.685  0.00  0.00    +0.000 HD
ENDBRANCH   2  12
BRANCH   6  14
ATOM     14  C   UNL     1       3.926   3.310  16.693  0.00  0.00    +0.000 C 
BRANCH  14  15
ATOM     15  C   UNL     1       2.578   3.019  17.364  0.00  0.00    +0.000 C 
BRANCH  15  16
ATOM     16  C   UNL     1       2.590   1.713  18.158  0.00  0.00    +0.000 C 
BRANCH  16  17
ATOM     17  C   UNL     1       3.640   1.745  19.265  0.00  0.00    +0.000 C 
BRANCH  17  18
ATOM     18  C   UNL     1       3.530   2.993  20.126  0.00  0.00    +0.000 C 
BRANCH  18  19
ATOM     19  C   UNL     1       2.672   2.695  21.354  0.00  0.00    +0.000 C 
BRANCH  19  20
ATOM     20  C   UNL     1       1.265   3.243  21.178  0.00  0.00    +0.000 C 
BRANCH  20  21
ATOM     21  C   UNL     1       1.269   4.493  20.304  0.00  0.00    +0.000 C 
BRANCH  21  22
ATOM     22  C   UNL     1       2.036   5.618  20.990  0.00  0.00    +0.000 C 
BRANCH  22  23
ATOM     23  C   UNL     1       1.577   6.988  20.512  0.00  0.00    +0.000 C 
BRANCH  23  24
ATOM     24  O   UNL     1       1.673   7.918  21.579  0.00  0.00    +0.000 OA
ATOM     25  H   UNL     1       2.423   7.648  22.137  0.00  0.00    +0.000 HD
ENDBRANCH  23  24
ENDBRANCH  22  23
ENDBRANCH  21  22
ENDBRANCH  20  21
ENDBRANCH  19  20
ENDBRANCH  18  19
ENDBRANCH  17  18
ENDBRANCH  16  17
ENDBRANCH  15  16
ENDBRANCH  14  15
ENDBRANCH   6  14
TORSDOF 15
ENDMDL
MODEL 9
REMARK VINA RESULT:      -5.4      3.811      7.056
REMARK  Name = 
REMARK  16 active torsions:
REMARK  status: ('A' for Active; 'I' for Inactive)
REMARK    1  A    between atoms: C_1  and  C_2
REMARK    2  A    between atoms: C_2  and  O_3
REMARK    3  A    between atoms: O_3  and  C_4
REMARK    4  A    between atoms: C_4  and  C_6
REMARK    5  A    between atoms: C_7  and  O_8
REMARK    6  A    between atoms: C_12  and  C_13
REMARK    7  A    between atoms: C_13  and  C_14
REMARK    8  A    between atoms: C_14  and  C_15
REMARK    9  A    between atoms: C_15  and  C_16
REMARK   10  A    between atoms: C_16  and  C_17
REMARK   11  A    between atoms: C_17  and  C_18
REMARK   12  A    between atoms: C_18  and  C_19
REMARK   13  A    between atoms: C_19  and  C_20
REMARK   14  A    between atoms: C_20  and  C_21
REMARK   15  A    between atoms: C_21  and  C_22
REMARK   16  A    between atoms: C_22  and  O_23
REMARK                            x       y       z     vdW  Elec       q    Type
REMARK                         _______ _______ _______ _____ _____    ______ ____
ROOT
ATOM      1  C   UNL     1       3.825   5.163  18.687  0.00  0.00    +0.000 A 
ATOM      2  C   UNL     1       2.981   5.686  19.688  0.00  0.00    +0.000 A 
ATOM      3  C   UNL     1       2.452   6.972  19.588  0.00  0.00    +0.000 A 
ATOM      4  C   UNL     1       2.744   7.761  18.481  0.00  0.00    +0.000 A 
ATOM      5  C   UNL     1       3.540   7.247  17.461  0.00  0.00    +0.000 A 
ATOM      6  C   UNL     1       4.081   5.945  17.539  0.00  0.00    +0.000 A 
ENDROOT
BRANCH   1   7
ATOM      7  C   UNL     1       4.432   3.827  18.950  0.00  0.00    +0.000 C 
ATOM      8  O   UNL     1       5.482   3.698  19.563  0.00  0.00    +0.000 OA
BRANCH   7   9
ATOM      9  O   UNL     1       3.789   2.864  18.259  0.00  0.00    +0.000 OA
BRANCH   9  11
ATOM     10  C   UNL     1       1.450   2.319  18.606  0.00  0.00    +0.000 C 
ATOM     11  C   UNL     1       2.887   2.016  18.982  0.00  0.00    +0.000 C 
ENDBRANCH   9  11
ENDBRANCH   7   9
ENDBRANCH   1   7
BRANCH   2  12
ATOM     12  O   UNL     1       2.629   4.995  20.820  0.00  0.00    +0.000 OA
ATOM     13  H   UNL     1       3.438   4.596  21.209  0.00  0.00    +0.000 HD
ENDBRANCH   2  12
BRANCH   6  14
ATOM     14  C   UNL     1       4.886   5.472  16.351  0.00  0.00    +0.000 C 
BRANCH  14  15
ATOM     15  C   UNL     1       6.396   5.633  16.561  0.00  0.00    +0.000 C 
BRANCH  15  16
ATOM     16  C   UNL     1       6.730   6.607  17.689  0.00  0.00    +0.000 C 
BRANCH  16  17
ATOM     17  C   UNL     1       7.752   7.649  17.241  0.00  0.00    +0.000 C 
BRANCH  17  18
ATOM     18  C   UNL     1       7.602   8.962  17.992  0.00  0.00    +0.000 C 
BRANCH  18  19
ATOM     19  C   UNL     1       8.854   9.814  17.791  0.00  0.00    +0.000 C 
BRANCH  19  20
ATOM     20  C   UNL     1       9.349  10.371  19.116  0.00  0.00    +0.000 C 
BRANCH  20  21
ATOM     21  C   UNL     1      10.088  11.690  18.914  0.00  0.00    +0.000 C 
BRANCH  21  22
ATOM     22  C   UNL     1      10.904  11.649  17.627  0.00  0.00    +0.000 C 
BRANCH  22  23
ATOM     23  C   UNL     1      11.060  13.034  17.014  0.00  0.00    +0.000 C 
BRANCH  23  24
ATOM     24  O   UNL     1      12.284  13.100  16.300  0.00  0.00    +0.000 OA
ATOM     25  H   UNL     1      12.081  12.970  15.357  0.00  0.00    +0.000 HD
ENDBRANCH  23  24
ENDBRANCH  22  23
ENDBRANCH  21  22
ENDBRANCH  20  21
ENDBRANCH  19  20
ENDBRANCH  18  19
ENDBRANCH  17  18
ENDBRANCH  16  17
ENDBRANCH  15  16
ENDBRANCH  14  15
ENDBRANCH   6  14
TORSDOF 15
ENDMDL
