MODEL 1
REMARK VINA RESULT:      -9.1      0.000      0.000
REMARK  Name = 
REMARK  7 active torsions:
REMARK  status: ('A' for Active; 'I' for Inactive)
REMARK    1  A    between atoms: C_1  and  C_2
REMARK    2  A    between atoms: C_6  and  C_7
REMARK    3  A    between atoms: C_10  and  N_11
REMARK    4  A    between atoms: N_11  and  C_12
REMARK    5  A    between atoms: C_15  and  O_16
REMARK    6  A    between atoms: C_19  and  C_20
REMARK    7  A    between atoms: C_24  and  C_25
REMARK                            x       y       z     vdW  Elec       q    Type
REMARK                         _______ _______ _______ _____ _____    ______ ____
ROOT
ATOM      1  C   UNL     1       1.783   7.301  20.204  0.00  0.00    +0.000 A 
ATOM      2  C   UNL     1       2.750   7.322  19.181  0.00  0.00    +0.000 A 
ATOM      3  C   UNL     1       3.419   6.150  18.774  0.00  0.00    +0.000 A 
ATOM      4  C   UNL     1       3.221   4.937  19.436  0.00  0.00    +0.000 A 
ATOM      5  C   UNL     1       2.198   4.899  20.410  0.00  0.00    +0.000 A 
ATOM      6  C   UNL     1       1.478   6.049  20.740  0.00  0.00    +0.000 A 
ENDROOT
BRANCH   1  12
ATOM      7  C   UNL     1      -0.331  11.926  19.523  0.00  0.00    +0.000 C 
ATOM      8  C   UNL     1       0.081  10.761  20.387  0.00  0.00    +0.000 A 
ATOM      9  C   UNL     1      -0.152  10.835  21.766  0.00  0.00    +0.000 A 
ATOM     10  C   UNL     1       0.217   9.791  22.598  0.00  0.00    +0.000 A 
ATOM     11  C   UNL     1       0.843   8.670  22.062  0.00  0.00    +0.000 A 
ATOM     12  C   UNL     1       1.103   8.537  20.678  0.00  0.00    +0.000 A 
ATOM     13  C   UNL     1       0.689   9.605  19.824  0.00  0.00    +0.000 A 
ATOM     14  C   UNL     1       0.864   9.596  18.318  0.00  0.00    +0.000 C 
ENDBRANCH   1  12
BRANCH   5  15
ATOM     15  C   UNL     1       1.850   3.683  21.200  0.00  0.00    +0.000 C 
ATOM     16  N   UNL     1       0.720   3.008  20.843  0.00  0.00    +0.000 N 
ATOM     17  O   UNL     1       2.528   3.310  22.158  0.00  0.00    +0.000 OA
ATOM     18  H   UNL     1       0.029   3.474  20.261  0.00  0.00    +0.000 HD
ATOM     19  H   UNL     1       0.394   2.308  21.498  0.00  0.00    +0.000 HD
ENDBRANCH   5  15
BRANCH   4  20
ATOM     20  N   UNL     1       3.903   3.770  19.098  0.00  0.00    +0.000 N 
ATOM     21  H   UNL     1       4.203   3.298  19.957  0.00  0.00    +0.000 HD
BRANCH  20  22
ATOM     22  C   UNL     1       4.946   3.671  18.078  0.00  0.00    +0.000 C 
ATOM     23  C   UNL     1       4.410   4.052  16.688  0.00  0.00    +0.000 C 
ATOM     24  C   UNL     1       5.534   4.234  15.670  0.00  0.00    +0.000 C 
ATOM     25  C   UNL     1       6.548   5.270  16.146  0.00  0.00    +0.000 C 
ATOM     26  C   UNL     1       7.135   4.877  17.499  0.00  0.00    +0.000 C 
ATOM     27  C   UNL     1       6.042   4.661  18.531  0.00  0.00    +0.000 C 
BRANCH  25  28
ATOM     28  O   UNL     1       7.595   5.398  15.193  0.00  0.00    +0.000 OA
ATOM     29  H   UNL     1       8.300   5.942  15.582  0.00  0.00    +0.000 HD
ENDBRANCH  25  28
ENDBRANCH  20  22
ENDBRANCH   4  20
TORSDOF 5
ENDMDL
MODEL 2
REMARK VINA RESULT:      -9.1      3.760      7.998
REMARK  Name = 
REMARK  7 active torsions:
REMARK  status: ('A' for Active; 'I' for Inactive)
REMARK    1  A    between atoms: C_1  and  C_2
REMARK    2  A    between atoms: C_6  and  C_7
REMARK    3  A    between atoms: C_10  and  N_11
REMARK    4  A    between atoms: N_11  and  C_12
REMARK    5  A    between atoms: C_15  and  O_16
REMARK    6  A    between atoms: C_19  and  C_20
REMARK    7  A    between atoms: C_24  and  C_25
REMARK                            x       y       z     vdW  Elec       q    Type
REMARK                         _______ _______ _______ _____ _____    ______ ____
ROOT
ATOM      1  C   UNL     1       2.733   7.233  18.464  0.00  0.00    +0.000 A 
ATOM      2  C   UNL     1       2.472   8.211  17.487  0.00  0.00    +0.000 A 
ATOM      3  C   UNL     1       1.685   9.346  17.770  0.00  0.00    +0.000 A 
ATOM      4  C   UNL     1       1.048   9.496  19.004  0.00  0.00    +0.000 A 
ATOM      5  C   UNL     1       1.370   8.555  20.007  0.00  0.00    +0.000 A 
ATOM      6  C   UNL     1       2.226   7.484  19.740  0.00  0.00    +0.000 A 
ENDROOT
BRANCH   1  12
ATOM      7  C   UNL     1       3.259   2.188  17.696  0.00  0.00    +0.000 C 
ATOM      8  C   UNL     1       3.810   3.588  17.794  0.00  0.00    +0.000 A 
ATOM      9  C   UNL     1       5.189   3.777  17.632  0.00  0.00    +0.000 A 
ATOM     10  C   UNL     1       5.740   5.044  17.721  0.00  0.00    +0.000 A 
ATOM     11  C   UNL     1       4.919   6.135  17.996  0.00  0.00    +0.000 A 
ATOM     12  C   UNL     1       3.521   6.006  18.168  0.00  0.00    +0.000 A 
ATOM     13  C   UNL     1       2.959   4.700  18.041  0.00  0.00    +0.000 A 
ATOM     14  C   UNL     1       1.477   4.404  18.163  0.00  0.00    +0.000 C 
ENDBRANCH   1  12
BRANCH   5  15
ATOM     15  C   UNL     1       0.788   8.576  21.381  0.00  0.00    +0.000 C 
ATOM     16  N   UNL     1       1.622   8.914  22.406  0.00  0.00    +0.000 N 
ATOM     17  O   UNL     1      -0.385   8.273  21.599  0.00  0.00    +0.000 OA
ATOM     18  H   UNL     1       2.627   8.876  22.260  0.00  0.00    +0.000 HD
ATOM     19  H   UNL     1       1.271   8.739  23.340  0.00  0.00    +0.000 HD
ENDBRANCH   5  15
BRANCH   4  20
ATOM     20  N   UNL     1       0.220  10.575  19.302  0.00  0.00    +0.000 N 
ATOM     21  H   UNL     1       0.518  10.989  20.191  0.00  0.00    +0.000 HD
BRANCH  20  22
ATOM     22  C   UNL     1      -1.240  10.563  19.217  0.00  0.00    +0.000 C 
ATOM     23  C   UNL     1      -1.822  11.979  19.362  0.00  0.00    +0.000 C 
ATOM     24  C   UNL     1      -3.303  12.030  18.993  0.00  0.00    +0.000 C 
ATOM     25  C   UNL     1      -3.539  11.505  17.580  0.00  0.00    +0.000 C 
ATOM     26  C   UNL     1      -3.019  10.078  17.435  0.00  0.00    +0.000 C 
ATOM     27  C   UNL     1      -1.554   9.984  17.821  0.00  0.00    +0.000 C 
BRANCH  25  28
ATOM     28  O   UNL     1      -4.926  11.540  17.274  0.00  0.00    +0.000 OA
ATOM     29  H   UNL     1      -5.304  12.353  17.650  0.00  0.00    +0.000 HD
ENDBRANCH  25  28
ENDBRANCH  20  22
ENDBRANCH   4  20
TORSDOF 5
ENDMDL
MODEL 3
REMARK VINA RESULT:      -9.0      3.756      7.939
REMARK  Name = 
REMARK  7 active torsions:
REMARK  status: ('A' for Active; 'I' for Inactive)
REMARK    1  A    between atoms: C_1  and  C_2
REMARK    2  A    between atoms: C_6  and  C_7
REMARK    3  A    between atoms: C_10  and  N_11
REMARK    4  A    between atoms: N_11  and  C_12
REMARK    5  A    between atoms: C_15  and  O_16
REMARK    6  A    between atoms: C_19  and  C_20
REMARK    7  A    between atoms: C_24  and  C_25
REMARK                            x       y       z     vdW  Elec       q    Type
REMARK                         _______ _______ _______ _____ _____    ______ ____
ROOT
ATOM      1  C   UNL     1       2.714   7.294  18.449  0.00  0.00    +0.000 A 
ATOM      2  C   UNL     1       2.464   8.280  17.476  0.00  0.00    +0.000 A 
ATOM      3  C   UNL     1       1.682   9.416  17.762  0.00  0.00    +0.000 A 
ATOM      4  C   UNL     1       1.039   9.563  18.992  0.00  0.00    +0.000 A 
ATOM      5  C   UNL     1       1.350   8.614  19.992  0.00  0.00    +0.000 A 
ATOM      6  C   UNL     1       2.202   7.540  19.724  0.00  0.00    +0.000 A 
ENDROOT
BRANCH   1  12
ATOM      7  C   UNL     1       3.223   2.246  17.689  0.00  0.00    +0.000 C 
ATOM      8  C   UNL     1       3.778   3.644  17.779  0.00  0.00    +0.000 A 
ATOM      9  C   UNL     1       5.156   3.830  17.606  0.00  0.00    +0.000 A 
ATOM     10  C   UNL     1       5.710   5.096  17.688  0.00  0.00    +0.000 A 
ATOM     11  C   UNL     1       4.895   6.190  17.967  0.00  0.00    +0.000 A 
ATOM     12  C   UNL     1       3.498   6.065  18.150  0.00  0.00    +0.000 A 
ATOM     13  C   UNL     1       2.931   4.759  18.031  0.00  0.00    +0.000 A 
ATOM     14  C   UNL     1       1.450   4.467  18.164  0.00  0.00    +0.000 C 
ENDBRANCH   1  12
BRANCH   5  15
ATOM     15  C   UNL     1       0.761   8.631  21.363  0.00  0.00    +0.000 C 
ATOM     16  N   UNL     1       1.612   8.855  22.405  0.00  0.00    +0.000 N 
ATOM     17  O   UNL     1      -0.436   8.420  21.563  0.00  0.00    +0.000 OA
ATOM     18  H   UNL     1       2.611   8.737  22.262  0.00  0.00    +0.000 HD
ATOM     19  H   UNL     1       1.240   8.674  23.330  0.00  0.00    +0.000 HD
ENDBRANCH   5  15
BRANCH   4  20
ATOM     20  N   UNL     1       0.215  10.645  19.293  0.00  0.00    +0.000 N 
ATOM     21  H   UNL     1      -0.089  10.572  20.269  0.00  0.00    +0.000 HD
BRANCH  20  22
ATOM     22  C   UNL     1      -0.887  11.120  18.457  0.00  0.00    +0.000 C 
ATOM     23  C   UNL     1      -1.459   9.989  17.586  0.00  0.00    +0.000 C 
ATOM     24  C   UNL     1      -2.778  10.385  16.927  0.00  0.00    +0.000 C 
ATOM     25  C   UNL     1      -3.806  10.821  17.967  0.00  0.00    +0.000 C 
ATOM     26  C   UNL     1      -3.277  11.983  18.802  0.00  0.00    +0.000 C 
ATOM     27  C   UNL     1      -1.950  11.634  19.452  0.00  0.00    +0.000 C 
BRANCH  25  28
ATOM     28  O   UNL     1      -5.014  11.208  17.324  0.00  0.00    +0.000 OA
ATOM     29  H   UNL     1      -5.535  11.744  17.945  0.00  0.00    +0.000 HD
ENDBRANCH  25  28
ENDBRANCH  20  22
ENDBRANCH   4  20
TORSDOF 5
ENDMDL
MODEL 4
REMARK VINA RESULT:      -9.0      3.696      8.055
REMARK  Name = 
REMARK  7 active torsions:
REMARK  status: ('A' for Active; 'I' for Inactive)
REMARK    1  A    between atoms: C_1  and  C_2
REMARK    2  A    between atoms: C_6  and  C_7
REMARK    3  A    between atoms: C_10  and  N_11
REMARK    4  A    between atoms: N_11  and  C_12
REMARK    5  A    between atoms: C_15  and  O_16
REMARK    6  A    between atoms: C_19  and  C_20
REMARK    7  A    between atoms: C_24  and  C_25
REMARK                            x       y       z     vdW  Elec       q    Type
REMARK                         _______ _______ _______ _____ _____    ______ ____
ROOT
ATOM      1  C   UNL     1       2.392   7.321  18.413  0.00  0.00    +0.000 A 
ATOM      2  C   UNL     1       2.345   8.433  17.552  0.00  0.00    +0.000 A 
ATOM      3  C   UNL     1       1.846   9.679  17.981  0.00  0.00    +0.000 A 
ATOM      4  C   UNL     1       1.284   9.835  19.250  0.00  0.00    +0.000 A 
ATOM      5  C   UNL     1       1.399   8.743  20.138  0.00  0.00    +0.000 A 
ATOM      6  C   UNL     1       1.980   7.541  19.728  0.00  0.00    +0.000 A 
ENDROOT
BRANCH   1  12
ATOM      7  C   UNL     1       5.851   4.145  16.348  0.00  0.00    +0.000 C 
ATOM      8  C   UNL     1       4.510   4.433  16.973  0.00  0.00    +0.000 A 
ATOM      9  C   UNL     1       3.599   3.379  17.121  0.00  0.00    +0.000 A 
ATOM     10  C   UNL     1       2.353   3.599  17.682  0.00  0.00    +0.000 A 
ATOM     11  C   UNL     1       1.994   4.884  18.083  0.00  0.00    +0.000 A 
ATOM     12  C   UNL     1       2.871   5.987  17.961  0.00  0.00    +0.000 A 
ATOM     13  C   UNL     1       4.166   5.742  17.410  0.00  0.00    +0.000 A 
ATOM     14  C   UNL     1       5.229   6.811  17.247  0.00  0.00    +0.000 C 
ENDBRANCH   1  12
BRANCH   5  15
ATOM     15  C   UNL     1       0.864   8.747  21.531  0.00  0.00    +0.000 C 
ATOM     16  N   UNL     1       1.768   8.851  22.547  0.00  0.00    +0.000 N 
ATOM     17  O   UNL     1      -0.339   8.629  21.770  0.00  0.00    +0.000 OA
ATOM     18  H   UNL     1       2.747   8.657  22.359  0.00  0.00    +0.000 HD
ATOM     19  H   UNL     1       1.415   8.661  23.477  0.00  0.00    +0.000 HD
ENDBRANCH   5  15
BRANCH   4  20
ATOM     20  N   UNL     1       0.732  11.035  19.691  0.00  0.00    +0.000 N 
ATOM     21  H   UNL     1       0.618  10.996  20.709  0.00  0.00    +0.000 HD
BRANCH  20  22
ATOM     22  C   UNL     1      -0.415  11.708  19.082  0.00  0.00    +0.000 C 
ATOM     23  C   UNL     1      -1.326  10.710  18.348  0.00  0.00    +0.000 C 
ATOM     24  C   UNL     1      -2.662  11.336  17.956  0.00  0.00    +0.000 C 
ATOM     25  C   UNL     1      -3.382  11.910  19.172  0.00  0.00    +0.000 C 
ATOM     26  C   UNL     1      -2.514  12.947  19.879  0.00  0.00    +0.000 C 
ATOM     27  C   UNL     1      -1.164  12.366  20.261  0.00  0.00    +0.000 C 
BRANCH  25  28
ATOM     28  O   UNL     1      -4.608  12.508  18.773  0.00  0.00    +0.000 OA
ATOM     29  H   UNL     1      -4.693  13.366  19.222  0.00  0.00    +0.000 HD
ENDBRANCH  25  28
ENDBRANCH  20  22
ENDBRANCH   4  20
TORSDOF 5
ENDMDL
MODEL 5
REMARK VINA RESULT:      -8.8      3.929      8.049
REMARK  Name = 
REMARK  7 active torsions:
REMARK  status: ('A' for Active; 'I' for Inactive)
REMARK    1  A    between atoms: C_1  and  C_2
REMARK    2  A    between atoms: C_6  and  C_7
REMARK    3  A    between atoms: C_10  and  N_11
REMARK    4  A    between atoms: N_11  and  C_12
REMARK    5  A    between atoms: C_15  and  O_16
REMARK    6  A    between atoms: C_19  and  C_20
REMARK    7  A    between atoms: C_24  and  C_25
REMARK                            x       y       z     vdW  Elec       q    Type
REMARK                         _______ _______ _______ _____ _____    ______ ____
ROOT
ATOM      1  C   UNL     1       2.476   7.368  18.925  0.00  0.00    +0.000 A 
ATOM      2  C   UNL     1       2.191   8.078  17.743  0.00  0.00    +0.000 A 
ATOM      3  C   UNL     1       1.359   9.215  17.748  0.00  0.00    +0.000 A 
ATOM      4  C   UNL     1       0.701   9.626  18.909  0.00  0.00    +0.000 A 
ATOM      5  C   UNL     1       1.045   8.962  20.108  0.00  0.00    +0.000 A 
ATOM      6  C   UNL     1       1.944   7.893  20.104  0.00  0.00    +0.000 A 
ENDROOT
BRANCH   1  12
ATOM      7  C   UNL     1       3.528   2.535  20.288  0.00  0.00    +0.000 C 
ATOM      8  C   UNL     1       3.850   3.818  19.565  0.00  0.00    +0.000 A 
ATOM      9  C   UNL     1       5.055   3.902  18.855  0.00  0.00    +0.000 A 
ATOM     10  C   UNL     1       5.395   5.064  18.182  0.00  0.00    +0.000 A 
ATOM     11  C   UNL     1       4.543   6.164  18.231  0.00  0.00    +0.000 A 
ATOM     12  C   UNL     1       3.314   6.138  18.929  0.00  0.00    +0.000 A 
ATOM     13  C   UNL     1       2.957   4.925  19.592  0.00  0.00    +0.000 A 
ATOM     14  C   UNL     1       1.659   4.728  20.351  0.00  0.00    +0.000 C 
ENDBRANCH   1  12
BRANCH   5  15
ATOM     15  C   UNL     1       0.446   9.284  21.436  0.00  0.00    +0.000 C 
ATOM     16  N   UNL     1      -0.541   8.460  21.892  0.00  0.00    +0.000 N 
ATOM     17  O   UNL     1       0.796  10.267  22.089  0.00  0.00    +0.000 OA
ATOM     18  H   UNL     1      -1.013   7.844  21.236  0.00  0.00    +0.000 HD
ATOM     19  H   UNL     1      -1.065   8.795  22.691  0.00  0.00    +0.000 HD
ENDBRANCH   5  15
BRANCH   4  20
ATOM     20  N   UNL     1      -0.170  10.712  18.942  0.00  0.00    +0.000 N 
ATOM     21  H   UNL     1       0.093  11.328  19.718  0.00  0.00    +0.000 HD
BRANCH  20  22
ATOM     22  C   UNL     1      -1.627  10.625  18.840  0.00  0.00    +0.000 C 
ATOM     23  C   UNL     1      -2.282  12.011  18.955  0.00  0.00    +0.000 C 
ATOM     24  C   UNL     1      -3.759  11.980  18.568  0.00  0.00    +0.000 C 
ATOM     25  C   UNL     1      -3.950  11.422  17.161  0.00  0.00    +0.000 C 
ATOM     26  C   UNL     1      -3.357  10.021  17.045  0.00  0.00    +0.000 C 
ATOM     27  C   UNL     1      -1.893  10.008  17.449  0.00  0.00    +0.000 C 
BRANCH  25  28
ATOM     28  O   UNL     1      -5.333  11.382  16.838  0.00  0.00    +0.000 OA
ATOM     29  H   UNL     1      -5.511  12.053  16.157  0.00  0.00    +0.000 HD
ENDBRANCH  25  28
ENDBRANCH  20  22
ENDBRANCH   4  20
TORSDOF 5
ENDMDL
MODEL 6
REMARK VINA RESULT:      -8.8      3.680      8.041
REMARK  Name = 
REMARK  7 active torsions:
REMARK  status: ('A' for Active; 'I' for Inactive)
REMARK    1  A    between atoms: C_1  and  C_2
REMARK    2  A    between atoms: C_6  and  C_7
REMARK    3  A    between atoms: C_10  and  N_11
REMARK    4  A    between atoms: N_11  and  C_12
REMARK    5  A    between atoms: C_15  and  O_16
REMARK    6  A    between atoms: C_19  and  C_20
REMARK    7  A    between atoms: C_24  and  C_25
REMARK                            x       y       z     vdW  Elec       q    Type
REMARK                         _______ _______ _______ _____ _____    ______ ____
ROOT
ATOM      1  C   UNL     1       2.618   7.176  18.332  0.00  0.00    +0.000 A 
ATOM      2  C   UNL     1       2.422   8.247  17.439  0.00  0.00    +0.000 A 
ATOM      3  C   UNL     1       1.768   9.430  17.838  0.00  0.00    +0.000 A 
ATOM      4  C   UNL     1       1.197   9.549  19.106  0.00  0.00    +0.000 A 
ATOM      5  C   UNL     1       1.458   8.508  20.025  0.00  0.00    +0.000 A 
ATOM      6  C   UNL     1       2.188   7.380  19.644  0.00  0.00    +0.000 A 
ENDROOT
BRANCH   1  12
ATOM      7  C   UNL     1       6.514   4.398  16.482  0.00  0.00    +0.000 C 
ATOM      8  C   UNL     1       5.115   4.538  17.028  0.00  0.00    +0.000 A 
ATOM      9  C   UNL     1       4.318   3.391  17.128  0.00  0.00    +0.000 A 
ATOM     10  C   UNL     1       3.025   3.474  17.616  0.00  0.00    +0.000 A 
ATOM     11  C   UNL     1       2.507   4.711  17.990  0.00  0.00    +0.000 A 
ATOM     12  C   UNL     1       3.264   5.903  17.913  0.00  0.00    +0.000 A 
ATOM     13  C   UNL     1       4.607   5.802  17.439  0.00  0.00    +0.000 A 
ATOM     14  C   UNL     1       5.555   6.980  17.332  0.00  0.00    +0.000 C 
ENDBRANCH   1  12
BRANCH   5  15
ATOM     15  C   UNL     1       0.935   8.484  21.422  0.00  0.00    +0.000 C 
ATOM     16  N   UNL     1       1.818   8.760  22.424  0.00  0.00    +0.000 N 
ATOM     17  O   UNL     1      -0.235   8.197  21.677  0.00  0.00    +0.000 OA
ATOM     18  H   UNL     1       2.814   8.706  22.233  0.00  0.00    +0.000 HD
ATOM     19  H   UNL     1       1.502   8.553  23.364  0.00  0.00    +0.000 HD
ENDBRANCH   5  15
BRANCH   4  20
ATOM     20  N   UNL     1       0.496  10.680  19.518  0.00  0.00    +0.000 N 
ATOM     21  H   UNL     1       0.908  11.029  20.390  0.00  0.00    +0.000 HD
BRANCH  20  22
ATOM     22  C   UNL     1      -0.961  10.794  19.569  0.00  0.00    +0.000 C 
ATOM     23  C   UNL     1      -1.404  12.254  19.762  0.00  0.00    +0.000 C 
ATOM     24  C   UNL     1      -2.903  12.433  19.532  0.00  0.00    +0.000 C 
ATOM     25  C   UNL     1      -3.313  11.936  18.149  0.00  0.00    +0.000 C 
ATOM     26  C   UNL     1      -2.933  10.470  17.963  0.00  0.00    +0.000 C 
ATOM     27  C   UNL     1      -1.452  10.249  18.211  0.00  0.00    +0.000 C 
BRANCH  25  28
ATOM     28  O   UNL     1      -4.715  12.091  17.973  0.00  0.00    +0.000 OA
ATOM     29  H   UNL     1      -5.117  12.260  18.842  0.00  0.00    +0.000 HD
ENDBRANCH  25  28
ENDBRANCH  20  22
ENDBRANCH   4  20
TORSDOF 5
ENDMDL
MODEL 7
REMARK VINA RESULT:      -8.8      3.868      7.939
REMARK  Name = 
REMARK  7 active torsions:
REMARK  status: ('A' for Active; 'I' for Inactive)
REMARK    1  A    between atoms: C_1  and  C_2
REMARK    2  A    between atoms: C_6  and  C_7
REMARK    3  A    between atoms: C_10  and  N_11
REMARK    4  A    between atoms: N_11  and  C_12
REMARK    5  A    between atoms: C_15  and  O_16
REMARK    6  A    between atoms: C_19  and  C_20
REMARK    7  A    between atoms: C_24  and  C_25
REMARK                            x       y       z     vdW  Elec       q    Type
REMARK                         _______ _______ _______ _____ _____    ______ ____
ROOT
ATOM      1  C   UNL     1       2.367   7.452  19.031  0.00  0.00    +0.000 A 
ATOM      2  C   UNL     1       2.206   8.226  17.866  0.00  0.00    +0.000 A 
ATOM      3  C   UNL     1       1.472   9.429  17.875  0.00  0.00    +0.000 A 
ATOM      4  C   UNL     1       0.790   9.853  19.017  0.00  0.00    +0.000 A 
ATOM      5  C   UNL     1       1.012   9.118  20.203  0.00  0.00    +0.000 A 
ATOM      6  C   UNL     1       1.818   7.977  20.202  0.00  0.00    +0.000 A 
ENDROOT
BRANCH   1  12
ATOM      7  C   UNL     1       3.090   2.586  20.485  0.00  0.00    +0.000 C 
ATOM      8  C   UNL     1       3.476   3.817  19.705  0.00  0.00    +0.000 A 
ATOM      9  C   UNL     1       4.640   3.779  18.927  0.00  0.00    +0.000 A 
ATOM     10  C   UNL     1       5.036   4.889  18.200  0.00  0.00    +0.000 A 
ATOM     11  C   UNL     1       4.283   6.059  18.261  0.00  0.00    +0.000 A 
ATOM     12  C   UNL     1       3.098   6.156  19.027  0.00  0.00    +0.000 A 
ATOM     13  C   UNL     1       2.680   4.996  19.747  0.00  0.00    +0.000 A 
ATOM     14  C   UNL     1       1.418   4.931  20.583  0.00  0.00    +0.000 C 
ENDBRANCH   1  12
BRANCH   5  15
ATOM     15  C   UNL     1       0.371   9.441  21.511  0.00  0.00    +0.000 C 
ATOM     16  N   UNL     1      -0.549   8.557  21.991  0.00  0.00    +0.000 N 
ATOM     17  O   UNL     1       0.629  10.476  22.127  0.00  0.00    +0.000 OA
ATOM     18  H   UNL     1      -0.960   7.877  21.357  0.00  0.00    +0.000 HD
ATOM     19  H   UNL     1      -1.110   8.878  22.771  0.00  0.00    +0.000 HD
ENDBRANCH   5  15
BRANCH   4  20
ATOM     20  N   UNL     1       0.011  11.007  19.050  0.00  0.00    +0.000 N 
ATOM     21  H   UNL     1      -0.209  11.233  20.025  0.00  0.00    +0.000 HD
BRANCH  20  22
ATOM     22  C   UNL     1      -1.152  11.261  18.199  0.00  0.00    +0.000 C 
ATOM     23  C   UNL     1      -1.627   9.977  17.500  0.00  0.00    +0.000 C 
ATOM     24  C   UNL     1      -2.994  10.155  16.843  0.00  0.00    +0.000 C 
ATOM     25  C   UNL     1      -4.037  10.621  17.854  0.00  0.00    +0.000 C 
ATOM     26  C   UNL     1      -3.608  11.927  18.516  0.00  0.00    +0.000 C 
ATOM     27  C   UNL     1      -2.238  11.796  19.157  0.00  0.00    +0.000 C 
BRANCH  25  28
ATOM     28  O   UNL     1      -5.291  10.803  17.210  0.00  0.00    +0.000 OA
ATOM     29  H   UNL     1      -5.996  10.567  17.836  0.00  0.00    +0.000 HD
ENDBRANCH  25  28
ENDBRANCH  20  22
ENDBRANCH   4  20
TORSDOF 5
ENDMDL
MODEL 8
REMARK VINA RESULT:      -8.6      3.648      7.718
REMARK  Name = 
REMARK  7 active torsions:
REMARK  status: ('A' for Active; 'I' for Inactive)
REMARK    1  A    between atoms: C_1  and  C_2
REMARK    2  A    between atoms: C_6  and  C_7
REMARK    3  A    between atoms: C_10  and  N_11
REMARK    4  A    between atoms: N_11  and  C_12
REMARK    5  A    between atoms: C_15  and  O_16
REMARK    6  A    between atoms: C_19  and  C_20
REMARK    7  A    between atoms: C_24  and  C_25
REMARK                            x       y       z     vdW  Elec       q    Type
REMARK                         _______ _______ _______ _____ _____    ______ ____
ROOT
ATOM      1  C   UNL     1       1.996   6.525  19.738  0.00  0.00    +0.000 A 
ATOM      2  C   UNL     1       2.304   7.122  18.501  0.00  0.00    +0.000 A 
ATOM      3  C   UNL     1       2.123   8.502  18.282  0.00  0.00    +0.000 A 
ATOM      4  C   UNL     1       1.537   9.318  19.252  0.00  0.00    +0.000 A 
ATOM      5  C   UNL     1       1.298   8.736  20.517  0.00  0.00    +0.000 A 
ATOM      6  C   UNL     1       1.568   7.386  20.749  0.00  0.00    +0.000 A 
ENDROOT
BRANCH   1  12
ATOM      7  C   UNL     1       4.614   2.113  19.770  0.00  0.00    +0.000 C 
ATOM      8  C   UNL     1       3.364   2.925  19.996  0.00  0.00    +0.000 A 
ATOM      9  C   UNL     1       2.205   2.264  20.426  0.00  0.00    +0.000 A 
ATOM     10  C   UNL     1       1.033   2.969  20.640  0.00  0.00    +0.000 A 
ATOM     11  C   UNL     1       0.999   4.340  20.402  0.00  0.00    +0.000 A 
ATOM     12  C   UNL     1       2.136   5.061  19.968  0.00  0.00    +0.000 A 
ATOM     13  C   UNL     1       3.349   4.331  19.783  0.00  0.00    +0.000 A 
ATOM     14  C   UNL     1       4.658   4.965  19.357  0.00  0.00    +0.000 C 
ENDBRANCH   1  12
BRANCH   5  15
ATOM     15  C   UNL     1       0.689   9.469  21.665  0.00  0.00    +0.000 C 
ATOM     16  N   UNL     1      -0.408   8.909  22.252  0.00  0.00    +0.000 N 
ATOM     17  O   UNL     1       1.128  10.550  22.057  0.00  0.00    +0.000 OA
ATOM     18  H   UNL     1      -0.924   8.191  21.752  0.00  0.00    +0.000 HD
ATOM     19  H   UNL     1      -0.920   9.502  22.894  0.00  0.00    +0.000 HD
ENDBRANCH   5  15
BRANCH   4  20
ATOM     20  N   UNL     1       1.293  10.675  19.054  0.00  0.00    +0.000 N 
ATOM     21  H   UNL     1       1.496  11.181  19.922  0.00  0.00    +0.000 HD
BRANCH  20  22
ATOM     22  C   UNL     1       0.100  11.230  18.415  0.00  0.00    +0.000 C 
ATOM     23  C   UNL     1      -0.910  10.127  18.057  0.00  0.00    +0.000 C 
ATOM     24  C   UNL     1      -2.267  10.701  17.658  0.00  0.00    +0.000 C 
ATOM     25  C   UNL     1      -2.833  11.598  18.755  0.00  0.00    +0.000 C 
ATOM     26  C   UNL     1      -1.868  12.734  19.081  0.00  0.00    +0.000 C 
ATOM     27  C   UNL     1      -0.497  12.200  19.457  0.00  0.00    +0.000 C 
BRANCH  25  28
ATOM     28  O   UNL     1      -4.082  12.138  18.345  0.00  0.00    +0.000 OA
ATOM     29  H   UNL     1      -3.929  12.726  17.586  0.00  0.00    +0.000 HD
ENDBRANCH  25  28
ENDBRANCH  20  22
ENDBRANCH   4  20
TORSDOF 5
ENDMDL
MODEL 9
REMARK VINA RESULT:      -8.6      3.920      7.987
REMARK  Name = 
REMARK  7 active torsions:
REMARK  status: ('A' for Active; 'I' for Inactive)
REMARK    1  A    between atoms: C_1  and  C_2
REMARK    2  A    between atoms: C_6  and  C_7
REMARK    3  A    between atoms: C_10  and  N_11
REMARK    4  A    between atoms: N_11  and  C_12
REMARK    5  A    between atoms: C_15  and  O_16
REMARK    6  A    between atoms: C_19  and  C_20
REMARK    7  A    between atoms: C_24  and  C_25
REMARK                            x       y       z     vdW  Elec       q    Type
REMARK                         _______ _______ _______ _____ _____    ______ ____
ROOT
ATOM      1  C   UNL     1       2.514   7.325  18.912  0.00  0.00    +0.000 A 
ATOM      2  C   UNL     1       2.244   8.037  17.728  0.00  0.00    +0.000 A 
ATOM      3  C   UNL     1       1.414   9.176  17.725  0.00  0.00    +0.000 A 
ATOM      4  C   UNL     1       0.744   9.587  18.880  0.00  0.00    +0.000 A 
ATOM      5  C   UNL     1       1.073   8.920  20.081  0.00  0.00    +0.000 A 
ATOM      6  C   UNL     1       1.970   7.849  20.086  0.00  0.00    +0.000 A 
ENDROOT
BRANCH   1  12
ATOM      7  C   UNL     1       6.503   4.470  17.411  0.00  0.00    +0.000 C 
ATOM      8  C   UNL     1       5.254   4.695  18.224  0.00  0.00    +0.000 A 
ATOM      9  C   UNL     1       4.794   3.657  19.045  0.00  0.00    +0.000 A 
ATOM     10  C   UNL     1       3.647   3.817  19.804  0.00  0.00    +0.000 A 
ATOM     11  C   UNL     1       2.933   5.010  19.733  0.00  0.00    +0.000 A 
ATOM     12  C   UNL     1       3.349   6.093  18.923  0.00  0.00    +0.000 A 
ATOM     13  C   UNL     1       4.551   5.930  18.170  0.00  0.00    +0.000 A 
ATOM     14  C   UNL     1       5.145   7.009  17.286  0.00  0.00    +0.000 C 
ENDBRANCH   1  12
BRANCH   5  15
ATOM     15  C   UNL     1       0.460   9.241  21.402  0.00  0.00    +0.000 C 
ATOM     16  N   UNL     1      -0.516   8.403  21.858  0.00  0.00    +0.000 N 
ATOM     17  O   UNL     1       0.787  10.235  22.051  0.00  0.00    +0.000 OA
ATOM     18  H   UNL     1      -0.972   7.774  21.204  0.00  0.00    +0.000 HD
ATOM     19  H   UNL     1      -1.051   8.734  22.651  0.00  0.00    +0.000 HD
ENDBRANCH   5  15
BRANCH   4  20
ATOM     20  N   UNL     1      -0.125  10.675  18.904  0.00  0.00    +0.000 N 
ATOM     21  H   UNL     1       0.145  11.301  19.670  0.00  0.00    +0.000 HD
BRANCH  20  22
ATOM     22  C   UNL     1      -1.582  10.588  18.815  0.00  0.00    +0.000 C 
ATOM     23  C   UNL     1      -2.237  11.972  18.958  0.00  0.00    +0.000 C 
ATOM     24  C   UNL     1      -3.717  11.947  18.584  0.00  0.00    +0.000 C 
ATOM     25  C   UNL     1      -3.922  11.411  17.171  0.00  0.00    +0.000 C 
ATOM     26  C   UNL     1      -3.329  10.012  17.028  0.00  0.00    +0.000 C 
ATOM     27  C   UNL     1      -1.862   9.993  17.418  0.00  0.00    +0.000 C 
BRANCH  25  28
ATOM     28  O   UNL     1      -5.308  11.374  16.860  0.00  0.00    +0.000 OA
ATOM     29  H   UNL     1      -5.811  11.480  17.685  0.00  0.00    +0.000 HD
ENDBRANCH  25  28
ENDBRANCH  20  22
ENDBRANCH   4  20
TORSDOF 5
ENDMDL
