MODEL 1
REMARK VINA RESULT:      -7.2      0.000      0.000
REMARK  Name = 
REMARK  4 active torsions:
REMARK  status: ('A' for Active; 'I' for Inactive)
REMARK    1  A    between atoms: C_1  and  C_2
REMARK    2  A    between atoms: C_2  and  C_3
REMARK    3  A    between atoms: C_6  and  O_7
REMARK    4  A    between atoms: C_18  and  C_19
REMARK                            x       y       z     vdW  Elec       q    Type
REMARK                         _______ _______ _______ _____ _____    ______ ____
ROOT
ATOM      1  C   UNL     1       0.906   2.850  20.232  0.00  0.00    +0.000 C 
ATOM      2  O   UNL     1       1.516   1.719  19.635  0.00  0.00    +0.000 OA
ATOM      3  C   UNL     1       1.699   1.761  18.232  0.00  0.00    +0.000 C 
ATOM      4  C   UNL     1       2.124   3.099  17.700  0.00  0.00    +0.000 C 
ATOM      5  C   UNL     1       2.019   4.260  18.378  0.00  0.00    +0.000 C 
ATOM      6  C   UNL     1       1.360   4.224  19.707  0.00  0.00    +0.000 C 
ATOM      7  N   UNL     1       1.113   5.274  20.435  0.00  0.00    +0.000 NA
ATOM      8  C   UNL     1       1.498   6.515  19.999  0.00  0.00    +0.000 C 
ATOM      9  C   UNL     1       2.152   6.711  18.842  0.00  0.00    +0.000 C 
ATOM     10  C   UNL     1       2.410   8.114  18.415  0.00  0.00    +0.000 C 
ATOM     11  O   UNL     1       2.979   8.363  17.356  0.00  0.00    +0.000 OA
ATOM     12  C   UNL     1       1.830   9.202  19.299  0.00  0.00    +0.000 C 
ATOM     13  O   UNL     1       1.914   8.846  20.668  0.00  0.00    +0.000 OA
ATOM     14  C   UNL     1       1.181   7.654  20.954  0.00  0.00    +0.000 C 
ATOM     15  C   UNL     1       2.566   5.594  17.926  0.00  0.00    +0.000 C 
ENDROOT
BRANCH  15  16
ATOM     16  C   UNL     1       4.089   5.503  17.790  0.00  0.00    +0.000 A 
ATOM     17  C   UNL     1       4.925   5.471  18.922  0.00  0.00    +0.000 A 
ATOM     18  C   UNL     1       6.300   5.283  18.779  0.00  0.00    +0.000 A 
ATOM     19  C   UNL     1       6.844   5.128  17.505  0.00  0.00    +0.000 A 
ATOM     20  F   UNL     1       8.165   4.918  17.397  0.00  0.00    +0.000 F 
ATOM     21  C   UNL     1       6.036   5.167  16.379  0.00  0.00    +0.000 A 
ATOM     22 BR   UNL     1       6.764   4.908  14.652  0.00  0.00    +0.000 Br
ATOM     23  C   UNL     1       4.659   5.365  16.512  0.00  0.00    +0.000 A 
ENDBRANCH  15  16
BRANCH   1  25
ATOM     24  C   UNL     1       2.668   2.465  22.040  0.00  0.00    +0.000 C 
ATOM     25  C   UNL     1       1.194   2.745  21.742  0.00  0.00    +0.000 C 
ENDBRANCH   1  25
BRANCH   4  26
ATOM     26  O   UNL     1       2.693   3.102  16.436  0.00  0.00    +0.000 OA
ATOM     27  H   UNL     1       2.348   3.859  15.928  0.00  0.00    +0.000 HD
ENDBRANCH   4  26
TORSDOF 3
ENDMDL
MODEL 2
REMARK VINA RESULT:      -7.1      1.255      1.549
REMARK  Name = 
REMARK  4 active torsions:
REMARK  status: ('A' for Active; 'I' for Inactive)
REMARK    1  A    between atoms: C_1  and  C_2
REMARK    2  A    between atoms: C_2  and  C_3
REMARK    3  A    between atoms: C_6  and  O_7
REMARK    4  A    between atoms: C_18  and  C_19
REMARK                            x       y       z     vdW  Elec       q    Type
REMARK                         _______ _______ _______ _____ _____    ______ ____
ROOT
ATOM      1  C   UNL     1       1.424   2.853  20.157  0.00  0.00    +0.000 C 
ATOM      2  O   UNL     1       2.086   1.849  19.407  0.00  0.00    +0.000 OA
ATOM      3  C   UNL     1       2.083   2.000  18.000  0.00  0.00    +0.000 C 
ATOM      4  C   UNL     1       2.270   3.412  17.525  0.00  0.00    +0.000 C 
ATOM      5  C   UNL     1       2.112   4.506  18.298  0.00  0.00    +0.000 C 
ATOM      6  C   UNL     1       1.636   4.304  19.688  0.00  0.00    +0.000 C 
ATOM      7  N   UNL     1       1.359   5.266  20.519  0.00  0.00    +0.000 NA
ATOM      8  C   UNL     1       1.530   6.571  20.137  0.00  0.00    +0.000 C 
ATOM      9  C   UNL     1       2.003   6.920  18.929  0.00  0.00    +0.000 C 
ATOM     10  C   UNL     1       2.031   8.369  18.583  0.00  0.00    +0.000 C 
ATOM     11  O   UNL     1       2.426   8.754  17.487  0.00  0.00    +0.000 OA
ATOM     12  C   UNL     1       1.440   9.316  19.610  0.00  0.00    +0.000 C 
ATOM     13  O   UNL     1       1.741   8.891  20.928  0.00  0.00    +0.000 OA
ATOM     14  C   UNL     1       1.201   7.598  21.207  0.00  0.00    +0.000 C 
ATOM     15  C   UNL     1       2.430   5.925  17.887  0.00  0.00    +0.000 C 
ENDROOT
BRANCH  15  16
ATOM     16  C   UNL     1       3.923   6.042  17.565  0.00  0.00    +0.000 A 
ATOM     17  C   UNL     1       4.369   6.562  16.336  0.00  0.00    +0.000 A 
ATOM     18  C   UNL     1       5.731   6.756  16.104  0.00  0.00    +0.000 A 
ATOM     19  C   UNL     1       6.651   6.430  17.099  0.00  0.00    +0.000 A 
ATOM     20  F   UNL     1       7.953   6.655  16.863  0.00  0.00    +0.000 F 
ATOM     21  C   UNL     1       6.229   5.906  18.312  0.00  0.00    +0.000 A 
ATOM     22 BR   UNL     1       7.470   5.508  19.683  0.00  0.00    +0.000 Br
ATOM     23  C   UNL     1       4.867   5.699  18.549  0.00  0.00    +0.000 A 
ENDBRANCH  15  16
BRANCH   1  25
ATOM     24  C   UNL     1       3.367   2.228  21.692  0.00  0.00    +0.000 C 
ATOM     25  C   UNL     1       1.913   2.694  21.609  0.00  0.00    +0.000 C 
ENDBRANCH   1  25
BRANCH   4  26
ATOM     26  O   UNL     1       2.668   3.567  16.206  0.00  0.00    +0.000 OA
ATOM     27  H   UNL     1       2.302   2.840  15.670  0.00  0.00    +0.000 HD
ENDBRANCH   4  26
TORSDOF 3
ENDMDL
MODEL 3
REMARK VINA RESULT:      -6.7      7.878     10.758
REMARK  Name = 
REMARK  4 active torsions:
REMARK  status: ('A' for Active; 'I' for Inactive)
REMARK    1  A    between atoms: C_1  and  C_2
REMARK    2  A    between atoms: C_2  and  C_3
REMARK    3  A    between atoms: C_6  and  O_7
REMARK    4  A    between atoms: C_18  and  C_19
REMARK                            x       y       z     vdW  Elec       q    Type
REMARK                         _______ _______ _______ _____ _____    ______ ____
ROOT
ATOM      1  C   UNL     1      -6.157  13.167  22.470  0.00  0.00    +0.000 C 
ATOM      2  O   UNL     1      -6.361  12.159  21.496  0.00  0.00    +0.000 OA
ATOM      3  C   UNL     1      -5.588  12.252  20.313  0.00  0.00    +0.000 C 
ATOM      4  C   UNL     1      -4.167  12.684  20.530  0.00  0.00    +0.000 C 
ATOM      5  C   UNL     1      -3.711  13.273  21.654  0.00  0.00    +0.000 C 
ATOM      6  C   UNL     1      -4.698  13.593  22.714  0.00  0.00    +0.000 C 
ATOM      7  N   UNL     1      -4.419  14.233  23.812  0.00  0.00    +0.000 NA
ATOM      8  C   UNL     1      -3.132  14.634  24.063  0.00  0.00    +0.000 C 
ATOM      9  C   UNL     1      -2.112  14.374  23.227  0.00  0.00    +0.000 C 
ATOM     10  C   UNL     1      -0.783  14.964  23.546  0.00  0.00    +0.000 C 
ATOM     11  O   UNL     1       0.185  14.788  22.810  0.00  0.00    +0.000 OA
ATOM     12  C   UNL     1      -0.725  15.878  24.755  0.00  0.00    +0.000 C 
ATOM     13  O   UNL     1      -1.563  15.402  25.794  0.00  0.00    +0.000 OA
ATOM     14  C   UNL     1      -2.931  15.343  25.391  0.00  0.00    +0.000 C 
ATOM     15  C   UNL     1      -2.263  13.589  21.955  0.00  0.00    +0.000 C 
ENDROOT
BRANCH  15  16
ATOM     16  C   UNL     1      -1.453  12.289  21.988  0.00  0.00    +0.000 A 
ATOM     17  C   UNL     1      -1.532  11.404  23.079  0.00  0.00    +0.000 A 
ATOM     18  C   UNL     1      -0.866  10.178  23.043  0.00  0.00    +0.000 A 
ATOM     19  C   UNL     1      -0.120   9.833  21.918  0.00  0.00    +0.000 A 
ATOM     20  F   UNL     1       0.485   8.636  21.895  0.00  0.00    +0.000 F 
ATOM     21  C   UNL     1      -0.023  10.699  20.839  0.00  0.00    +0.000 A 
ATOM     22 BR   UNL     1       0.949  10.215  19.289  0.00  0.00    +0.000 Br
ATOM     23  C   UNL     1      -0.678  11.933  20.870  0.00  0.00    +0.000 A 
ENDBRANCH  15  16
BRANCH   1  25
ATOM     24  C   UNL     1      -7.774  13.603  24.398  0.00  0.00    +0.000 C 
ATOM     25  C   UNL     1      -6.771  12.629  23.777  0.00  0.00    +0.000 C 
ENDBRANCH   1  25
BRANCH   4  26
ATOM     26  O   UNL     1      -3.280  12.413  19.499  0.00  0.00    +0.000 OA
ATOM     27  H   UNL     1      -2.685  13.174  19.376  0.00  0.00    +0.000 HD
ENDBRANCH   4  26
TORSDOF 3
ENDMDL
MODEL 4
REMARK VINA RESULT:      -6.6      5.582      8.349
REMARK  Name = 
REMARK  4 active torsions:
REMARK  status: ('A' for Active; 'I' for Inactive)
REMARK    1  A    between atoms: C_1  and  C_2
REMARK    2  A    between atoms: C_2  and  C_3
REMARK    3  A    between atoms: C_6  and  O_7
REMARK    4  A    between atoms: C_18  and  C_19
REMARK                            x       y       z     vdW  Elec       q    Type
REMARK                         _______ _______ _______ _____ _____    ______ ____
ROOT
ATOM      1  C   UNL     1      -4.253  12.384  19.389  0.00  0.00    +0.000 C 
ATOM      2  O   UNL     1      -4.531  11.199  18.664  0.00  0.00    +0.000 OA
ATOM      3  C   UNL     1      -3.626  10.859  17.629  0.00  0.00    +0.000 C 
ATOM      4  C   UNL     1      -2.183  11.111  17.958  0.00  0.00    +0.000 C 
ATOM      5  C   UNL     1      -1.754  11.897  18.966  0.00  0.00    +0.000 C 
ATOM      6  C   UNL     1      -2.777  12.631  19.750  0.00  0.00    +0.000 C 
ATOM      7  N   UNL     1      -2.509  13.487  20.693  0.00  0.00    +0.000 NA
ATOM      8  C   UNL     1      -1.207  13.737  21.040  0.00  0.00    +0.000 C 
ATOM      9  C   UNL     1      -0.166  13.114  20.461  0.00  0.00    +0.000 C 
ATOM     10  C   UNL     1       1.206  13.556  20.835  0.00  0.00    +0.000 C 
ATOM     11  O   UNL     1       2.200  13.048  20.324  0.00  0.00    +0.000 OA
ATOM     12  C   UNL     1       1.297  14.736  21.784  0.00  0.00    +0.000 C 
ATOM     13  O   UNL     1       0.273  14.683  22.762  0.00  0.00    +0.000 OA
ATOM     14  C   UNL     1      -1.028  14.731  22.175  0.00  0.00    +0.000 C 
ATOM     15  C   UNL     1      -0.317  12.055  19.406  0.00  0.00    +0.000 C 
ENDROOT
BRANCH  15  16
ATOM     16  C   UNL     1       0.226  10.702  19.876  0.00  0.00    +0.000 A 
ATOM     17  C   UNL     1      -0.200  10.121  21.085  0.00  0.00    +0.000 A 
ATOM     18  C   UNL     1       0.228   8.842  21.443  0.00  0.00    +0.000 A 
ATOM     19  C   UNL     1       1.082   8.140  20.594  0.00  0.00    +0.000 A 
ATOM     20  F   UNL     1       1.454   6.900  20.947  0.00  0.00    +0.000 F 
ATOM     21  C   UNL     1       1.519   8.702  19.404  0.00  0.00    +0.000 A 
ATOM     22 BR   UNL     1       2.639   7.733  18.226  0.00  0.00    +0.000 Br
ATOM     23  C   UNL     1       1.104   9.987  19.043  0.00  0.00    +0.000 A 
ENDBRANCH  15  16
BRANCH   1  25
ATOM     24  C   UNL     1      -6.530  11.833  20.405  0.00  0.00    +0.000 C 
ATOM     25  C   UNL     1      -5.102  12.309  20.673  0.00  0.00    +0.000 C 
ENDBRANCH   1  25
BRANCH   4  26
ATOM     26  O   UNL     1      -1.252  10.446  17.174  0.00  0.00    +0.000 OA
ATOM     27  H   UNL     1      -0.794   9.776  17.714  0.00  0.00    +0.000 HD
ENDBRANCH   4  26
TORSDOF 3
ENDMDL
MODEL 5
REMARK VINA RESULT:      -6.5      7.196     10.572
REMARK  Name = 
REMARK  4 active torsions:
REMARK  status: ('A' for Active; 'I' for Inactive)
REMARK    1  A    between atoms: C_1  and  C_2
REMARK    2  A    between atoms: C_2  and  C_3
REMARK    3  A    between atoms: C_6  and  O_7
REMARK    4  A    between atoms: C_18  and  C_19
REMARK                            x       y       z     vdW  Elec       q    Type
REMARK                         _______ _______ _______ _____ _____    ______ ____
ROOT
ATOM      1  C   UNL     1      -1.233  14.798  23.098  0.00  0.00    +0.000 C 
ATOM      2  O   UNL     1      -1.774  15.876  22.355  0.00  0.00    +0.000 OA
ATOM      3  C   UNL     1      -1.242  16.087  21.061  0.00  0.00    +0.000 C 
ATOM      4  C   UNL     1      -0.960  14.830  20.291  0.00  0.00    +0.000 C 
ATOM      5  C   UNL     1      -0.868  13.601  20.841  0.00  0.00    +0.000 C 
ATOM      6  C   UNL     1      -0.968  13.498  22.317  0.00  0.00    +0.000 C 
ATOM      7  N   UNL     1      -0.815  12.396  22.991  0.00  0.00    +0.000 NA
ATOM      8  C   UNL     1      -0.572  11.218  22.331  0.00  0.00    +0.000 C 
ATOM      9  C   UNL     1      -0.505  11.134  20.991  0.00  0.00    +0.000 C 
ATOM     10  C   UNL     1      -0.115   9.827  20.394  0.00  0.00    +0.000 C 
ATOM     11  O   UNL     1      -0.009   9.689  19.179  0.00  0.00    +0.000 OA
ATOM     12  C   UNL     1       0.251   8.725  21.370  0.00  0.00    +0.000 C 
ATOM     13  O   UNL     1      -0.576   8.766  22.519  0.00  0.00    +0.000 OA
ATOM     14  C   UNL     1      -0.444   9.999  23.228  0.00  0.00    +0.000 C 
ATOM     15  C   UNL     1      -0.726  12.305  20.076  0.00  0.00    +0.000 C 
ENDROOT
BRANCH  15  16
ATOM     16  C   UNL     1      -1.951  12.104  19.179  0.00  0.00    +0.000 A 
ATOM     17  C   UNL     1      -1.817  11.743  17.826  0.00  0.00    +0.000 A 
ATOM     18  C   UNL     1      -2.947  11.464  17.055  0.00  0.00    +0.000 A 
ATOM     19  C   UNL     1      -4.212  11.545  17.633  0.00  0.00    +0.000 A 
ATOM     20  F   UNL     1      -5.279  11.242  16.879  0.00  0.00    +0.000 F 
ATOM     21  C   UNL     1      -4.361  11.909  18.963  0.00  0.00    +0.000 A 
ATOM     22 BR   UNL     1      -6.074  11.974  19.765  0.00  0.00    +0.000 Br
ATOM     23  C   UNL     1      -3.237  12.201  19.740  0.00  0.00    +0.000 A 
ENDBRANCH  15  16
BRANCH   1  25
ATOM     24  C   UNL     1      -1.908  15.338  25.501  0.00  0.00    +0.000 C 
ATOM     25  C   UNL     1      -2.226  14.527  24.244  0.00  0.00    +0.000 C 
ENDBRANCH   1  25
BRANCH   4  26
ATOM     26  O   UNL     1      -0.824  14.969  18.918  0.00  0.00    +0.000 OA
ATOM     27  H   UNL     1      -1.270  14.226  18.472  0.00  0.00    +0.000 HD
ENDBRANCH   4  26
TORSDOF 3
ENDMDL
MODEL 6
REMARK VINA RESULT:      -6.4      6.930     10.394
REMARK  Name = 
REMARK  4 active torsions:
REMARK  status: ('A' for Active; 'I' for Inactive)
REMARK    1  A    between atoms: C_1  and  C_2
REMARK    2  A    between atoms: C_2  and  C_3
REMARK    3  A    between atoms: C_6  and  O_7
REMARK    4  A    between atoms: C_18  and  C_19
REMARK                            x       y       z     vdW  Elec       q    Type
REMARK                         _______ _______ _______ _____ _____    ______ ____
ROOT
ATOM      1  C   UNL     1      -1.242  14.745  23.148  0.00  0.00    +0.000 C 
ATOM      2  O   UNL     1      -1.846  15.801  22.421  0.00  0.00    +0.000 OA
ATOM      3  C   UNL     1      -1.398  15.996  21.092  0.00  0.00    +0.000 C 
ATOM      4  C   UNL     1      -1.142  14.729  20.329  0.00  0.00    +0.000 C 
ATOM      5  C   UNL     1      -0.996  13.513  20.893  0.00  0.00    +0.000 C 
ATOM      6  C   UNL     1      -1.003  13.435  22.374  0.00  0.00    +0.000 C 
ATOM      7  N   UNL     1      -0.791  12.348  23.056  0.00  0.00    +0.000 NA
ATOM      8  C   UNL     1      -0.569  11.163  22.403  0.00  0.00    +0.000 C 
ATOM      9  C   UNL     1      -0.583  11.055  21.064  0.00  0.00    +0.000 C 
ATOM     10  C   UNL     1      -0.209   9.744  20.467  0.00  0.00    +0.000 C 
ATOM     11  O   UNL     1      -0.176   9.585  19.250  0.00  0.00    +0.000 OA
ATOM     12  C   UNL     1       0.235   8.665  21.437  0.00  0.00    +0.000 C 
ATOM     13  O   UNL     1      -0.521   8.715  22.634  0.00  0.00    +0.000 OA
ATOM     14  C   UNL     1      -0.366   9.962  23.312  0.00  0.00    +0.000 C 
ATOM     15  C   UNL     1      -0.880  12.206  20.144  0.00  0.00    +0.000 C 
ENDROOT
BRANCH  15  16
ATOM     16  C   UNL     1      -2.155  11.968  19.328  0.00  0.00    +0.000 A 
ATOM     17  C   UNL     1      -3.423  12.300  19.839  0.00  0.00    +0.000 A 
ATOM     18  C   UNL     1      -4.561  12.172  19.040  0.00  0.00    +0.000 A 
ATOM     19  C   UNL     1      -4.434  11.713  17.730  0.00  0.00    +0.000 A 
ATOM     20  F   UNL     1      -5.539  11.629  16.974  0.00  0.00    +0.000 F 
ATOM     21  C   UNL     1      -3.192  11.373  17.216  0.00  0.00    +0.000 A 
ATOM     22 BR   UNL     1      -3.009  10.795  15.423  0.00  0.00    +0.000 Br
ATOM     23  C   UNL     1      -2.049  11.487  18.011  0.00  0.00    +0.000 A 
ENDBRANCH  15  16
BRANCH   1  25
ATOM     24  C   UNL     1      -1.805  15.351  25.564  0.00  0.00    +0.000 C 
ATOM     25  C   UNL     1      -2.158  14.480  24.357  0.00  0.00    +0.000 C 
ENDBRANCH   1  25
BRANCH   4  26
ATOM     26  O   UNL     1      -1.094  14.846  18.948  0.00  0.00    +0.000 OA
ATOM     27  H   UNL     1      -0.443  14.213  18.592  0.00  0.00    +0.000 HD
ENDBRANCH   4  26
TORSDOF 3
ENDMDL
MODEL 7
REMARK VINA RESULT:      -6.4      7.106      9.606
REMARK  Name = 
REMARK  4 active torsions:
REMARK  status: ('A' for Active; 'I' for Inactive)
REMARK    1  A    between atoms: C_1  and  C_2
REMARK    2  A    between atoms: C_2  and  C_3
REMARK    3  A    between atoms: C_6  and  O_7
REMARK    4  A    between atoms: C_18  and  C_19
REMARK                            x       y       z     vdW  Elec       q    Type
REMARK                         _______ _______ _______ _____ _____    ______ ____
ROOT
ATOM      1  C   UNL     1       1.362  15.442  19.711  0.00  0.00    +0.000 C 
ATOM      2  O   UNL     1       1.764  15.493  18.353  0.00  0.00    +0.000 OA
ATOM      3  C   UNL     1       2.516  14.394  17.871  0.00  0.00    +0.000 C 
ATOM      4  C   UNL     1       2.057  13.057  18.376  0.00  0.00    +0.000 C 
ATOM      5  C   UNL     1       1.254  12.877  19.444  0.00  0.00    +0.000 C 
ATOM      6  C   UNL     1       0.866  14.078  20.224  0.00  0.00    +0.000 C 
ATOM      7  N   UNL     1       0.167  14.050  21.321  0.00  0.00    +0.000 NA
ATOM      8  C   UNL     1      -0.288  12.853  21.812  0.00  0.00    +0.000 C 
ATOM      9  C   UNL     1      -0.067  11.681  21.195  0.00  0.00    +0.000 C 
ATOM     10  C   UNL     1      -0.504  10.436  21.885  0.00  0.00    +0.000 C 
ATOM     11  O   UNL     1      -0.309   9.330  21.389  0.00  0.00    +0.000 OA
ATOM     12  C   UNL     1      -1.092  10.609  23.273  0.00  0.00    +0.000 C 
ATOM     13  O   UNL     1      -1.882  11.783  23.349  0.00  0.00    +0.000 OA
ATOM     14  C   UNL     1      -1.117  12.958  23.081  0.00  0.00    +0.000 C 
ATOM     15  C   UNL     1       0.664  11.558  19.888  0.00  0.00    +0.000 C 
ENDROOT
BRANCH  15  16
ATOM     16  C   UNL     1      -0.237  11.003  18.780  0.00  0.00    +0.000 A 
ATOM     17  C   UNL     1       0.152   9.894  18.006  0.00  0.00    +0.000 A 
ATOM     18  C   UNL     1      -0.727   9.340  17.074  0.00  0.00    +0.000 A 
ATOM     19  C   UNL     1      -1.996   9.893  16.913  0.00  0.00    +0.000 A 
ATOM     20  F   UNL     1      -2.833   9.324  16.033  0.00  0.00    +0.000 F 
ATOM     21  C   UNL     1      -2.391  10.992  17.661  0.00  0.00    +0.000 A 
ATOM     22 BR   UNL     1      -4.130  11.716  17.480  0.00  0.00    +0.000 Br
ATOM     23  C   UNL     1      -1.513  11.560  18.589  0.00  0.00    +0.000 A 
ENDBRANCH  15  16
BRANCH   1  25
ATOM     24  C   UNL     1      -0.585  16.663  18.596  0.00  0.00    +0.000 C 
ATOM     25  C   UNL     1       0.249  16.496  19.867  0.00  0.00    +0.000 C 
ENDBRANCH   1  25
BRANCH   4  26
ATOM     26  O   UNL     1       2.478  11.952  17.651  0.00  0.00    +0.000 OA
ATOM     27  H   UNL     1       2.636  12.213  16.725  0.00  0.00    +0.000 HD
ENDBRANCH   4  26
TORSDOF 3
ENDMDL
MODEL 8
REMARK VINA RESULT:      -6.3      9.426     11.954
REMARK  Name = 
REMARK  4 active torsions:
REMARK  status: ('A' for Active; 'I' for Inactive)
REMARK    1  A    between atoms: C_1  and  C_2
REMARK    2  A    between atoms: C_2  and  C_3
REMARK    3  A    between atoms: C_6  and  O_7
REMARK    4  A    between atoms: C_18  and  C_19
REMARK                            x       y       z     vdW  Elec       q    Type
REMARK                         _______ _______ _______ _____ _____    ______ ____
ROOT
ATOM      1  C   UNL     1      10.013  11.966  20.407  0.00  0.00    +0.000 C 
ATOM      2  O   UNL     1       8.957  11.375  21.144  0.00  0.00    +0.000 OA
ATOM      3  C   UNL     1       8.263  12.216  22.047  0.00  0.00    +0.000 C 
ATOM      4  C   UNL     1       8.018  13.607  21.538  0.00  0.00    +0.000 C 
ATOM      5  C   UNL     1       8.666  14.165  20.495  0.00  0.00    +0.000 C 
ATOM      6  C   UNL     1       9.754  13.382  19.862  0.00  0.00    +0.000 C 
ATOM      7  N   UNL     1      10.519  13.822  18.905  0.00  0.00    +0.000 NA
ATOM      8  C   UNL     1      10.323  15.080  18.397  0.00  0.00    +0.000 C 
ATOM      9  C   UNL     1       9.344  15.895  18.826  0.00  0.00    +0.000 C 
ATOM     10  C   UNL     1       9.305  17.282  18.285  0.00  0.00    +0.000 C 
ATOM     11  O   UNL     1       8.454  18.086  18.655  0.00  0.00    +0.000 OA
ATOM     12  C   UNL     1      10.435  17.671  17.351  0.00  0.00    +0.000 C 
ATOM     13  O   UNL     1      10.799  16.588  16.512  0.00  0.00    +0.000 OA
ATOM     14  C   UNL     1      11.259  15.464  17.264  0.00  0.00    +0.000 C 
ATOM     15  C   UNL     1       8.342  15.505  19.875  0.00  0.00    +0.000 C 
ENDROOT
BRANCH  15  16
ATOM     16  C   UNL     1       6.915  15.479  19.319  0.00  0.00    +0.000 A 
ATOM     17  C   UNL     1       6.563  14.643  18.242  0.00  0.00    +0.000 A 
ATOM     18  C   UNL     1       5.236  14.559  17.819  0.00  0.00    +0.000 A 
ATOM     19  C   UNL     1       4.258  15.309  18.469  0.00  0.00    +0.000 A 
ATOM     20  F   UNL     1       2.985  15.187  18.062  0.00  0.00    +0.000 F 
ATOM     21  C   UNL     1       4.590  16.145  19.524  0.00  0.00    +0.000 A 
ATOM     22 BR   UNL     1       3.257  17.128  20.440  0.00  0.00    +0.000 Br
ATOM     23  C   UNL     1       5.918  16.244  19.948  0.00  0.00    +0.000 A 
ENDBRANCH  15  16
BRANCH   1  25
ATOM     24  C   UNL     1       9.045  10.508  18.547  0.00  0.00    +0.000 C 
ATOM     25  C   UNL     1      10.314  11.002  19.243  0.00  0.00    +0.000 C 
ENDBRANCH   1  25
BRANCH   4  26
ATOM     26  O   UNL     1       7.026  14.329  22.184  0.00  0.00    +0.000 OA
ATOM     27  H   UNL     1       7.401  14.760  22.974  0.00  0.00    +0.000 HD
ENDBRANCH   4  26
TORSDOF 3
ENDMDL
MODEL 9
REMARK VINA RESULT:      -6.3      3.264      5.447
REMARK  Name = 
REMARK  4 active torsions:
REMARK  status: ('A' for Active; 'I' for Inactive)
REMARK    1  A    between atoms: C_1  and  C_2
REMARK    2  A    between atoms: C_2  and  C_3
REMARK    3  A    between atoms: C_6  and  O_7
REMARK    4  A    between atoms: C_18  and  C_19
REMARK                            x       y       z     vdW  Elec       q    Type
REMARK                         _______ _______ _______ _____ _____    ______ ____
ROOT
ATOM      1  C   UNL     1       5.983   6.280  16.508  0.00  0.00    +0.000 C 
ATOM      2  O   UNL     1       6.496   4.966  16.645  0.00  0.00    +0.000 OA
ATOM      3  C   UNL     1       6.638   4.473  17.964  0.00  0.00    +0.000 C 
ATOM      4  C   UNL     1       5.519   4.846  18.892  0.00  0.00    +0.000 C 
ATOM      5  C   UNL     1       4.627   5.830  18.657  0.00  0.00    +0.000 C 
ATOM      6  C   UNL     1       4.817   6.656  17.440  0.00  0.00    +0.000 C 
ATOM      7  N   UNL     1       4.089   7.689  17.129  0.00  0.00    +0.000 NA
ATOM      8  C   UNL     1       3.045   8.059  17.937  0.00  0.00    +0.000 C 
ATOM      9  C   UNL     1       2.709   7.382  19.048  0.00  0.00    +0.000 C 
ATOM     10  C   UNL     1       1.635   7.948  19.910  0.00  0.00    +0.000 C 
ATOM     11  O   UNL     1       1.297   7.395  20.953  0.00  0.00    +0.000 OA
ATOM     12  C   UNL     1       1.072   9.292  19.487  0.00  0.00    +0.000 C 
ATOM     13  O   UNL     1       0.978   9.384  18.076  0.00  0.00    +0.000 OA
ATOM     14  C   UNL     1       2.254   9.260  17.448  0.00  0.00    +0.000 C 
ATOM     15  C   UNL     1       3.411   6.134  19.502  0.00  0.00    +0.000 C 
ENDROOT
BRANCH  15  16
ATOM     16  C   UNL     1       2.474   4.922  19.503  0.00  0.00    +0.000 A 
ATOM     17  C   UNL     1       1.921   4.422  18.310  0.00  0.00    +0.000 A 
ATOM     18  C   UNL     1       1.155   3.256  18.321  0.00  0.00    +0.000 A 
ATOM     19  C   UNL     1       0.938   2.587  19.524  0.00  0.00    +0.000 A 
ATOM     20  F   UNL     1       0.224   1.452  19.503  0.00  0.00    +0.000 F 
ATOM     21  C   UNL     1       1.468   3.072  20.711  0.00  0.00    +0.000 A 
ATOM     22 BR   UNL     1       1.217   2.140  22.338  0.00  0.00    +0.000 Br
ATOM     23  C   UNL     1       2.228   4.244  20.710  0.00  0.00    +0.000 A 
ENDBRANCH  15  16
BRANCH   1  25
ATOM     24  C   UNL     1       5.568   5.082  14.291  0.00  0.00    +0.000 C 
ATOM     25  C   UNL     1       5.544   6.417  15.038  0.00  0.00    +0.000 C 
ENDBRANCH   1  25
BRANCH   4  26
ATOM     26  O   UNL     1       5.399   4.084  20.044  0.00  0.00    +0.000 OA
ATOM     27  H   UNL     1       4.488   3.747  20.116  0.00  0.00    +0.000 HD
ENDBRANCH   4  26
TORSDOF 3
ENDMDL
