MODEL 1
REMARK VINA RESULT:      -8.5      0.000      0.000
REMARK  Name = 
REMARK  6 active torsions:
REMARK  status: ('A' for Active; 'I' for Inactive)
REMARK    1  A    between atoms: C_1  and  C_2
REMARK    2  A    between atoms: C_2  and  C_3
REMARK    3  A    between atoms: C_2  and  C_4
REMARK    4  A    between atoms: C_7  and  O_8
REMARK    5  A    between atoms: O_8  and  C_9
REMARK    6  A    between atoms: C_9  and  C_10
REMARK                            x       y       z     vdW  Elec       q    Type
REMARK                         _______ _______ _______ _____ _____    ______ ____
ROOT
ATOM      1  C   UNL     1       6.270   4.125  14.335  0.00  0.00    +0.000 A 
ATOM      2  N   UNL     1       5.167   4.374  15.020  0.00  0.00    +0.000 NA
ATOM      3  C   UNL     1       5.587   4.726  16.288  0.00  0.00    +0.000 A 
ATOM      4  C   UNL     1       4.944   5.114  17.464  0.00  0.00    +0.000 A 
ATOM      5  N   UNL     1       5.690   5.399  18.566  0.00  0.00    +0.000 NA
ATOM      6  C   UNL     1       7.024   5.292  18.494  0.00  0.00    +0.000 A 
ATOM      7  N   UNL     1       7.721   5.599  19.647  0.00  0.00    +0.000 N 
ATOM      8  N   UNL     1       7.745   4.968  17.413  0.00  0.00    +0.000 NA
ATOM      9  C   UNL     1       6.967   4.690  16.360  0.00  0.00    +0.000 A 
ATOM     10  N   UNL     1       7.384   4.310  15.119  0.00  0.00    +0.000 N 
ATOM     11  H   UNL     1       7.151   6.181  20.245  0.00  0.00    +0.000 HD
ATOM     12  H   UNL     1       8.646   5.928  19.418  0.00  0.00    +0.000 HD
ATOM     13  H   UNL     1       8.347   4.190  14.842  0.00  0.00    +0.000 HD
ENDROOT
BRANCH   1  15
ATOM     14  C   UNL     1       4.984   3.594  12.271  0.00  0.00    +0.000 C 
ATOM     15  C   UNL     1       6.370   3.700  12.900  0.00  0.00    +0.000 C 
ATOM     16  C   UNL     1       7.255   4.665  12.114  0.00  0.00    +0.000 C 
ENDBRANCH   1  15
BRANCH   4  17
ATOM     17  O   UNL     1       3.563   5.185  17.541  0.00  0.00    +0.000 OA
BRANCH  17  18
ATOM     18  C   UNL     1       2.980   3.919  17.868  0.00  0.00    +0.000 C 
BRANCH  18  19
ATOM     19  C   UNL     1       1.586   4.130  18.489  0.00  0.00    +0.000 C 
ATOM     20  C   UNL     1       0.960   2.812  18.978  0.00  0.00    +0.000 C 
ATOM     21  C   UNL     1       1.668   2.241  20.206  0.00  0.00    +0.000 C 
ATOM     22  C   UNL     1       1.749   3.260  21.340  0.00  0.00    +0.000 C 
ATOM     23  C   UNL     1       2.348   4.590  20.886  0.00  0.00    +0.000 C 
ATOM     24  C   UNL     1       1.644   5.141  19.646  0.00  0.00    +0.000 C 
ENDBRANCH  18  19
ENDBRANCH  17  18
ENDBRANCH   4  17
TORSDOF 4
ENDMDL
MODEL 2
REMARK VINA RESULT:      -8.5      0.919      1.311
REMARK  Name = 
REMARK  6 active torsions:
REMARK  status: ('A' for Active; 'I' for Inactive)
REMARK    1  A    between atoms: C_1  and  C_2
REMARK    2  A    between atoms: C_2  and  C_3
REMARK    3  A    between atoms: C_2  and  C_4
REMARK    4  A    between atoms: C_7  and  O_8
REMARK    5  A    between atoms: O_8  and  C_9
REMARK    6  A    between atoms: C_9  and  C_10
REMARK                            x       y       z     vdW  Elec       q    Type
REMARK                         _______ _______ _______ _____ _____    ______ ____
ROOT
ATOM      1  C   UNL     1       6.488   4.346  15.025  0.00  0.00    +0.000 A 
ATOM      2  N   UNL     1       5.438   4.769  15.707  0.00  0.00    +0.000 NA
ATOM      3  C   UNL     1       5.897   5.011  16.987  0.00  0.00    +0.000 A 
ATOM      4  C   UNL     1       5.317   5.478  18.167  0.00  0.00    +0.000 A 
ATOM      5  N   UNL     1       6.088   5.600  19.282  0.00  0.00    +0.000 NA
ATOM      6  C   UNL     1       7.383   5.262  19.218  0.00  0.00    +0.000 A 
ATOM      7  N   UNL     1       8.108   5.413  20.384  0.00  0.00    +0.000 N 
ATOM      8  N   UNL     1       8.049   4.842  18.135  0.00  0.00    +0.000 NA
ATOM      9  C   UNL     1       7.248   4.730  17.069  0.00  0.00    +0.000 A 
ATOM     10  N   UNL     1       7.608   4.313  15.822  0.00  0.00    +0.000 N 
ATOM     11  H   UNL     1       7.643   6.072  20.992  0.00  0.00    +0.000 HD
ATOM     12  H   UNL     1       9.080   5.580  20.172  0.00  0.00    +0.000 HD
ATOM     13  H   UNL     1       8.538   4.032  15.550  0.00  0.00    +0.000 HD
ENDROOT
BRANCH   1  15
ATOM     14  C   UNL     1       5.119   3.840  13.008  0.00  0.00    +0.000 C 
ATOM     15  C   UNL     1       6.530   3.944  13.580  0.00  0.00    +0.000 C 
ATOM     16  C   UNL     1       7.375   4.928  12.773  0.00  0.00    +0.000 C 
ENDBRANCH   1  15
BRANCH   4  17
ATOM     17  O   UNL     1       3.969   5.789  18.235  0.00  0.00    +0.000 OA
BRANCH  17  18
ATOM     18  C   UNL     1       3.357   5.264  19.417  0.00  0.00    +0.000 C 
BRANCH  18  19
ATOM     19  C   UNL     1       1.860   5.008  19.162  0.00  0.00    +0.000 C 
ATOM     20  C   UNL     1       1.615   4.237  17.853  0.00  0.00    +0.000 C 
ATOM     21  C   UNL     1       2.081   2.783  17.927  0.00  0.00    +0.000 C 
ATOM     22  C   UNL     1       1.466   2.050  19.115  0.00  0.00    +0.000 C 
ATOM     23  C   UNL     1       1.672   2.796  20.432  0.00  0.00    +0.000 C 
ATOM     24  C   UNL     1       1.220   4.254  20.339  0.00  0.00    +0.000 C 
ENDBRANCH  18  19
ENDBRANCH  17  18
ENDBRANCH   4  17
TORSDOF 4
ENDMDL
MODEL 3
REMARK VINA RESULT:      -8.5      0.747      1.050
REMARK  Name = 
REMARK  6 active torsions:
REMARK  status: ('A' for Active; 'I' for Inactive)
REMARK    1  A    between atoms: C_1  and  C_2
REMARK    2  A    between atoms: C_2  and  C_3
REMARK    3  A    between atoms: C_2  and  C_4
REMARK    4  A    between atoms: C_7  and  O_8
REMARK    5  A    between atoms: O_8  and  C_9
REMARK    6  A    between atoms: C_9  and  C_10
REMARK                            x       y       z     vdW  Elec       q    Type
REMARK                         _______ _______ _______ _____ _____    ______ ____
ROOT
ATOM      1  C   UNL     1       6.281   4.092  14.367  0.00  0.00    +0.000 A 
ATOM      2  N   UNL     1       5.187   4.359  15.059  0.00  0.00    +0.000 NA
ATOM      3  C   UNL     1       5.622   4.712  16.322  0.00  0.00    +0.000 A 
ATOM      4  C   UNL     1       4.993   5.114  17.501  0.00  0.00    +0.000 A 
ATOM      5  N   UNL     1       5.752   5.394  18.596  0.00  0.00    +0.000 NA
ATOM      6  C   UNL     1       7.084   5.270  18.514  0.00  0.00    +0.000 A 
ATOM      7  N   UNL     1       7.793   5.573  19.660  0.00  0.00    +0.000 N 
ATOM      8  N   UNL     1       7.791   4.931  17.428  0.00  0.00    +0.000 NA
ATOM      9  C   UNL     1       7.002   4.657  16.383  0.00  0.00    +0.000 A 
ATOM     10  N   UNL     1       7.404   4.266  15.141  0.00  0.00    +0.000 N 
ATOM     11  H   UNL     1       7.236   6.165  20.259  0.00  0.00    +0.000 HD
ATOM     12  H   UNL     1       8.721   5.889  19.422  0.00  0.00    +0.000 HD
ATOM     13  H   UNL     1       8.363   4.132  14.857  0.00  0.00    +0.000 HD
ENDROOT
BRANCH   1  15
ATOM     14  C   UNL     1       4.978   3.631  12.296  0.00  0.00    +0.000 C 
ATOM     15  C   UNL     1       6.365   3.659  12.934  0.00  0.00    +0.000 C 
ATOM     16  C   UNL     1       7.307   4.570  12.150  0.00  0.00    +0.000 C 
ENDBRANCH   1  15
BRANCH   4  17
ATOM     17  O   UNL     1       3.614   5.203  17.588  0.00  0.00    +0.000 OA
BRANCH  17  18
ATOM     18  C   UNL     1       3.131   4.792  18.872  0.00  0.00    +0.000 C 
BRANCH  18  19
ATOM     19  C   UNL     1       2.699   3.315  18.820  0.00  0.00    +0.000 C 
ATOM     20  C   UNL     1       3.383   2.468  19.908  0.00  0.00    +0.000 C 
ATOM     21  C   UNL     1       2.882   2.798  21.314  0.00  0.00    +0.000 C 
ATOM     22  C   UNL     1       1.363   2.694  21.415  0.00  0.00    +0.000 C 
ATOM     23  C   UNL     1       0.649   3.506  20.337  0.00  0.00    +0.000 C 
ATOM     24  C   UNL     1       1.172   3.181  18.937  0.00  0.00    +0.000 C 
ENDBRANCH  18  19
ENDBRANCH  17  18
ENDBRANCH   4  17
TORSDOF 4
ENDMDL
MODEL 4
REMARK VINA RESULT:      -8.4      1.179      1.489
REMARK  Name = 
REMARK  6 active torsions:
REMARK  status: ('A' for Active; 'I' for Inactive)
REMARK    1  A    between atoms: C_1  and  C_2
REMARK    2  A    between atoms: C_2  and  C_3
REMARK    3  A    between atoms: C_2  and  C_4
REMARK    4  A    between atoms: C_7  and  O_8
REMARK    5  A    between atoms: O_8  and  C_9
REMARK    6  A    between atoms: C_9  and  C_10
REMARK                            x       y       z     vdW  Elec       q    Type
REMARK                         _______ _______ _______ _____ _____    ______ ____
ROOT
ATOM      1  C   UNL     1       6.126   4.079  13.505  0.00  0.00    +0.000 A 
ATOM      2  N   UNL     1       5.375   3.666  14.512  0.00  0.00    +0.000 NA
ATOM      3  C   UNL     1       5.836   4.344  15.623  0.00  0.00    +0.000 A 
ATOM      4  C   UNL     1       5.477   4.381  16.971  0.00  0.00    +0.000 A 
ATOM      5  N   UNL     1       6.167   5.191  17.820  0.00  0.00    +0.000 NA
ATOM      6  C   UNL     1       7.178   5.928  17.339  0.00  0.00    +0.000 A 
ATOM      7  N   UNL     1       7.833   6.730  18.253  0.00  0.00    +0.000 N 
ATOM      8  N   UNL     1       7.580   6.000  16.064  0.00  0.00    +0.000 NA
ATOM      9  C   UNL     1       6.879   5.181  15.271  0.00  0.00    +0.000 A 
ATOM     10  N   UNL     1       7.050   5.004  13.931  0.00  0.00    +0.000 N 
ATOM     11  H   UNL     1       7.235   6.896  19.050  0.00  0.00    +0.000 HD
ATOM     12  H   UNL     1       8.229   7.534  17.790  0.00  0.00    +0.000 HD
ATOM     13  H   UNL     1       7.739   5.476  13.366  0.00  0.00    +0.000 HD
ENDROOT
BRANCH   1  15
ATOM     14  C   UNL     1       6.973   2.470  11.803  0.00  0.00    +0.000 C 
ATOM     15  C   UNL     1       6.038   3.647  12.071  0.00  0.00    +0.000 C 
ATOM     16  C   UNL     1       4.598   3.295  11.703  0.00  0.00    +0.000 C 
ENDBRANCH   1  15
BRANCH   4  17
ATOM     17  O   UNL     1       4.457   3.587  17.467  0.00  0.00    +0.000 OA
BRANCH  17  18
ATOM     18  C   UNL     1       4.030   4.013  18.765  0.00  0.00    +0.000 C 
BRANCH  18  19
ATOM     19  C   UNL     1       2.691   4.766  18.655  0.00  0.00    +0.000 C 
ATOM     20  C   UNL     1       1.607   3.928  17.954  0.00  0.00    +0.000 C 
ATOM     21  C   UNL     1       1.131   2.749  18.802  0.00  0.00    +0.000 C 
ATOM     22  C   UNL     1       0.666   3.196  20.185  0.00  0.00    +0.000 C 
ATOM     23  C   UNL     1       1.710   4.048  20.904  0.00  0.00    +0.000 C 
ATOM     24  C   UNL     1       2.192   5.213  20.038  0.00  0.00    +0.000 C 
ENDBRANCH  18  19
ENDBRANCH  17  18
ENDBRANCH   4  17
TORSDOF 4
ENDMDL
MODEL 5
REMARK VINA RESULT:      -8.4      0.968      1.011
REMARK  Name = 
REMARK  6 active torsions:
REMARK  status: ('A' for Active; 'I' for Inactive)
REMARK    1  A    between atoms: C_1  and  C_2
REMARK    2  A    between atoms: C_2  and  C_3
REMARK    3  A    between atoms: C_2  and  C_4
REMARK    4  A    between atoms: C_7  and  O_8
REMARK    5  A    between atoms: O_8  and  C_9
REMARK    6  A    between atoms: C_9  and  C_10
REMARK                            x       y       z     vdW  Elec       q    Type
REMARK                         _______ _______ _______ _____ _____    ______ ____
ROOT
ATOM      1  C   UNL     1       6.021   4.003  13.801  0.00  0.00    +0.000 A 
ATOM      2  N   UNL     1       5.024   4.067  14.666  0.00  0.00    +0.000 NA
ATOM      3  C   UNL     1       5.498   4.814  15.727  0.00  0.00    +0.000 A 
ATOM      4  C   UNL     1       4.958   5.259  16.935  0.00  0.00    +0.000 A 
ATOM      5  N   UNL     1       5.731   6.002  17.773  0.00  0.00    +0.000 NA
ATOM      6  C   UNL     1       6.993   6.280  17.420  0.00  0.00    +0.000 A 
ATOM      7  N   UNL     1       7.721   7.040  18.315  0.00  0.00    +0.000 N 
ATOM      8  N   UNL     1       7.598   5.941  16.274  0.00  0.00    +0.000 NA
ATOM      9  C   UNL     1       6.802   5.206  15.488  0.00  0.00    +0.000 A 
ATOM     10  N   UNL     1       7.118   4.687  14.268  0.00  0.00    +0.000 N 
ATOM     11  H   UNL     1       7.092   7.551  18.919  0.00  0.00    +0.000 HD
ATOM     12  H   UNL     1       8.432   7.566  17.829  0.00  0.00    +0.000 HD
ATOM     13  H   UNL     1       8.008   4.796  13.804  0.00  0.00    +0.000 HD
ENDROOT
BRANCH   1  15
ATOM     14  C   UNL     1       4.663   3.411  11.800  0.00  0.00    +0.000 C 
ATOM     15  C   UNL     1       6.028   3.303  12.475  0.00  0.00    +0.000 C 
ATOM     16  C   UNL     1       7.127   3.864  11.576  0.00  0.00    +0.000 C 
ENDBRANCH   1  15
BRANCH   4  17
ATOM     17  O   UNL     1       3.665   4.933  17.310  0.00  0.00    +0.000 OA
BRANCH  17  18
ATOM     18  C   UNL     1       3.524   4.858  18.733  0.00  0.00    +0.000 C 
BRANCH  18  19
ATOM     19  C   UNL     1       2.034   4.937  19.115  0.00  0.00    +0.000 C 
ATOM     20  C   UNL     1       1.249   3.693  18.663  0.00  0.00    +0.000 C 
ATOM     21  C   UNL     1       1.618   2.441  19.458  0.00  0.00    +0.000 C 
ATOM     22  C   UNL     1       1.476   2.659  20.961  0.00  0.00    +0.000 C 
ATOM     23  C   UNL     1       2.226   3.899  21.444  0.00  0.00    +0.000 C 
ATOM     24  C   UNL     1       1.862   5.141  20.629  0.00  0.00    +0.000 C 
ENDBRANCH  18  19
ENDBRANCH  17  18
ENDBRANCH   4  17
TORSDOF 4
ENDMDL
MODEL 6
REMARK VINA RESULT:      -8.4      1.208      1.312
REMARK  Name = 
REMARK  6 active torsions:
REMARK  status: ('A' for Active; 'I' for Inactive)
REMARK    1  A    between atoms: C_1  and  C_2
REMARK    2  A    between atoms: C_2  and  C_3
REMARK    3  A    between atoms: C_2  and  C_4
REMARK    4  A    between atoms: C_7  and  O_8
REMARK    5  A    between atoms: O_8  and  C_9
REMARK    6  A    between atoms: C_9  and  C_10
REMARK                            x       y       z     vdW  Elec       q    Type
REMARK                         _______ _______ _______ _____ _____    ______ ____
ROOT
ATOM      1  C   UNL     1       6.383   4.056  14.178  0.00  0.00    +0.000 A 
ATOM      2  N   UNL     1       5.791   3.673  15.297  0.00  0.00    +0.000 NA
ATOM      3  C   UNL     1       6.230   4.550  16.270  0.00  0.00    +0.000 A 
ATOM      4  C   UNL     1       5.982   4.710  17.634  0.00  0.00    +0.000 A 
ATOM      5  N   UNL     1       6.604   5.715  18.308  0.00  0.00    +0.000 NA
ATOM      6  C   UNL     1       7.444   6.522  17.645  0.00  0.00    +0.000 A 
ATOM      7  N   UNL     1       8.038   7.523  18.388  0.00  0.00    +0.000 N 
ATOM      8  N   UNL     1       7.724   6.485  16.336  0.00  0.00    +0.000 NA
ATOM      9  C   UNL     1       7.096   5.477  15.719  0.00  0.00    +0.000 A 
ATOM     10  N   UNL     1       7.182   5.153  14.398  0.00  0.00    +0.000 N 
ATOM     11  H   UNL     1       7.490   7.703  19.218  0.00  0.00    +0.000 HD
ATOM     12  H   UNL     1       8.264   8.309  17.798  0.00  0.00    +0.000 HD
ATOM     13  H   UNL     1       7.740   5.643  13.715  0.00  0.00    +0.000 HD
ENDROOT
BRANCH   1  15
ATOM     14  C   UNL     1       4.799   3.506  12.337  0.00  0.00    +0.000 C 
ATOM     15  C   UNL     1       6.245   3.433  12.821  0.00  0.00    +0.000 C 
ATOM     16  C   UNL     1       7.189   4.102  11.824  0.00  0.00    +0.000 C 
ENDBRANCH   1  15
BRANCH   4  17
ATOM     17  O   UNL     1       5.143   3.847  18.320  0.00  0.00    +0.000 OA
BRANCH  17  18
ATOM     18  C   UNL     1       3.918   4.482  18.698  0.00  0.00    +0.000 C 
BRANCH  18  19
ATOM     19  C   UNL     1       2.754   3.479  18.592  0.00  0.00    +0.000 C 
ATOM     20  C   UNL     1       2.953   2.256  19.505  0.00  0.00    +0.000 C 
ATOM     21  C   UNL     1       2.818   2.598  20.989  0.00  0.00    +0.000 C 
ATOM     22  C   UNL     1       1.496   3.297  21.292  0.00  0.00    +0.000 C 
ATOM     23  C   UNL     1       1.254   4.505  20.390  0.00  0.00    +0.000 C 
ATOM     24  C   UNL     1       1.410   4.154  18.910  0.00  0.00    +0.000 C 
ENDBRANCH  18  19
ENDBRANCH  17  18
ENDBRANCH   4  17
TORSDOF 4
ENDMDL
MODEL 7
REMARK VINA RESULT:      -8.3      1.161      1.751
REMARK  Name = 
REMARK  6 active torsions:
REMARK  status: ('A' for Active; 'I' for Inactive)
REMARK    1  A    between atoms: C_1  and  C_2
REMARK    2  A    between atoms: C_2  and  C_3
REMARK    3  A    between atoms: C_2  and  C_4
REMARK    4  A    between atoms: C_7  and  O_8
REMARK    5  A    between atoms: O_8  and  C_9
REMARK    6  A    between atoms: C_9  and  C_10
REMARK                            x       y       z     vdW  Elec       q    Type
REMARK                         _______ _______ _______ _____ _____    ______ ____
ROOT
ATOM      1  C   UNL     1       6.406   4.079  14.186  0.00  0.00    +0.000 A 
ATOM      2  N   UNL     1       5.717   3.642  15.226  0.00  0.00    +0.000 NA
ATOM      3  C   UNL     1       6.149   4.395  16.301  0.00  0.00    +0.000 A 
ATOM      4  C   UNL     1       5.822   4.450  17.657  0.00  0.00    +0.000 A 
ATOM      5  N   UNL     1       6.465   5.342  18.459  0.00  0.00    +0.000 NA
ATOM      6  C   UNL     1       7.399   6.141  17.925  0.00  0.00    +0.000 A 
ATOM      7  N   UNL     1       8.009   7.025  18.794  0.00  0.00    +0.000 N 
ATOM      8  N   UNL     1       7.763   6.201  16.638  0.00  0.00    +0.000 NA
ATOM      9  C   UNL     1       7.110   5.300  15.893  0.00  0.00    +0.000 A 
ATOM     10  N   UNL     1       7.261   5.090  14.555  0.00  0.00    +0.000 N 
ATOM     11  H   UNL     1       7.421   7.170  19.602  0.00  0.00    +0.000 HD
ATOM     12  H   UNL     1       8.327   7.842  18.294  0.00  0.00    +0.000 HD
ATOM     13  H   UNL     1       7.896   5.597  13.956  0.00  0.00    +0.000 HD
ENDROOT
BRANCH   1  15
ATOM     14  C   UNL     1       4.870   3.607  12.283  0.00  0.00    +0.000 C 
ATOM     15  C   UNL     1       6.317   3.592  12.770  0.00  0.00    +0.000 C 
ATOM     16  C   UNL     1       7.210   4.428  11.856  0.00  0.00    +0.000 C 
ENDBRANCH   1  15
BRANCH   4  17
ATOM     17  O   UNL     1       4.882   3.594  18.207  0.00  0.00    +0.000 OA
BRANCH  17  18
ATOM     18  C   UNL     1       4.083   4.245  19.201  0.00  0.00    +0.000 C 
BRANCH  18  19
ATOM     19  C   UNL     1       3.459   3.195  20.140  0.00  0.00    +0.000 C 
ATOM     20  C   UNL     1       2.383   3.800  21.058  0.00  0.00    +0.000 C 
ATOM     21  C   UNL     1       1.118   4.201  20.299  0.00  0.00    +0.000 C 
ATOM     22  C   UNL     1       0.552   3.042  19.484  0.00  0.00    +0.000 C 
ATOM     23  C   UNL     1       1.599   2.402  18.575  0.00  0.00    +0.000 C 
ATOM     24  C   UNL     1       2.866   2.023  19.342  0.00  0.00    +0.000 C 
ENDBRANCH  18  19
ENDBRANCH  17  18
ENDBRANCH   4  17
TORSDOF 4
ENDMDL
MODEL 8
REMARK VINA RESULT:      -8.3      1.204      1.380
REMARK  Name = 
REMARK  6 active torsions:
REMARK  status: ('A' for Active; 'I' for Inactive)
REMARK    1  A    between atoms: C_1  and  C_2
REMARK    2  A    between atoms: C_2  and  C_3
REMARK    3  A    between atoms: C_2  and  C_4
REMARK    4  A    between atoms: C_7  and  O_8
REMARK    5  A    between atoms: O_8  and  C_9
REMARK    6  A    between atoms: C_9  and  C_10
REMARK                            x       y       z     vdW  Elec       q    Type
REMARK                         _______ _______ _______ _____ _____    ______ ____
ROOT
ATOM      1  C   UNL     1       6.315   3.987  14.146  0.00  0.00    +0.000 A 
ATOM      2  N   UNL     1       5.783   3.568  15.281  0.00  0.00    +0.000 NA
ATOM      3  C   UNL     1       6.211   4.461  16.245  0.00  0.00    +0.000 A 
ATOM      4  C   UNL     1       6.002   4.600  17.618  0.00  0.00    +0.000 A 
ATOM      5  N   UNL     1       6.596   5.631  18.278  0.00  0.00    +0.000 NA
ATOM      6  C   UNL     1       7.370   6.483  17.593  0.00  0.00    +0.000 A 
ATOM      7  N   UNL     1       7.939   7.509  18.323  0.00  0.00    +0.000 N 
ATOM      8  N   UNL     1       7.606   6.469  16.274  0.00  0.00    +0.000 NA
ATOM      9  C   UNL     1       7.009   5.433  15.672  0.00  0.00    +0.000 A 
ATOM     10  N   UNL     1       7.065   5.122  14.346  0.00  0.00    +0.000 N 
ATOM     11  H   UNL     1       7.411   7.656  19.172  0.00  0.00    +0.000 HD
ATOM     12  H   UNL     1       8.105   8.308  17.731  0.00  0.00    +0.000 HD
ATOM     13  H   UNL     1       7.574   5.643  13.649  0.00  0.00    +0.000 HD
ENDROOT
BRANCH   1  15
ATOM     14  C   UNL     1       4.729   3.517  12.284  0.00  0.00    +0.000 C 
ATOM     15  C   UNL     1       6.162   3.366  12.789  0.00  0.00    +0.000 C 
ATOM     16  C   UNL     1       7.155   3.977  11.803  0.00  0.00    +0.000 C 
ENDBRANCH   1  15
BRANCH   4  17
ATOM     17  O   UNL     1       5.232   3.692  18.325  0.00  0.00    +0.000 OA
BRANCH  17  18
ATOM     18  C   UNL     1       3.942   3.509  17.733  0.00  0.00    +0.000 C 
BRANCH  18  19
ATOM     19  C   UNL     1       2.957   4.554  18.289  0.00  0.00    +0.000 C 
ATOM     20  C   UNL     1       1.498   4.240  17.913  0.00  0.00    +0.000 C 
ATOM     21  C   UNL     1       0.953   3.011  18.639  0.00  0.00    +0.000 C 
ATOM     22  C   UNL     1       1.114   3.127  20.152  0.00  0.00    +0.000 C 
ATOM     23  C   UNL     1       2.546   3.459  20.563  0.00  0.00    +0.000 C 
ATOM     24  C   UNL     1       3.087   4.678  19.816  0.00  0.00    +0.000 C 
ENDBRANCH  18  19
ENDBRANCH  17  18
ENDBRANCH   4  17
TORSDOF 4
ENDMDL
MODEL 9
REMARK VINA RESULT:      -8.3      0.948      1.264
REMARK  Name = 
REMARK  6 active torsions:
REMARK  status: ('A' for Active; 'I' for Inactive)
REMARK    1  A    between atoms: C_1  and  C_2
REMARK    2  A    between atoms: C_2  and  C_3
REMARK    3  A    between atoms: C_2  and  C_4
REMARK    4  A    between atoms: C_7  and  O_8
REMARK    5  A    between atoms: O_8  and  C_9
REMARK    6  A    between atoms: C_9  and  C_10
REMARK                            x       y       z     vdW  Elec       q    Type
REMARK                         _______ _______ _______ _____ _____    ______ ____
ROOT
ATOM      1  C   UNL     1       6.478   4.601  14.366  0.00  0.00    +0.000 A 
ATOM      2  N   UNL     1       5.564   4.025  15.128  0.00  0.00    +0.000 NA
ATOM      3  C   UNL     1       5.938   4.299  16.429  0.00  0.00    +0.000 A 
ATOM      4  C   UNL     1       5.409   4.003  17.687  0.00  0.00    +0.000 A 
ATOM      5  N   UNL     1       6.056   4.446  18.799  0.00  0.00    +0.000 NA
ATOM      6  C   UNL     1       7.188   5.148  18.658  0.00  0.00    +0.000 A 
ATOM      7  N   UNL     1       7.792   5.569  19.827  0.00  0.00    +0.000 N 
ATOM      8  N   UNL     1       7.762   5.521  17.506  0.00  0.00    +0.000 NA
ATOM      9  C   UNL     1       7.094   5.056  16.443  0.00  0.00    +0.000 A 
ATOM     10  N   UNL     1       7.423   5.240  15.133  0.00  0.00    +0.000 N 
ATOM     11  H   UNL     1       7.114   5.582  20.575  0.00  0.00    +0.000 HD
ATOM     12  H   UNL     1       8.323   6.411  19.662  0.00  0.00    +0.000 HD
ATOM     13  H   UNL     1       8.224   5.756  14.803  0.00  0.00    +0.000 HD
ENDROOT
BRANCH   1  15
ATOM     14  C   UNL     1       7.847   5.222  12.381  0.00  0.00    +0.000 C 
ATOM     15  C   UNL     1       6.538   4.603  12.867  0.00  0.00    +0.000 C 
ATOM     16  C   UNL     1       6.367   3.188  12.320  0.00  0.00    +0.000 C 
ENDBRANCH   1  15
BRANCH   4  17
ATOM     17  O   UNL     1       4.259   3.244  17.825  0.00  0.00    +0.000 OA
BRANCH  17  18
ATOM     18  C   UNL     1       3.111   4.055  18.095  0.00  0.00    +0.000 C 
BRANCH  18  19
ATOM     19  C   UNL     1       1.974   3.182  18.658  0.00  0.00    +0.000 C 
ATOM     20  C   UNL     1       2.500   2.032  19.534  0.00  0.00    +0.000 C 
ATOM     21  C   UNL     1       3.084   2.520  20.860  0.00  0.00    +0.000 C 
ATOM     22  C   UNL     1       2.094   3.386  21.633  0.00  0.00    +0.000 C 
ATOM     23  C   UNL     1       1.534   4.527  20.787  0.00  0.00    +0.000 C 
ATOM     24  C   UNL     1       0.970   4.029  19.456  0.00  0.00    +0.000 C 
ENDBRANCH  18  19
ENDBRANCH  17  18
ENDBRANCH   4  17
TORSDOF 4
ENDMDL
