MODEL 1
REMARK VINA RESULT:      -8.4      0.000      0.000
REMARK  Name = 
REMARK  7 active torsions:
REMARK  status: ('A' for Active; 'I' for Inactive)
REMARK    1  A    between atoms: C_1  and  C_2
REMARK    2  A    between atoms: C_2  and  O_3
REMARK    3  A    between atoms: O_3  and  C_4
REMARK    4  A    between atoms: C_4  and  C_6
REMARK    5  A    between atoms: C_10  and  N_11
REMARK    6  A    between atoms: N_11  and  C_12
REMARK    7  A    between atoms: C_17  and  N_18
REMARK                            x       y       z     vdW  Elec       q    Type
REMARK                         _______ _______ _______ _____ _____    ______ ____
ROOT
ATOM      1  N   UNL     1       3.709   6.541  17.290  0.00  0.00    +0.000 N 
ATOM      2  H   UNL     1       3.118   6.727  16.485  0.00  0.00    +0.000 HD
ENDROOT
BRANCH   1   3
ATOM      3  C   UNL     1       2.903   6.194  18.408  0.00  0.00    +0.000 A 
ATOM      4  C   UNL     1       2.592   7.161  19.384  0.00  0.00    +0.000 A 
ATOM      5  C   UNL     1       1.867   6.814  20.514  0.00  0.00    +0.000 A 
ATOM      6  C   UNL     1       1.468   5.492  20.702  0.00  0.00    +0.000 A 
ATOM      7  C   UNL     1       1.792   4.471  19.778  0.00  0.00    +0.000 A 
ATOM      8  C   UNL     1       1.462   3.101  19.988  0.00  0.00    +0.000 A 
ATOM      9  C   UNL     1       1.809   2.148  19.019  0.00  0.00    +0.000 A 
ATOM     10  C   UNL     1       2.453   2.522  17.846  0.00  0.00    +0.000 A 
ATOM     11  C   UNL     1       2.773   3.857  17.635  0.00  0.00    +0.000 A 
ATOM     12  C   UNL     1       2.500   4.846  18.602  0.00  0.00    +0.000 A 
BRANCH   8  13
ATOM     13  N   UNL     1       0.595   2.680  21.018  0.00  0.00    +0.000 N 
ATOM     14  H   UNL     1       0.594   1.687  21.208  0.00  0.00    +0.000 HD
ATOM     15  H   UNL     1      -0.341   3.064  20.956  0.00  0.00    +0.000 HD
ENDBRANCH   8  13
ENDBRANCH   1   3
BRANCH   1  20
ATOM     16  C   UNL     1       6.536   5.111  15.332  0.00  0.00    +0.000 A 
ATOM     17  C   UNL     1       7.504   4.966  16.335  0.00  0.00    +0.000 A 
ATOM     18  C   UNL     1       7.216   5.358  17.641  0.00  0.00    +0.000 A 
ATOM     19  C   UNL     1       5.963   5.893  17.950  0.00  0.00    +0.000 A 
ATOM     20  C   UNL     1       4.989   6.057  16.956  0.00  0.00    +0.000 A 
ATOM     21  C   UNL     1       5.287   5.653  15.652  0.00  0.00    +0.000 A 
BRANCH  16  22
ATOM     22  C   UNL     1       6.889   4.714  13.947  0.00  0.00    +0.000 C 
ATOM     23  O   UNL     1       7.633   5.358  13.227  0.00  0.00    +0.000 OA
BRANCH  22  24
ATOM     24  O   UNL     1       6.187   3.610  13.591  0.00  0.00    +0.000 OA
BRANCH  24  26
ATOM     25  C   UNL     1       4.702   3.310  11.736  0.00  0.00    +0.000 C 
ATOM     26  C   UNL     1       6.151   3.320  12.189  0.00  0.00    +0.000 C 
ENDBRANCH  24  26
ENDBRANCH  22  24
ENDBRANCH  16  22
ENDBRANCH   1  20
TORSDOF 6
ENDMDL
MODEL 2
REMARK VINA RESULT:      -8.1      1.786      2.794
REMARK  Name = 
REMARK  7 active torsions:
REMARK  status: ('A' for Active; 'I' for Inactive)
REMARK    1  A    between atoms: C_1  and  C_2
REMARK    2  A    between atoms: C_2  and  O_3
REMARK    3  A    between atoms: O_3  and  C_4
REMARK    4  A    between atoms: C_4  and  C_6
REMARK    5  A    between atoms: C_10  and  N_11
REMARK    6  A    between atoms: N_11  and  C_12
REMARK    7  A    between atoms: C_17  and  N_18
REMARK                            x       y       z     vdW  Elec       q    Type
REMARK                         _______ _______ _______ _____ _____    ______ ____
ROOT
ATOM      1  N   UNL     1       5.583   3.901  16.575  0.00  0.00    +0.000 N 
ATOM      2  H   UNL     1       6.333   3.698  17.230  0.00  0.00    +0.000 HD
ENDROOT
BRANCH   1   3
ATOM      3  C   UNL     1       4.507   4.532  17.256  0.00  0.00    +0.000 A 
ATOM      4  C   UNL     1       4.401   5.937  17.263  0.00  0.00    +0.000 A 
ATOM      5  C   UNL     1       3.395   6.564  17.984  0.00  0.00    +0.000 A 
ATOM      6  C   UNL     1       2.501   5.802  18.732  0.00  0.00    +0.000 A 
ATOM      7  C   UNL     1       2.588   4.392  18.798  0.00  0.00    +0.000 A 
ATOM      8  C   UNL     1       1.733   3.599  19.617  0.00  0.00    +0.000 A 
ATOM      9  C   UNL     1       1.876   2.203  19.621  0.00  0.00    +0.000 A 
ATOM     10  C   UNL     1       2.825   1.579  18.822  0.00  0.00    +0.000 A 
ATOM     11  C   UNL     1       3.658   2.347  18.019  0.00  0.00    +0.000 A 
ATOM     12  C   UNL     1       3.597   3.756  18.022  0.00  0.00    +0.000 A 
BRANCH   8  13
ATOM     13  N   UNL     1       0.591   4.127  20.255  0.00  0.00    +0.000 N 
ATOM     14  H   UNL     1       0.763   4.890  20.894  0.00  0.00    +0.000 HD
ATOM     15  H   UNL     1      -0.029   3.426  20.645  0.00  0.00    +0.000 HD
ENDBRANCH   8  13
ENDBRANCH   1   3
BRANCH   1  20
ATOM     16  C   UNL     1       5.917   3.607  12.877  0.00  0.00    +0.000 A 
ATOM     17  C   UNL     1       7.004   4.460  12.642  0.00  0.00    +0.000 A 
ATOM     18  C   UNL     1       7.601   5.134  13.706  0.00  0.00    +0.000 A 
ATOM     19  C   UNL     1       7.117   4.958  15.004  0.00  0.00    +0.000 A 
ATOM     20  C   UNL     1       6.024   4.118  15.255  0.00  0.00    +0.000 A 
ATOM     21  C   UNL     1       5.439   3.442  14.181  0.00  0.00    +0.000 A 
BRANCH  16  22
ATOM     22  C   UNL     1       5.285   2.931  11.718  0.00  0.00    +0.000 C 
ATOM     23  O   UNL     1       5.514   1.776  11.399  0.00  0.00    +0.000 OA
BRANCH  22  24
ATOM     24  O   UNL     1       4.516   3.813  11.033  0.00  0.00    +0.000 OA
BRANCH  24  26
ATOM     25  C   UNL     1       2.784   4.241   9.435  0.00  0.00    +0.000 C 
ATOM     26  C   UNL     1       3.288   3.294  10.510  0.00  0.00    +0.000 C 
ENDBRANCH  24  26
ENDBRANCH  22  24
ENDBRANCH  16  22
ENDBRANCH   1  20
TORSDOF 6
ENDMDL
MODEL 3
REMARK VINA RESULT:      -7.8      3.193      5.924
REMARK  Name = 
REMARK  7 active torsions:
REMARK  status: ('A' for Active; 'I' for Inactive)
REMARK    1  A    between atoms: C_1  and  C_2
REMARK    2  A    between atoms: C_2  and  O_3
REMARK    3  A    between atoms: O_3  and  C_4
REMARK    4  A    between atoms: C_4  and  C_6
REMARK    5  A    between atoms: C_10  and  N_11
REMARK    6  A    between atoms: N_11  and  C_12
REMARK    7  A    between atoms: C_17  and  N_18
REMARK                            x       y       z     vdW  Elec       q    Type
REMARK                         _______ _______ _______ _____ _____    ______ ____
ROOT
ATOM      1  N   UNL     1       2.377   6.846  20.373  0.00  0.00    +0.000 N 
ATOM      2  H   UNL     1       3.328   7.042  20.671  0.00  0.00    +0.000 HD
ENDROOT
BRANCH   1   3
ATOM      3  C   UNL     1       1.800   8.014  19.805  0.00  0.00    +0.000 A 
ATOM      4  C   UNL     1       2.076   8.361  18.468  0.00  0.00    +0.000 A 
ATOM      5  C   UNL     1       1.575   9.536  17.927  0.00  0.00    +0.000 A 
ATOM      6  C   UNL     1       0.817  10.396  18.720  0.00  0.00    +0.000 A 
ATOM      7  C   UNL     1       0.547  10.119  20.081  0.00  0.00    +0.000 A 
ATOM      8  C   UNL     1      -0.159  11.020  20.931  0.00  0.00    +0.000 A 
ATOM      9  C   UNL     1      -0.396  10.669  22.268  0.00  0.00    +0.000 A 
ATOM     10  C   UNL     1       0.029   9.447  22.773  0.00  0.00    +0.000 A 
ATOM     11  C   UNL     1       0.714   8.564  21.948  0.00  0.00    +0.000 A 
ATOM     12  C   UNL     1       1.031   8.892  20.614  0.00  0.00    +0.000 A 
BRANCH   8  13
ATOM     13  N   UNL     1      -0.838  12.153  20.436  0.00  0.00    +0.000 N 
ATOM     14  H   UNL     1      -1.842  12.061  20.362  0.00  0.00    +0.000 HD
ATOM     15  H   UNL     1      -0.422  12.555  19.602  0.00  0.00    +0.000 HD
ENDBRANCH   8  13
ENDBRANCH   1   3
BRANCH   1  20
ATOM     16  C   UNL     1       2.682   3.584  18.600  0.00  0.00    +0.000 A 
ATOM     17  C   UNL     1       1.633   2.866  19.189  0.00  0.00    +0.000 A 
ATOM     18  C   UNL     1       0.850   3.462  20.175  0.00  0.00    +0.000 A 
ATOM     19  C   UNL     1       1.110   4.774  20.575  0.00  0.00    +0.000 A 
ATOM     20  C   UNL     1       2.162   5.502  20.006  0.00  0.00    +0.000 A 
ATOM     21  C   UNL     1       2.936   4.897  19.012  0.00  0.00    +0.000 A 
BRANCH  16  22
ATOM     22  C   UNL     1       3.516   2.908  17.577  0.00  0.00    +0.000 C 
ATOM     23  O   UNL     1       3.880   1.747  17.659  0.00  0.00    +0.000 OA
BRANCH  22  24
ATOM     24  O   UNL     1       3.881   3.795  16.618  0.00  0.00    +0.000 OA
BRANCH  24  26
ATOM     25  C   UNL     1       5.562   5.162  15.597  0.00  0.00    +0.000 C 
ATOM     26  C   UNL     1       5.283   3.865  16.335  0.00  0.00    +0.000 C 
ENDBRANCH  24  26
ENDBRANCH  22  24
ENDBRANCH  16  22
ENDBRANCH   1  20
TORSDOF 6
ENDMDL
MODEL 4
REMARK VINA RESULT:      -7.8      1.548      2.863
REMARK  Name = 
REMARK  7 active torsions:
REMARK  status: ('A' for Active; 'I' for Inactive)
REMARK    1  A    between atoms: C_1  and  C_2
REMARK    2  A    between atoms: C_2  and  O_3
REMARK    3  A    between atoms: O_3  and  C_4
REMARK    4  A    between atoms: C_4  and  C_6
REMARK    5  A    between atoms: C_10  and  N_11
REMARK    6  A    between atoms: N_11  and  C_12
REMARK    7  A    between atoms: C_17  and  N_18
REMARK                            x       y       z     vdW  Elec       q    Type
REMARK                         _______ _______ _______ _____ _____    ______ ____
ROOT
ATOM      1  N   UNL     1       3.642   4.079  17.867  0.00  0.00    +0.000 N 
ATOM      2  H   UNL     1       3.346   3.111  17.787  0.00  0.00    +0.000 HD
ENDROOT
BRANCH   1   3
ATOM      3  C   UNL     1       2.999   4.689  18.979  0.00  0.00    +0.000 A 
ATOM      4  C   UNL     1       2.585   3.906  20.073  0.00  0.00    +0.000 A 
ATOM      5  C   UNL     1       1.893   4.480  21.130  0.00  0.00    +0.000 A 
ATOM      6  C   UNL     1       1.578   5.837  21.095  0.00  0.00    +0.000 A 
ATOM      7  C   UNL     1       1.928   6.661  20.000  0.00  0.00    +0.000 A 
ATOM      8  C   UNL     1       1.549   8.032  19.907  0.00  0.00    +0.000 A 
ATOM      9  C   UNL     1       1.944   8.787  18.793  0.00  0.00    +0.000 A 
ATOM     10  C   UNL     1       2.717   8.224  17.786  0.00  0.00    +0.000 A 
ATOM     11  C   UNL     1       3.094   6.890  17.873  0.00  0.00    +0.000 A 
ATOM     12  C   UNL     1       2.673   6.071  18.941  0.00  0.00    +0.000 A 
BRANCH   8  13
ATOM     13  N   UNL     1       0.989   8.738  20.993  0.00  0.00    +0.000 N 
ATOM     14  H   UNL     1       1.387   9.650  21.171  0.00  0.00    +0.000 HD
ATOM     15  H   UNL     1       0.887   8.187  21.838  0.00  0.00    +0.000 HD
ENDBRANCH   8  13
ENDBRANCH   1   3
BRANCH   1  20
ATOM     16  C   UNL     1       6.505   4.454  15.514  0.00  0.00    +0.000 A 
ATOM     17  C   UNL     1       7.559   4.668  16.414  0.00  0.00    +0.000 A 
ATOM     18  C   UNL     1       7.307   4.703  17.784  0.00  0.00    +0.000 A 
ATOM     19  C   UNL     1       6.006   4.523  18.260  0.00  0.00    +0.000 A 
ATOM     20  C   UNL     1       4.940   4.320  17.374  0.00  0.00    +0.000 A 
ATOM     21  C   UNL     1       5.206   4.280  16.003  0.00  0.00    +0.000 A 
BRANCH  16  22
ATOM     22  C   UNL     1       6.804   4.457  14.062  0.00  0.00    +0.000 C 
ATOM     23  O   UNL     1       7.482   5.308  13.511  0.00  0.00    +0.000 OA
BRANCH  22  24
ATOM     24  O   UNL     1       6.135   3.447  13.452  0.00  0.00    +0.000 OA
BRANCH  24  26
ATOM     25  C   UNL     1       4.662   3.171  11.583  0.00  0.00    +0.000 C 
ATOM     26  C   UNL     1       6.075   3.515  12.022  0.00  0.00    +0.000 C 
ENDBRANCH  24  26
ENDBRANCH  22  24
ENDBRANCH  16  22
ENDBRANCH   1  20
TORSDOF 6
ENDMDL
MODEL 5
REMARK VINA RESULT:      -7.7      4.718      7.269
REMARK  Name = 
REMARK  7 active torsions:
REMARK  status: ('A' for Active; 'I' for Inactive)
REMARK    1  A    between atoms: C_1  and  C_2
REMARK    2  A    between atoms: C_2  and  O_3
REMARK    3  A    between atoms: O_3  and  C_4
REMARK    4  A    between atoms: C_4  and  C_6
REMARK    5  A    between atoms: C_10  and  N_11
REMARK    6  A    between atoms: N_11  and  C_12
REMARK    7  A    between atoms: C_17  and  N_18
REMARK                            x       y       z     vdW  Elec       q    Type
REMARK                         _______ _______ _______ _____ _____    ______ ____
ROOT
ATOM      1  N   UNL     1       2.565   6.589  20.316  0.00  0.00    +0.000 N 
ATOM      2  H   UNL     1       1.907   6.205  20.988  0.00  0.00    +0.000 HD
ENDROOT
BRANCH   1   3
ATOM      3  C   UNL     1       3.388   5.551  19.800  0.00  0.00    +0.000 A 
ATOM      4  C   UNL     1       4.726   5.817  19.450  0.00  0.00    +0.000 A 
ATOM      5  C   UNL     1       5.515   4.829  18.879  0.00  0.00    +0.000 A 
ATOM      6  C   UNL     1       4.972   3.571  18.623  0.00  0.00    +0.000 A 
ATOM      7  C   UNL     1       3.622   3.263  18.912  0.00  0.00    +0.000 A 
ATOM      8  C   UNL     1       3.025   2.010  18.587  0.00  0.00    +0.000 A 
ATOM      9  C   UNL     1       1.681   1.777  18.917  0.00  0.00    +0.000 A 
ATOM     10  C   UNL     1       0.928   2.741  19.573  0.00  0.00    +0.000 A 
ATOM     11  C   UNL     1       1.506   3.962  19.896  0.00  0.00    +0.000 A 
ATOM     12  C   UNL     1       2.834   4.270  19.535  0.00  0.00    +0.000 A 
BRANCH   8  13
ATOM     13  N   UNL     1       3.781   0.900  18.157  0.00  0.00    +0.000 N 
ATOM     14  H   UNL     1       3.753   0.713  17.164  0.00  0.00    +0.000 HD
ATOM     15  H   UNL     1       3.643   0.063  18.713  0.00  0.00    +0.000 HD
ENDBRANCH   8  13
ENDBRANCH   1   3
BRANCH   1  20
ATOM     16  C   UNL     1       0.834   9.821  19.658  0.00  0.00    +0.000 A 
ATOM     17  C   UNL     1       1.038   9.952  18.278  0.00  0.00    +0.000 A 
ATOM     18  C   UNL     1       1.759   8.980  17.586  0.00  0.00    +0.000 A 
ATOM     19  C   UNL     1       2.275   7.876  18.267  0.00  0.00    +0.000 A 
ATOM     20  C   UNL     1       2.092   7.737  19.649  0.00  0.00    +0.000 A 
ATOM     21  C   UNL     1       1.361   8.713  20.331  0.00  0.00    +0.000 A 
BRANCH  16  22
ATOM     22  C   UNL     1       0.092  10.890  20.368  0.00  0.00    +0.000 C 
ATOM     23  O   UNL     1      -0.701  11.641  19.824  0.00  0.00    +0.000 OA
BRANCH  22  24
ATOM     24  O   UNL     1       0.504  10.960  21.658  0.00  0.00    +0.000 OA
BRANCH  24  26
ATOM     25  C   UNL     1      -0.271   9.538  23.423  0.00  0.00    +0.000 C 
ATOM     26  C   UNL     1      -0.522  10.820  22.648  0.00  0.00    +0.000 C 
ENDBRANCH  24  26
ENDBRANCH  22  24
ENDBRANCH  16  22
ENDBRANCH   1  20
TORSDOF 6
ENDMDL
MODEL 6
REMARK VINA RESULT:      -7.7      3.395      6.066
REMARK  Name = 
REMARK  7 active torsions:
REMARK  status: ('A' for Active; 'I' for Inactive)
REMARK    1  A    between atoms: C_1  and  C_2
REMARK    2  A    between atoms: C_2  and  O_3
REMARK    3  A    between atoms: O_3  and  C_4
REMARK    4  A    between atoms: C_4  and  C_6
REMARK    5  A    between atoms: C_10  and  N_11
REMARK    6  A    between atoms: N_11  and  C_12
REMARK    7  A    between atoms: C_17  and  N_18
REMARK                            x       y       z     vdW  Elec       q    Type
REMARK                         _______ _______ _______ _____ _____    ______ ____
ROOT
ATOM      1  N   UNL     1       2.205   7.105  20.651  0.00  0.00    +0.000 N 
ATOM      2  H   UNL     1       2.963   7.423  21.246  0.00  0.00    +0.000 HD
ENDROOT
BRANCH   1   3
ATOM      3  C   UNL     1       1.555   8.223  20.060  0.00  0.00    +0.000 A 
ATOM      4  C   UNL     1       1.796   8.549  18.711  0.00  0.00    +0.000 A 
ATOM      5  C   UNL     1       1.222   9.678  18.146  0.00  0.00    +0.000 A 
ATOM      6  C   UNL     1       0.425  10.514  18.925  0.00  0.00    +0.000 A 
ATOM      7  C   UNL     1       0.186  10.260  20.296  0.00  0.00    +0.000 A 
ATOM      8  C   UNL     1      -0.560  11.141  21.131  0.00  0.00    +0.000 A 
ATOM      9  C   UNL     1      -0.762  10.813  22.479  0.00  0.00    +0.000 A 
ATOM     10  C   UNL     1      -0.262   9.632  23.011  0.00  0.00    +0.000 A 
ATOM     11  C   UNL     1       0.463   8.767  22.201  0.00  0.00    +0.000 A 
ATOM     12  C   UNL     1       0.746   9.077  20.855  0.00  0.00    +0.000 A 
BRANCH   8  13
ATOM     13  N   UNL     1      -1.309  12.220  20.615  0.00  0.00    +0.000 N 
ATOM     14  H   UNL     1      -2.139  12.463  21.137  0.00  0.00    +0.000 HD
ATOM     15  H   UNL     1      -1.480  12.166  19.616  0.00  0.00    +0.000 HD
ENDBRANCH   8  13
ENDBRANCH   1   3
BRANCH   1  20
ATOM     16  C   UNL     1       3.705   4.322  18.681  0.00  0.00    +0.000 A 
ATOM     17  C   UNL     1       2.753   3.314  18.883  0.00  0.00    +0.000 A 
ATOM     18  C   UNL     1       1.638   3.561  19.681  0.00  0.00    +0.000 A 
ATOM     19  C   UNL     1       1.468   4.812  20.277  0.00  0.00    +0.000 A 
ATOM     20  C   UNL     1       2.416   5.827  20.095  0.00  0.00    +0.000 A 
ATOM     21  C   UNL     1       3.526   5.570  19.287  0.00  0.00    +0.000 A 
BRANCH  16  22
ATOM     22  C   UNL     1       4.896   4.015  17.853  0.00  0.00    +0.000 C 
ATOM     23  O   UNL     1       4.837   3.634  16.696  0.00  0.00    +0.000 OA
BRANCH  22  24
ATOM     24  O   UNL     1       6.020   4.124  18.604  0.00  0.00    +0.000 OA
BRANCH  24  26
ATOM     25  C   UNL     1       7.728   5.772  18.927  0.00  0.00    +0.000 C 
ATOM     26  C   UNL     1       7.136   4.756  17.966  0.00  0.00    +0.000 C 
ENDBRANCH  24  26
ENDBRANCH  22  24
ENDBRANCH  16  22
ENDBRANCH   1  20
TORSDOF 6
ENDMDL
MODEL 7
REMARK VINA RESULT:      -7.7      3.144      5.276
REMARK  Name = 
REMARK  7 active torsions:
REMARK  status: ('A' for Active; 'I' for Inactive)
REMARK    1  A    between atoms: C_1  and  C_2
REMARK    2  A    between atoms: C_2  and  O_3
REMARK    3  A    between atoms: O_3  and  C_4
REMARK    4  A    between atoms: C_4  and  C_6
REMARK    5  A    between atoms: C_10  and  N_11
REMARK    6  A    between atoms: N_11  and  C_12
REMARK    7  A    between atoms: C_17  and  N_18
REMARK                            x       y       z     vdW  Elec       q    Type
REMARK                         _______ _______ _______ _____ _____    ______ ____
ROOT
ATOM      1  N   UNL     1       2.391   6.846  20.011  0.00  0.00    +0.000 N 
ATOM      2  H   UNL     1       2.892   6.979  20.885  0.00  0.00    +0.000 HD
ENDROOT
BRANCH   1   3
ATOM      3  C   UNL     1       1.817   8.078  19.593  0.00  0.00    +0.000 A 
ATOM      4  C   UNL     1       2.065   8.569  18.296  0.00  0.00    +0.000 A 
ATOM      5  C   UNL     1       1.568   9.803  17.903  0.00  0.00    +0.000 A 
ATOM      6  C   UNL     1       0.843  10.578  18.807  0.00  0.00    +0.000 A 
ATOM      7  C   UNL     1       0.604  10.154  20.135  0.00  0.00    +0.000 A 
ATOM      8  C   UNL     1      -0.067  10.963  21.099  0.00  0.00    +0.000 A 
ATOM      9  C   UNL     1      -0.275  10.467  22.394  0.00  0.00    +0.000 A 
ATOM     10  C   UNL     1       0.144   9.192  22.749  0.00  0.00    +0.000 A 
ATOM     11  C   UNL     1       0.794   8.398  21.812  0.00  0.00    +0.000 A 
ATOM     12  C   UNL     1       1.082   8.869  20.515  0.00  0.00    +0.000 A 
BRANCH   8  13
ATOM     13  N   UNL     1      -0.741  12.152  20.752  0.00  0.00    +0.000 N 
ATOM     14  H   UNL     1      -1.039  12.218  19.788  0.00  0.00    +0.000 HD
ATOM     15  H   UNL     1      -0.283  12.998  21.075  0.00  0.00    +0.000 HD
ENDBRANCH   8  13
ENDBRANCH   1   3
BRANCH   1  20
ATOM     16  C   UNL     1       4.763   4.818  17.978  0.00  0.00    +0.000 A 
ATOM     17  C   UNL     1       3.907   3.818  17.496  0.00  0.00    +0.000 A 
ATOM     18  C   UNL     1       2.563   3.817  17.862  0.00  0.00    +0.000 A 
ATOM     19  C   UNL     1       2.068   4.813  18.707  0.00  0.00    +0.000 A 
ATOM     20  C   UNL     1       2.912   5.812  19.208  0.00  0.00    +0.000 A 
ATOM     21  C   UNL     1       4.257   5.807  18.828  0.00  0.00    +0.000 A 
BRANCH  16  22
ATOM     22  C   UNL     1       6.194   4.769  17.595  0.00  0.00    +0.000 C 
ATOM     23  O   UNL     1       7.073   4.316  18.311  0.00  0.00    +0.000 OA
BRANCH  22  24
ATOM     24  O   UNL     1       6.374   5.384  16.400  0.00  0.00    +0.000 OA
BRANCH  24  26
ATOM     25  C   UNL     1       6.043   4.001  14.473  0.00  0.00    +0.000 C 
ATOM     26  C   UNL     1       7.068   4.623  15.405  0.00  0.00    +0.000 C 
ENDBRANCH  24  26
ENDBRANCH  22  24
ENDBRANCH  16  22
ENDBRANCH   1  20
TORSDOF 6
ENDMDL
MODEL 8
REMARK VINA RESULT:      -7.7      3.534      6.052
REMARK  Name = 
REMARK  7 active torsions:
REMARK  status: ('A' for Active; 'I' for Inactive)
REMARK    1  A    between atoms: C_1  and  C_2
REMARK    2  A    between atoms: C_2  and  O_3
REMARK    3  A    between atoms: O_3  and  C_4
REMARK    4  A    between atoms: C_4  and  C_6
REMARK    5  A    between atoms: C_10  and  N_11
REMARK    6  A    between atoms: N_11  and  C_12
REMARK    7  A    between atoms: C_17  and  N_18
REMARK                            x       y       z     vdW  Elec       q    Type
REMARK                         _______ _______ _______ _____ _____    ______ ____
ROOT
ATOM      1  N   UNL     1       1.963   7.115  20.921  0.00  0.00    +0.000 N 
ATOM      2  H   UNL     1       2.665   7.411  21.592  0.00  0.00    +0.000 HD
ENDROOT
BRANCH   1   3
ATOM      3  C   UNL     1       1.417   8.250  20.262  0.00  0.00    +0.000 A 
ATOM      4  C   UNL     1       1.749   8.516  18.919  0.00  0.00    +0.000 A 
ATOM      5  C   UNL     1       1.278   9.660  18.290  0.00  0.00    +0.000 A 
ATOM      6  C   UNL     1       0.495  10.568  19.001  0.00  0.00    +0.000 A 
ATOM      7  C   UNL     1       0.170  10.374  20.363  0.00  0.00    +0.000 A 
ATOM      8  C   UNL     1      -0.562  11.327  21.130  0.00  0.00    +0.000 A 
ATOM      9  C   UNL     1      -0.855  11.057  22.475  0.00  0.00    +0.000 A 
ATOM     10  C   UNL     1      -0.459   9.865  23.068  0.00  0.00    +0.000 A 
ATOM     11  C   UNL     1       0.252   8.931  22.324  0.00  0.00    +0.000 A 
ATOM     12  C   UNL     1       0.623   9.178  20.987  0.00  0.00    +0.000 A 
BRANCH   8  13
ATOM     13  N   UNL     1      -1.213  12.432  20.542  0.00  0.00    +0.000 N 
ATOM     14  H   UNL     1      -0.657  12.968  19.890  0.00  0.00    +0.000 HD
ATOM     15  H   UNL     1      -1.712  13.019  21.202  0.00  0.00    +0.000 HD
ENDBRANCH   8  13
ENDBRANCH   1   3
BRANCH   1  20
ATOM     16  C   UNL     1       3.582   4.268  19.146  0.00  0.00    +0.000 A 
ATOM     17  C   UNL     1       2.571   3.299  19.225  0.00  0.00    +0.000 A 
ATOM     18  C   UNL     1       1.376   3.594  19.879  0.00  0.00    +0.000 A 
ATOM     19  C   UNL     1       1.185   4.853  20.452  0.00  0.00    +0.000 A 
ATOM     20  C   UNL     1       2.189   5.828  20.392  0.00  0.00    +0.000 A 
ATOM     21  C   UNL     1       3.380   5.523  19.727  0.00  0.00    +0.000 A 
BRANCH  16  22
ATOM     22  C   UNL     1       4.853   3.909  18.472  0.00  0.00    +0.000 C 
ATOM     23  O   UNL     1       5.948   3.994  19.002  0.00  0.00    +0.000 OA
BRANCH  22  24
ATOM     24  O   UNL     1       4.613   3.581  17.178  0.00  0.00    +0.000 OA
BRANCH  24  26
ATOM     25  C   UNL     1       5.209   5.547  15.947  0.00  0.00    +0.000 C 
ATOM     26  C   UNL     1       5.549   4.093  16.222  0.00  0.00    +0.000 C 
ENDBRANCH  24  26
ENDBRANCH  22  24
ENDBRANCH  16  22
ENDBRANCH   1  20
TORSDOF 6
ENDMDL
MODEL 9
REMARK VINA RESULT:      -7.6      3.264      5.626
REMARK  Name = 
REMARK  7 active torsions:
REMARK  status: ('A' for Active; 'I' for Inactive)
REMARK    1  A    between atoms: C_1  and  C_2
REMARK    2  A    between atoms: C_2  and  O_3
REMARK    3  A    between atoms: O_3  and  C_4
REMARK    4  A    between atoms: C_4  and  C_6
REMARK    5  A    between atoms: C_10  and  N_11
REMARK    6  A    between atoms: N_11  and  C_12
REMARK    7  A    between atoms: C_17  and  N_18
REMARK                            x       y       z     vdW  Elec       q    Type
REMARK                         _______ _______ _______ _____ _____    ______ ____
ROOT
ATOM      1  N   UNL     1       2.567   6.669  20.032  0.00  0.00    +0.000 N 
ATOM      2  H   UNL     1       2.838   6.790  21.004  0.00  0.00    +0.000 HD
ENDROOT
BRANCH   1   3
ATOM      3  C   UNL     1       1.980   7.868  19.543  0.00  0.00    +0.000 A 
ATOM      4  C   UNL     1       2.215   8.280  18.217  0.00  0.00    +0.000 A 
ATOM      5  C   UNL     1       1.705   9.484  17.753  0.00  0.00    +0.000 A 
ATOM      6  C   UNL     1       0.980  10.307  18.613  0.00  0.00    +0.000 A 
ATOM      7  C   UNL     1       0.753   9.963  19.966  0.00  0.00    +0.000 A 
ATOM      8  C   UNL     1       0.082  10.824  20.884  0.00  0.00    +0.000 A 
ATOM      9  C   UNL     1      -0.113  10.407  22.208  0.00  0.00    +0.000 A 
ATOM     10  C   UNL     1       0.319   9.159  22.637  0.00  0.00    +0.000 A 
ATOM     11  C   UNL     1       0.970   8.315  21.747  0.00  0.00    +0.000 A 
ATOM     12  C   UNL     1       1.245   8.708  20.421  0.00  0.00    +0.000 A 
BRANCH   8  13
ATOM     13  N   UNL     1      -0.604  11.985  20.469  0.00  0.00    +0.000 N 
ATOM     14  H   UNL     1      -0.981  11.956  19.532  0.00  0.00    +0.000 HD
ATOM     15  H   UNL     1      -0.112  12.850  20.663  0.00  0.00    +0.000 HD
ENDBRANCH   8  13
ENDBRANCH   1   3
BRANCH   1  20
ATOM     16  C   UNL     1       5.525   5.055  18.443  0.00  0.00    +0.000 A 
ATOM     17  C   UNL     1       4.920   3.957  17.816  0.00  0.00    +0.000 A 
ATOM     18  C   UNL     1       3.547   3.755  17.941  0.00  0.00    +0.000 A 
ATOM     19  C   UNL     1       2.774   4.647  18.688  0.00  0.00    +0.000 A 
ATOM     20  C   UNL     1       3.365   5.742  19.331  0.00  0.00    +0.000 A 
ATOM     21  C   UNL     1       4.741   5.938  19.193  0.00  0.00    +0.000 A 
BRANCH  16  22
ATOM     22  C   UNL     1       6.993   5.221  18.317  0.00  0.00    +0.000 C 
ATOM     23  O   UNL     1       7.763   4.300  18.099  0.00  0.00    +0.000 OA
BRANCH  22  24
ATOM     24  O   UNL     1       7.337   6.506  18.581  0.00  0.00    +0.000 OA
BRANCH  24  26
ATOM     25  C   UNL     1       8.119   8.670  17.917  0.00  0.00    +0.000 C 
ATOM     26  C   UNL     1       7.593   7.329  17.437  0.00  0.00    +0.000 C 
ENDBRANCH  24  26
ENDBRANCH  22  24
ENDBRANCH  16  22
ENDBRANCH   1  20
TORSDOF 6
ENDMDL
