MODEL 1
REMARK VINA RESULT:      -6.1      0.000      0.000
REMARK  Name = 
REMARK  4 active torsions:
REMARK  status: ('A' for Active; 'I' for Inactive)
REMARK    1  A    between atoms: C_1  and  N_2
REMARK    2  A    between atoms: N_5  and  C_6
REMARK    3  A    between atoms: C_6  and  C_7
REMARK    4  A    between atoms: C_6  and  C_9
REMARK                            x       y       z     vdW  Elec       q    Type
REMARK                         _______ _______ _______ _____ _____    ______ ____
ROOT
ATOM      1  C   UNL     1       4.266   4.303  18.972  0.00  0.00    +0.000 C 
ENDROOT
BRANCH   1   6
ATOM      2  C   UNL     1       1.678   7.774  21.100  0.00  0.00    +0.000 C 
ATOM      3  N   UNL     1       1.607   6.710  20.101  0.00  0.00    +0.000 NA
ATOM      4  C   UNL     1       1.832   5.388  20.709  0.00  0.00    +0.000 C 
ATOM      5  C   UNL     1       1.882   4.249  19.656  0.00  0.00    +0.000 C 
ATOM      6  N   UNL     1       2.840   4.460  18.534  0.00  0.00    +0.000 NA
ATOM      7  C   UNL     1       2.548   5.802  17.974  0.00  0.00    +0.000 C 
ATOM      8  C   UNL     1       2.552   6.955  19.003  0.00  0.00    +0.000 C 
ENDBRANCH   1   6
BRANCH   1   9
ATOM      9  C   UNL     1       5.253   4.390  17.799  0.00  0.00    +0.000 A 
ATOM     10  C   UNL     1       4.896   3.848  16.544  0.00  0.00    +0.000 A 
ATOM     11  C   UNL     1       5.743   3.962  15.440  0.00  0.00    +0.000 A 
ATOM     12  C   UNL     1       6.957   4.629  15.559  0.00  0.00    +0.000 A 
ATOM     13  C   UNL     1       7.343   5.146  16.793  0.00  0.00    +0.000 A 
ATOM     14  C   UNL     1       6.511   5.010  17.911  0.00  0.00    +0.000 A 
ATOM     15 CL   UNL     1       7.117   5.627  19.408  0.00  0.00    +0.000 Cl
ENDBRANCH   1   9
BRANCH   1  16
ATOM     16  C   UNL     1       4.507   3.016  19.700  0.00  0.00    +0.000 C 
ATOM     17  N   UNL     1       4.719   2.024  20.264  0.00  0.00    +0.000 NA
ENDBRANCH   1  16
TORSDOF 3
ENDMDL
MODEL 2
REMARK VINA RESULT:      -6.0      2.082      5.376
REMARK  Name = 
REMARK  4 active torsions:
REMARK  status: ('A' for Active; 'I' for Inactive)
REMARK    1  A    between atoms: C_1  and  N_2
REMARK    2  A    between atoms: N_5  and  C_6
REMARK    3  A    between atoms: C_6  and  C_7
REMARK    4  A    between atoms: C_6  and  C_9
REMARK                            x       y       z     vdW  Elec       q    Type
REMARK                         _______ _______ _______ _____ _____    ______ ____
ROOT
ATOM      1  C   UNL     1       3.063   5.482  17.799  0.00  0.00    +0.000 C 
ENDROOT
BRANCH   1   6
ATOM      2  C   UNL     1       6.806   4.898  14.813  0.00  0.00    +0.000 C 
ATOM      3  N   UNL     1       6.390   4.752  16.206  0.00  0.00    +0.000 NA
ATOM      4  C   UNL     1       5.307   3.763  16.341  0.00  0.00    +0.000 C 
ATOM      5  C   UNL     1       4.760   3.672  17.790  0.00  0.00    +0.000 C 
ATOM      6  N   UNL     1       4.341   4.968  18.395  0.00  0.00    +0.000 NA
ATOM      7  C   UNL     1       5.479   5.904  18.225  0.00  0.00    +0.000 C 
ATOM      8  C   UNL     1       5.996   6.048  16.776  0.00  0.00    +0.000 C 
ENDBRANCH   1   6
BRANCH   1   9
ATOM      9  C   UNL     1       2.508   6.696  18.559  0.00  0.00    +0.000 A 
ATOM     10  C   UNL     1       2.351   7.928  17.887  0.00  0.00    +0.000 A 
ATOM     11  C   UNL     1       1.794   9.036  18.530  0.00  0.00    +0.000 A 
ATOM     12  C   UNL     1       1.370   8.935  19.851  0.00  0.00    +0.000 A 
ATOM     13  C   UNL     1       1.542   7.738  20.542  0.00  0.00    +0.000 A 
ATOM     14  C   UNL     1       2.127   6.632  19.912  0.00  0.00    +0.000 A 
ATOM     15 CL   UNL     1       2.356   5.219  20.881  0.00  0.00    +0.000 Cl
ENDBRANCH   1   9
BRANCH   1  16
ATOM     16  C   UNL     1       1.994   4.433  17.737  0.00  0.00    +0.000 C 
ATOM     17  N   UNL     1       1.182   3.605  17.701  0.00  0.00    +0.000 NA
ENDBRANCH   1  16
TORSDOF 3
ENDMDL
MODEL 3
REMARK VINA RESULT:      -6.0      2.520      5.264
REMARK  Name = 
REMARK  4 active torsions:
REMARK  status: ('A' for Active; 'I' for Inactive)
REMARK    1  A    between atoms: C_1  and  N_2
REMARK    2  A    between atoms: N_5  and  C_6
REMARK    3  A    between atoms: C_6  and  C_7
REMARK    4  A    between atoms: C_6  and  C_9
REMARK                            x       y       z     vdW  Elec       q    Type
REMARK                         _______ _______ _______ _____ _____    ______ ____
ROOT
ATOM      1  C   UNL     1       3.669   5.714  18.372  0.00  0.00    +0.000 C 
ENDROOT
BRANCH   1   6
ATOM      2  C   UNL     1       8.217   7.316  18.508  0.00  0.00    +0.000 C 
ATOM      3  N   UNL     1       7.304   6.458  17.758  0.00  0.00    +0.000 NA
ATOM      4  C   UNL     1       6.195   7.233  17.176  0.00  0.00    +0.000 C 
ATOM      5  C   UNL     1       5.143   6.335  16.475  0.00  0.00    +0.000 C 
ATOM      6  N   UNL     1       4.601   5.221  17.303  0.00  0.00    +0.000 NA
ATOM      7  C   UNL     1       5.771   4.488  17.846  0.00  0.00    +0.000 C 
ATOM      8  C   UNL     1       6.799   5.363  18.599  0.00  0.00    +0.000 C 
ENDBRANCH   1   6
BRANCH   1   9
ATOM      9  C   UNL     1       2.601   4.675  18.742  0.00  0.00    +0.000 A 
ATOM     10  C   UNL     1       2.448   3.516  17.950  0.00  0.00    +0.000 A 
ATOM     11  C   UNL     1       1.529   2.523  18.291  0.00  0.00    +0.000 A 
ATOM     12  C   UNL     1       0.752   2.656  19.436  0.00  0.00    +0.000 A 
ATOM     13  C   UNL     1       0.864   3.803  20.218  0.00  0.00    +0.000 A 
ATOM     14  C   UNL     1       1.764   4.817  19.865  0.00  0.00    +0.000 A 
ATOM     15 CL   UNL     1       1.774   6.227  20.864  0.00  0.00    +0.000 Cl
ENDBRANCH   1   9
BRANCH   1  16
ATOM     16  C   UNL     1       2.979   6.988  17.990  0.00  0.00    +0.000 C 
ATOM     17  N   UNL     1       2.425   7.968  17.711  0.00  0.00    +0.000 NA
ENDBRANCH   1  16
TORSDOF 3
ENDMDL
MODEL 4
REMARK VINA RESULT:      -6.0      2.477      2.926
REMARK  Name = 
REMARK  4 active torsions:
REMARK  status: ('A' for Active; 'I' for Inactive)
REMARK    1  A    between atoms: C_1  and  N_2
REMARK    2  A    between atoms: N_5  and  C_6
REMARK    3  A    between atoms: C_6  and  C_7
REMARK    4  A    between atoms: C_6  and  C_9
REMARK                            x       y       z     vdW  Elec       q    Type
REMARK                         _______ _______ _______ _____ _____    ______ ____
ROOT
ATOM      1  C   UNL     1       4.921   4.337  18.388  0.00  0.00    +0.000 C 
ENDROOT
BRANCH   1   6
ATOM      2  C   UNL     1       0.629   3.281  20.320  0.00  0.00    +0.000 C 
ATOM      3  N   UNL     1       1.860   2.681  19.813  0.00  0.00    +0.000 NA
ATOM      4  C   UNL     1       3.026   3.088  20.616  0.00  0.00    +0.000 C 
ATOM      5  C   UNL     1       4.364   2.564  20.032  0.00  0.00    +0.000 C 
ATOM      6  N   UNL     1       4.602   2.885  18.596  0.00  0.00    +0.000 NA
ATOM      7  C   UNL     1       3.394   2.443  17.857  0.00  0.00    +0.000 C 
ATOM      8  C   UNL     1       2.058   3.005  18.393  0.00  0.00    +0.000 C 
ENDBRANCH   1   6
BRANCH   1   9
ATOM      9  C   UNL     1       5.297   4.651  16.933  0.00  0.00    +0.000 A 
ATOM     10  C   UNL     1       5.986   3.686  16.165  0.00  0.00    +0.000 A 
ATOM     11  C   UNL     1       6.291   3.914  14.822  0.00  0.00    +0.000 A 
ATOM     12  C   UNL     1       5.905   5.102  14.211  0.00  0.00    +0.000 A 
ATOM     13  C   UNL     1       5.251   6.080  14.956  0.00  0.00    +0.000 A 
ATOM     14  C   UNL     1       4.968   5.870  16.311  0.00  0.00    +0.000 A 
ATOM     15 CL   UNL     1       4.215   7.175  17.158  0.00  0.00    +0.000 Cl
ENDBRANCH   1   9
BRANCH   1  16
ATOM     16  C   UNL     1       6.026   4.817  19.278  0.00  0.00    +0.000 C 
ATOM     17  N   UNL     1       6.900   5.184  19.948  0.00  0.00    +0.000 NA
ENDBRANCH   1  16
TORSDOF 3
ENDMDL
MODEL 5
REMARK VINA RESULT:      -5.9      2.547      5.496
REMARK  Name = 
REMARK  4 active torsions:
REMARK  status: ('A' for Active; 'I' for Inactive)
REMARK    1  A    between atoms: C_1  and  N_2
REMARK    2  A    between atoms: N_5  and  C_6
REMARK    3  A    between atoms: C_6  and  C_7
REMARK    4  A    between atoms: C_6  and  C_9
REMARK                            x       y       z     vdW  Elec       q    Type
REMARK                         _______ _______ _______ _____ _____    ______ ____
ROOT
ATOM      1  C   UNL     1       3.554   5.883  18.948  0.00  0.00    +0.000 C 
ENDROOT
BRANCH   1   6
ATOM      2  C   UNL     1       8.194   7.106  18.457  0.00  0.00    +0.000 C 
ATOM      3  N   UNL     1       7.113   6.351  17.829  0.00  0.00    +0.000 NA
ATOM      4  C   UNL     1       6.002   7.233  17.432  0.00  0.00    +0.000 C 
ATOM      5  C   UNL     1       4.788   6.447  16.871  0.00  0.00    +0.000 C 
ATOM      6  N   UNL     1       4.278   5.353  17.745  0.00  0.00    +0.000 NA
ATOM      7  C   UNL     1       5.448   4.510  18.095  0.00  0.00    +0.000 C 
ATOM      8  C   UNL     1       6.643   5.273  18.710  0.00  0.00    +0.000 C 
ENDBRANCH   1   6
BRANCH   1   9
ATOM      9  C   UNL     1       2.705   4.807  19.642  0.00  0.00    +0.000 A 
ATOM     10  C   UNL     1       2.950   4.490  20.996  0.00  0.00    +0.000 A 
ATOM     11  C   UNL     1       2.159   3.561  21.675  0.00  0.00    +0.000 A 
ATOM     12  C   UNL     1       1.101   2.938  21.024  0.00  0.00    +0.000 A 
ATOM     13  C   UNL     1       0.858   3.213  19.680  0.00  0.00    +0.000 A 
ATOM     14  C   UNL     1       1.666   4.123  18.985  0.00  0.00    +0.000 A 
ATOM     15 CL   UNL     1       1.321   4.339  17.305  0.00  0.00    +0.000 Cl
ENDBRANCH   1   9
BRANCH   1  16
ATOM     16  C   UNL     1       2.669   7.047  18.621  0.00  0.00    +0.000 C 
ATOM     17  N   UNL     1       1.994   7.949  18.344  0.00  0.00    +0.000 NA
ENDBRANCH   1  16
TORSDOF 3
ENDMDL
MODEL 6
REMARK VINA RESULT:      -5.9      2.315      3.514
REMARK  Name = 
REMARK  4 active torsions:
REMARK  status: ('A' for Active; 'I' for Inactive)
REMARK    1  A    between atoms: C_1  and  N_2
REMARK    2  A    between atoms: N_5  and  C_6
REMARK    3  A    between atoms: C_6  and  C_7
REMARK    4  A    between atoms: C_6  and  C_9
REMARK                            x       y       z     vdW  Elec       q    Type
REMARK                         _______ _______ _______ _____ _____    ______ ____
ROOT
ATOM      1  C   UNL     1       5.257   4.257  17.174  0.00  0.00    +0.000 C 
ENDROOT
BRANCH   1   6
ATOM      2  C   UNL     1       2.775   2.650  20.986  0.00  0.00    +0.000 C 
ATOM      3  N   UNL     1       2.654   3.438  19.762  0.00  0.00    +0.000 NA
ATOM      4  C   UNL     1       2.915   2.617  18.567  0.00  0.00    +0.000 C 
ATOM      5  C   UNL     1       2.912   3.451  17.259  0.00  0.00    +0.000 C 
ATOM      6  N   UNL     1       3.809   4.641  17.260  0.00  0.00    +0.000 NA
ATOM      7  C   UNL     1       3.484   5.416  18.483  0.00  0.00    +0.000 C 
ATOM      8  C   UNL     1       3.540   4.610  19.801  0.00  0.00    +0.000 C 
ENDBRANCH   1   6
BRANCH   1   9
ATOM      9  C   UNL     1       6.192   5.400  17.597  0.00  0.00    +0.000 A 
ATOM     10  C   UNL     1       7.086   5.209  18.673  0.00  0.00    +0.000 A 
ATOM     11  C   UNL     1       7.991   6.205  19.046  0.00  0.00    +0.000 A 
ATOM     12  C   UNL     1       8.035   7.405  18.346  0.00  0.00    +0.000 A 
ATOM     13  C   UNL     1       7.144   7.627  17.299  0.00  0.00    +0.000 A 
ATOM     14  C   UNL     1       6.213   6.644  16.939  0.00  0.00    +0.000 A 
ATOM     15 CL   UNL     1       5.109   7.048  15.672  0.00  0.00    +0.000 Cl
ENDBRANCH   1   9
BRANCH   1  16
ATOM     16  C   UNL     1       5.652   3.804  15.802  0.00  0.00    +0.000 C 
ATOM     17  N   UNL     1       5.968   3.477  14.734  0.00  0.00    +0.000 NA
ENDBRANCH   1  16
TORSDOF 3
ENDMDL
MODEL 7
REMARK VINA RESULT:      -5.7      2.352      5.320
REMARK  Name = 
REMARK  4 active torsions:
REMARK  status: ('A' for Active; 'I' for Inactive)
REMARK    1  A    between atoms: C_1  and  N_2
REMARK    2  A    between atoms: N_5  and  C_6
REMARK    3  A    between atoms: C_6  and  C_7
REMARK    4  A    between atoms: C_6  and  C_9
REMARK                            x       y       z     vdW  Elec       q    Type
REMARK                         _______ _______ _______ _____ _____    ______ ____
ROOT
ATOM      1  C   UNL     1       5.233   5.024  18.608  0.00  0.00    +0.000 C 
ENDROOT
BRANCH   1   6
ATOM      2  C   UNL     1       7.224   4.696  14.226  0.00  0.00    +0.000 C 
ATOM      3  N   UNL     1       6.466   5.587  15.100  0.00  0.00    +0.000 NA
ATOM      4  C   UNL     1       7.233   5.934  16.308  0.00  0.00    +0.000 C 
ATOM      5  C   UNL     1       6.410   6.783  17.313  0.00  0.00    +0.000 C 
ATOM      6  N   UNL     1       5.090   6.210  17.700  0.00  0.00    +0.000 NA
ATOM      7  C   UNL     1       4.379   5.893  16.436  0.00  0.00    +0.000 C 
ATOM      8  C   UNL     1       5.165   5.000  15.451  0.00  0.00    +0.000 C 
ENDBRANCH   1   6
BRANCH   1   9
ATOM      9  C   UNL     1       3.968   4.766  19.439  0.00  0.00    +0.000 A 
ATOM     10  C   UNL     1       3.121   5.845  19.775  0.00  0.00    +0.000 A 
ATOM     11  C   UNL     1       1.932   5.640  20.478  0.00  0.00    +0.000 A 
ATOM     12  C   UNL     1       1.555   4.354  20.849  0.00  0.00    +0.000 A 
ATOM     13  C   UNL     1       2.388   3.277  20.553  0.00  0.00    +0.000 A 
ATOM     14  C   UNL     1       3.596   3.481  19.874  0.00  0.00    +0.000 A 
ATOM     15 CL   UNL     1       4.586   2.087  19.619  0.00  0.00    +0.000 Cl
ENDBRANCH   1   9
BRANCH   1  16
ATOM     16  C   UNL     1       6.396   5.152  19.543  0.00  0.00    +0.000 C 
ATOM     17  N   UNL     1       7.313   5.244  20.248  0.00  0.00    +0.000 NA
ENDBRANCH   1  16
TORSDOF 3
ENDMDL
MODEL 8
REMARK VINA RESULT:      -5.7      1.744      3.126
REMARK  Name = 
REMARK  4 active torsions:
REMARK  status: ('A' for Active; 'I' for Inactive)
REMARK    1  A    between atoms: C_1  and  N_2
REMARK    2  A    between atoms: N_5  and  C_6
REMARK    3  A    between atoms: C_6  and  C_7
REMARK    4  A    between atoms: C_6  and  C_9
REMARK                            x       y       z     vdW  Elec       q    Type
REMARK                         _______ _______ _______ _____ _____    ______ ____
ROOT
ATOM      1  C   UNL     1       3.902   5.288  17.547  0.00  0.00    +0.000 C 
ENDROOT
BRANCH   1   6
ATOM      2  C   UNL     1       0.632   2.074  19.048  0.00  0.00    +0.000 C 
ATOM      3  N   UNL     1       1.882   2.730  19.424  0.00  0.00    +0.000 NA
ATOM      4  C   UNL     1       1.702   4.186  19.563  0.00  0.00    +0.000 C 
ATOM      5  C   UNL     1       3.036   4.927  19.844  0.00  0.00    +0.000 C 
ATOM      6  N   UNL     1       4.138   4.643  18.882  0.00  0.00    +0.000 NA
ATOM      7  C   UNL     1       4.260   3.167  18.800  0.00  0.00    +0.000 C 
ATOM      8  C   UNL     1       2.950   2.420  18.463  0.00  0.00    +0.000 C 
ENDBRANCH   1   6
BRANCH   1   9
ATOM      9  C   UNL     1       5.063   5.054  16.570  0.00  0.00    +0.000 A 
ATOM     10  C   UNL     1       4.816   4.433  15.326  0.00  0.00    +0.000 A 
ATOM     11  C   UNL     1       5.837   4.259  14.389  0.00  0.00    +0.000 A 
ATOM     12  C   UNL     1       7.122   4.712  14.666  0.00  0.00    +0.000 A 
ATOM     13  C   UNL     1       7.396   5.301  15.898  0.00  0.00    +0.000 A 
ATOM     14  C   UNL     1       6.383   5.452  16.854  0.00  0.00    +0.000 A 
ATOM     15 CL   UNL     1       6.846   6.133  18.374  0.00  0.00    +0.000 Cl
ENDBRANCH   1   9
BRANCH   1  16
ATOM     16  C   UNL     1       3.662   6.763  17.655  0.00  0.00    +0.000 C 
ATOM     17  N   UNL     1       3.456   7.901  17.753  0.00  0.00    +0.000 NA
ENDBRANCH   1  16
TORSDOF 3
ENDMDL
MODEL 9
REMARK VINA RESULT:      -5.4      1.986      5.389
REMARK  Name = 
REMARK  4 active torsions:
REMARK  status: ('A' for Active; 'I' for Inactive)
REMARK    1  A    between atoms: C_1  and  N_2
REMARK    2  A    between atoms: N_5  and  C_6
REMARK    3  A    between atoms: C_6  and  C_7
REMARK    4  A    between atoms: C_6  and  C_9
REMARK                            x       y       z     vdW  Elec       q    Type
REMARK                         _______ _______ _______ _____ _____    ______ ____
ROOT
ATOM      1  C   UNL     1       2.899   5.237  18.348  0.00  0.00    +0.000 C 
ENDROOT
BRANCH   1   6
ATOM      2  C   UNL     1       6.906   5.108  15.665  0.00  0.00    +0.000 C 
ATOM      3  N   UNL     1       6.361   4.736  16.968  0.00  0.00    +0.000 NA
ATOM      4  C   UNL     1       5.271   3.755  16.834  0.00  0.00    +0.000 C 
ATOM      5  C   UNL     1       4.591   3.430  18.190  0.00  0.00    +0.000 C 
ATOM      6  N   UNL     1       4.116   4.611  18.964  0.00  0.00    +0.000 NA
ATOM      7  C   UNL     1       5.264   5.545  19.061  0.00  0.00    +0.000 C 
ATOM      8  C   UNL     1       5.914   5.923  17.711  0.00  0.00    +0.000 C 
ENDBRANCH   1   6
BRANCH   1   9
ATOM      9  C   UNL     1       2.273   6.311  19.249  0.00  0.00    +0.000 A 
ATOM     10  C   UNL     1       1.691   5.938  20.480  0.00  0.00    +0.000 A 
ATOM     11  C   UNL     1       1.166   6.895  21.352  0.00  0.00    +0.000 A 
ATOM     12  C   UNL     1       1.223   8.244  21.021  0.00  0.00    +0.000 A 
ATOM     13  C   UNL     1       1.766   8.634  19.800  0.00  0.00    +0.000 A 
ATOM     14  C   UNL     1       2.268   7.677  18.908  0.00  0.00    +0.000 A 
ATOM     15 CL   UNL     1       2.856   8.262  17.392  0.00  0.00    +0.000 Cl
ENDBRANCH   1   9
BRANCH   1  16
ATOM     16  C   UNL     1       1.843   4.230  18.008  0.00  0.00    +0.000 C 
ATOM     17  N   UNL     1       1.038   3.444  17.723  0.00  0.00    +0.000 NA
ENDBRANCH   1  16
TORSDOF 3
ENDMDL
