MODEL 1
REMARK VINA RESULT:      -6.9      0.000      0.000
REMARK  Name = 
REMARK  4 active torsions:
REMARK  status: ('A' for Active; 'I' for Inactive)
REMARK    1  A    between atoms: C_1  and  C_2
REMARK    2  A    between atoms: C_5  and  C_6
REMARK    3  A    between atoms: C_6  and  C_7
REMARK    4  A    between atoms: N_15  and  C_16
REMARK                            x       y       z     vdW  Elec       q    Type
REMARK                         _______ _______ _______ _____ _____    ______ ____
ROOT
ATOM      1  C   UNL     1       5.414   6.352  17.749  0.00  0.00    +0.000 C 
ATOM      2  O   UNL     1       5.479   7.416  17.135  0.00  0.00    +0.000 OA
ATOM      3  N   UNL     1       4.281   5.969  18.431  0.00  0.00    +0.000 N 
ATOM      4  C   UNL     1       3.131   6.825  18.569  0.00  0.00    +0.000 C 
ATOM      5  C   UNL     1       1.959   5.867  18.437  0.00  0.00    +0.000 C 
ATOM      6  C   UNL     1       2.499   4.471  18.836  0.00  0.00    +0.000 C 
ATOM      7  C   UNL     1       1.825   3.876  20.075  0.00  0.00    +0.000 C 
ATOM      8  C   UNL     1       1.608   2.392  19.773  0.00  0.00    +0.000 C 
ATOM      9  N   UNL     1       2.148   2.125  18.438  0.00  0.00    +0.000 NA
ATOM     10  C   UNL     1       3.415   1.404  18.486  0.00  0.00    +0.000 C 
ATOM     11  C   UNL     1       2.215   3.421  17.755  0.00  0.00    +0.000 C 
ATOM     12  C   UNL     1       4.014   4.676  19.026  0.00  0.00    +0.000 C 
ENDROOT
BRANCH   1  13
ATOM     13  C   UNL     1       6.563   5.354  17.775  0.00  0.00    +0.000 C 
BRANCH  13  18
ATOM     14  C   UNL     1       6.330   3.425  12.266  0.00  0.00    +0.000 C 
ATOM     15  C   UNL     1       6.122   4.169  13.584  0.00  0.00    +0.000 C 
ATOM     16  C   UNL     1       5.624   3.208  14.668  0.00  0.00    +0.000 C 
ATOM     17  C   UNL     1       5.456   3.913  16.009  0.00  0.00    +0.000 C 
ATOM     18  C   UNL     1       6.760   4.593  16.459  0.00  0.00    +0.000 C 
ATOM     19  C   UNL     1       7.248   5.564  15.371  0.00  0.00    +0.000 C 
ATOM     20  C   UNL     1       7.414   4.868  14.023  0.00  0.00    +0.000 C 
ENDBRANCH  13  18
ENDBRANCH   1  13
TORSDOF 2
ENDMDL
MODEL 2
REMARK VINA RESULT:      -6.9      2.427      5.999
REMARK  Name = 
REMARK  4 active torsions:
REMARK  status: ('A' for Active; 'I' for Inactive)
REMARK    1  A    between atoms: C_1  and  C_2
REMARK    2  A    between atoms: C_5  and  C_6
REMARK    3  A    between atoms: C_6  and  C_7
REMARK    4  A    between atoms: N_15  and  C_16
REMARK                            x       y       z     vdW  Elec       q    Type
REMARK                         _______ _______ _______ _____ _____    ______ ____
ROOT
ATOM      1  C   UNL     1       4.000   6.968  17.475  0.00  0.00    +0.000 C 
ATOM      2  O   UNL     1       5.016   7.658  17.421  0.00  0.00    +0.000 OA
ATOM      3  N   UNL     1       4.051   5.594  17.553  0.00  0.00    +0.000 N 
ATOM      4  C   UNL     1       5.285   4.857  17.469  0.00  0.00    +0.000 C 
ATOM      5  C   UNL     1       5.098   3.739  18.482  0.00  0.00    +0.000 C 
ATOM      6  C   UNL     1       3.568   3.549  18.634  0.00  0.00    +0.000 C 
ATOM      7  C   UNL     1       3.068   2.169  18.200  0.00  0.00    +0.000 C 
ATOM      8  C   UNL     1       2.026   1.747  19.236  0.00  0.00    +0.000 C 
ATOM      9  N   UNL     1       1.902   2.831  20.213  0.00  0.00    +0.000 NA
ATOM     10  C   UNL     1       0.672   3.595  20.040  0.00  0.00    +0.000 C 
ATOM     11  C   UNL     1       3.129   3.626  20.101  0.00  0.00    +0.000 C 
ATOM     12  C   UNL     1       2.947   4.691  17.809  0.00  0.00    +0.000 C 
ENDROOT
BRANCH   1  13
ATOM     13  C   UNL     1       2.604   7.574  17.498  0.00  0.00    +0.000 C 
BRANCH  13  18
ATOM     14  C   UNL     1       0.091   9.919  22.221  0.00  0.00    +0.000 C 
ATOM     15  C   UNL     1       0.403   9.150  20.939  0.00  0.00    +0.000 C 
ATOM     16  C   UNL     1       0.786  10.118  19.816  0.00  0.00    +0.000 C 
ATOM     17  C   UNL     1       1.154   9.375  18.535  0.00  0.00    +0.000 C 
ATOM     18  C   UNL     1       2.286   8.362  18.774  0.00  0.00    +0.000 C 
ATOM     19  C   UNL     1       1.891   7.388  19.896  0.00  0.00    +0.000 C 
ATOM     20  C   UNL     1       1.516   8.123  21.180  0.00  0.00    +0.000 C 
ENDBRANCH  13  18
ENDBRANCH   1  13
TORSDOF 2
ENDMDL
MODEL 3
REMARK VINA RESULT:      -6.8      1.082      1.555
REMARK  Name = 
REMARK  4 active torsions:
REMARK  status: ('A' for Active; 'I' for Inactive)
REMARK    1  A    between atoms: C_1  and  C_2
REMARK    2  A    between atoms: C_5  and  C_6
REMARK    3  A    between atoms: C_6  and  C_7
REMARK    4  A    between atoms: N_15  and  C_16
REMARK                            x       y       z     vdW  Elec       q    Type
REMARK                         _______ _______ _______ _____ _____    ______ ____
ROOT
ATOM      1  C   UNL     1       4.499   6.315  17.762  0.00  0.00    +0.000 C 
ATOM      2  O   UNL     1       4.391   7.394  17.182  0.00  0.00    +0.000 OA
ATOM      3  N   UNL     1       3.739   5.999  18.866  0.00  0.00    +0.000 N 
ATOM      4  C   UNL     1       2.843   6.939  19.488  0.00  0.00    +0.000 C 
ATOM      5  C   UNL     1       1.646   6.085  19.872  0.00  0.00    +0.000 C 
ATOM      6  C   UNL     1       2.177   4.635  19.998  0.00  0.00    +0.000 C 
ATOM      7  C   UNL     1       2.049   4.047  21.406  0.00  0.00    +0.000 C 
ATOM      8  C   UNL     1       1.590   2.600  21.225  0.00  0.00    +0.000 C 
ATOM      9  N   UNL     1       1.478   2.343  19.788  0.00  0.00    +0.000 NA
ATOM     10  C   UNL     1       2.572   1.520  19.284  0.00  0.00    +0.000 C 
ATOM     11  C   UNL     1       1.362   3.656  19.144  0.00  0.00    +0.000 C 
ATOM     12  C   UNL     1       3.638   4.708  19.517  0.00  0.00    +0.000 C 
ENDROOT
BRANCH   1  13
ATOM     13  C   UNL     1       5.453   5.227  17.290  0.00  0.00    +0.000 C 
BRANCH  13  18
ATOM     14  C   UNL     1       6.920   3.882  11.797  0.00  0.00    +0.000 C 
ATOM     15  C   UNL     1       6.696   3.896  13.308  0.00  0.00    +0.000 C 
ATOM     16  C   UNL     1       7.441   5.072  13.947  0.00  0.00    +0.000 C 
ATOM     17  C   UNL     1       7.195   5.143  15.451  0.00  0.00    +0.000 C 
ATOM     18  C   UNL     1       5.694   5.223  15.775  0.00  0.00    +0.000 C 
ATOM     19  C   UNL     1       4.954   4.035  15.139  0.00  0.00    +0.000 C 
ATOM     20  C   UNL     1       5.199   3.954  13.635  0.00  0.00    +0.000 C 
ENDBRANCH  13  18
ENDBRANCH   1  13
TORSDOF 2
ENDMDL
MODEL 4
REMARK VINA RESULT:      -6.8      2.726      6.500
REMARK  Name = 
REMARK  4 active torsions:
REMARK  status: ('A' for Active; 'I' for Inactive)
REMARK    1  A    between atoms: C_1  and  C_2
REMARK    2  A    between atoms: C_5  and  C_6
REMARK    3  A    between atoms: C_6  and  C_7
REMARK    4  A    between atoms: N_15  and  C_16
REMARK                            x       y       z     vdW  Elec       q    Type
REMARK                         _______ _______ _______ _____ _____    ______ ____
ROOT
ATOM      1  C   UNL     1       2.319   4.744  19.559  0.00  0.00    +0.000 C 
ATOM      2  O   UNL     1       1.245   4.148  19.509  0.00  0.00    +0.000 OA
ATOM      3  N   UNL     1       3.435   4.298  18.887  0.00  0.00    +0.000 N 
ATOM      4  C   UNL     1       3.462   3.051  18.168  0.00  0.00    +0.000 C 
ATOM      5  C   UNL     1       4.286   3.374  16.932  0.00  0.00    +0.000 C 
ATOM      6  C   UNL     1       5.172   4.586  17.312  0.00  0.00    +0.000 C 
ATOM      7  C   UNL     1       6.675   4.293  17.267  0.00  0.00    +0.000 C 
ATOM      8  C   UNL     1       7.331   5.523  16.638  0.00  0.00    +0.000 C 
ATOM      9  N   UNL     1       6.275   6.495  16.350  0.00  0.00    +0.000 NA
ATOM     10  C   UNL     1       6.277   7.610  17.289  0.00  0.00    +0.000 C 
ATOM     11  C   UNL     1       5.019   5.738  16.311  0.00  0.00    +0.000 C 
ATOM     12  C   UNL     1       4.691   5.001  18.714  0.00  0.00    +0.000 C 
ENDROOT
BRANCH   1  13
ATOM     13  C   UNL     1       2.496   6.042  20.335  0.00  0.00    +0.000 C 
BRANCH  13  18
ATOM     14  C   UNL     1       0.352  11.234  18.731  0.00  0.00    +0.000 C 
ATOM     15  C   UNL     1       1.214  10.086  19.252  0.00  0.00    +0.000 C 
ATOM     16  C   UNL     1       0.529   9.398  20.436  0.00  0.00    +0.000 C 
ATOM     17  C   UNL     1       1.342   8.214  20.947  0.00  0.00    +0.000 C 
ATOM     18  C   UNL     1       1.622   7.196  19.828  0.00  0.00    +0.000 C 
ATOM     19  C   UNL     1       2.319   7.890  18.647  0.00  0.00    +0.000 C 
ATOM     20  C   UNL     1       1.514   9.080  18.134  0.00  0.00    +0.000 C 
ENDBRANCH  13  18
ENDBRANCH   1  13
TORSDOF 2
ENDMDL
MODEL 5
REMARK VINA RESULT:      -6.7      3.589      7.396
REMARK  Name = 
REMARK  4 active torsions:
REMARK  status: ('A' for Active; 'I' for Inactive)
REMARK    1  A    between atoms: C_1  and  C_2
REMARK    2  A    between atoms: C_5  and  C_6
REMARK    3  A    between atoms: C_6  and  C_7
REMARK    4  A    between atoms: N_15  and  C_16
REMARK                            x       y       z     vdW  Elec       q    Type
REMARK                         _______ _______ _______ _____ _____    ______ ____
ROOT
ATOM      1  C   UNL     1       2.147   5.933  20.204  0.00  0.00    +0.000 C 
ATOM      2  O   UNL     1       1.213   5.397  20.797  0.00  0.00    +0.000 OA
ATOM      3  N   UNL     1       3.259   5.229  19.802  0.00  0.00    +0.000 N 
ATOM      4  C   UNL     1       3.465   3.843  20.136  0.00  0.00    +0.000 C 
ATOM      5  C   UNL     1       4.084   3.263  18.875  0.00  0.00    +0.000 C 
ATOM      6  C   UNL     1       4.744   4.453  18.135  0.00  0.00    +0.000 C 
ATOM      7  C   UNL     1       6.263   4.327  17.990  0.00  0.00    +0.000 C 
ATOM      8  C   UNL     1       6.598   4.802  16.575  0.00  0.00    +0.000 C 
ATOM      9  N   UNL     1       5.346   5.208  15.933  0.00  0.00    +0.000 NA
ATOM     10  C   UNL     1       5.216   6.657  15.836  0.00  0.00    +0.000 C 
ATOM     11  C   UNL     1       4.269   4.552  16.681  0.00  0.00    +0.000 C 
ATOM     12  C   UNL     1       4.327   5.697  18.941  0.00  0.00    +0.000 C 
ENDROOT
BRANCH   1  13
ATOM     13  C   UNL     1       2.136   7.409  19.832  0.00  0.00    +0.000 C 
BRANCH  13  18
ATOM     14  C   UNL     1      -1.021  11.551  22.480  0.00  0.00    +0.000 C 
ATOM     15  C   UNL     1       0.076  10.735  21.799  0.00  0.00    +0.000 C 
ATOM     16  C   UNL     1       0.411   9.492  22.631  0.00  0.00    +0.000 C 
ATOM     17  C   UNL     1       1.469   8.629  21.951  0.00  0.00    +0.000 C 
ATOM     18  C   UNL     1       1.039   8.221  20.532  0.00  0.00    +0.000 C 
ATOM     19  C   UNL     1       0.715   9.473  19.700  0.00  0.00    +0.000 C 
ATOM     20  C   UNL     1      -0.340  10.345  20.376  0.00  0.00    +0.000 C 
ENDBRANCH  13  18
ENDBRANCH   1  13
TORSDOF 2
ENDMDL
MODEL 6
REMARK VINA RESULT:      -6.4      2.507      6.343
REMARK  Name = 
REMARK  4 active torsions:
REMARK  status: ('A' for Active; 'I' for Inactive)
REMARK    1  A    between atoms: C_1  and  C_2
REMARK    2  A    between atoms: C_5  and  C_6
REMARK    3  A    between atoms: C_6  and  C_7
REMARK    4  A    between atoms: N_15  and  C_16
REMARK                            x       y       z     vdW  Elec       q    Type
REMARK                         _______ _______ _______ _____ _____    ______ ____
ROOT
ATOM      1  C   UNL     1       2.365   4.692  19.201  0.00  0.00    +0.000 C 
ATOM      2  O   UNL     1       1.200   4.320  19.073  0.00  0.00    +0.000 OA
ATOM      3  N   UNL     1       3.365   4.269  18.354  0.00  0.00    +0.000 N 
ATOM      4  C   UNL     1       3.148   3.282  17.328  0.00  0.00    +0.000 C 
ATOM      5  C   UNL     1       3.984   3.792  16.166  0.00  0.00    +0.000 C 
ATOM      6  C   UNL     1       5.084   4.687  16.789  0.00  0.00    +0.000 C 
ATOM      7  C   UNL     1       6.508   4.173  16.557  0.00  0.00    +0.000 C 
ATOM      8  C   UNL     1       7.359   5.401  16.231  0.00  0.00    +0.000 C 
ATOM      9  N   UNL     1       6.487   6.576  16.292  0.00  0.00    +0.000 NA
ATOM     10  C   UNL     1       6.714   7.373  17.492  0.00  0.00    +0.000 C 
ATOM     11  C   UNL     1       5.115   6.079  16.146  0.00  0.00    +0.000 C 
ATOM     12  C   UNL     1       4.721   4.773  18.282  0.00  0.00    +0.000 C 
ENDROOT
BRANCH   1  13
ATOM     13  C   UNL     1       2.792   5.677  20.279  0.00  0.00    +0.000 C 
BRANCH  13  18
ATOM     14  C   UNL     1       0.515  10.767  18.537  0.00  0.00    +0.000 C 
ATOM     15  C   UNL     1       0.772   9.302  18.882  0.00  0.00    +0.000 C 
ATOM     16  C   UNL     1       1.940   8.756  18.056  0.00  0.00    +0.000 C 
ATOM     17  C   UNL     1       2.254   7.307  18.415  0.00  0.00    +0.000 C 
ATOM     18  C   UNL     1       2.543   7.146  19.917  0.00  0.00    +0.000 C 
ATOM     19  C   UNL     1       1.362   7.687  20.740  0.00  0.00    +0.000 C 
ATOM     20  C   UNL     1       1.038   9.134  20.383  0.00  0.00    +0.000 C 
ENDBRANCH  13  18
ENDBRANCH   1  13
TORSDOF 2
ENDMDL
MODEL 7
REMARK VINA RESULT:      -6.3      2.974      6.439
REMARK  Name = 
REMARK  4 active torsions:
REMARK  status: ('A' for Active; 'I' for Inactive)
REMARK    1  A    between atoms: C_1  and  C_2
REMARK    2  A    between atoms: C_5  and  C_6
REMARK    3  A    between atoms: C_6  and  C_7
REMARK    4  A    between atoms: N_15  and  C_16
REMARK                            x       y       z     vdW  Elec       q    Type
REMARK                         _______ _______ _______ _____ _____    ______ ____
ROOT
ATOM      1  C   UNL     1       3.278   7.189  17.874  0.00  0.00    +0.000 C 
ATOM      2  O   UNL     1       3.963   8.160  17.557  0.00  0.00    +0.000 OA
ATOM      3  N   UNL     1       3.614   5.905  17.506  0.00  0.00    +0.000 N 
ATOM      4  C   UNL     1       4.722   5.612  16.635  0.00  0.00    +0.000 C 
ATOM      5  C   UNL     1       5.313   4.345  17.230  0.00  0.00    +0.000 C 
ATOM      6  C   UNL     1       4.166   3.667  18.021  0.00  0.00    +0.000 C 
ATOM      7  C   UNL     1       3.775   2.287  17.484  0.00  0.00    +0.000 C 
ATOM      8  C   UNL     1       3.544   1.402  18.709  0.00  0.00    +0.000 C 
ATOM      9  N   UNL     1       3.765   2.223  19.901  0.00  0.00    +0.000 NA
ATOM     10  C   UNL     1       2.518   2.584  20.565  0.00  0.00    +0.000 C 
ATOM     11  C   UNL     1       4.573   3.367  19.468  0.00  0.00    +0.000 C 
ATOM     12  C   UNL     1       3.004   4.675  17.968  0.00  0.00    +0.000 C 
ENDROOT
BRANCH   1  13
ATOM     13  C   UNL     1       2.027   7.319  18.731  0.00  0.00    +0.000 C 
BRANCH  13  18
ATOM     14  C   UNL     1      -0.455  12.271  20.585  0.00  0.00    +0.000 C 
ATOM     15  C   UNL     1      -0.166  10.852  20.102  0.00  0.00    +0.000 C 
ATOM     16  C   UNL     1       0.460  10.881  18.704  0.00  0.00    +0.000 C 
ATOM     17  C   UNL     1       0.807   9.479  18.214  0.00  0.00    +0.000 C 
ATOM     18  C   UNL     1       1.737   8.750  19.199  0.00  0.00    +0.000 C 
ATOM     19  C   UNL     1       1.098   8.715  20.597  0.00  0.00    +0.000 C 
ATOM     20  C   UNL     1       0.743  10.114  21.092  0.00  0.00    +0.000 C 
ENDBRANCH  13  18
ENDBRANCH   1  13
TORSDOF 2
ENDMDL
MODEL 8
REMARK VINA RESULT:      -6.2      1.517      2.605
REMARK  Name = 
REMARK  4 active torsions:
REMARK  status: ('A' for Active; 'I' for Inactive)
REMARK    1  A    between atoms: C_1  and  C_2
REMARK    2  A    between atoms: C_5  and  C_6
REMARK    3  A    between atoms: C_6  and  C_7
REMARK    4  A    between atoms: N_15  and  C_16
REMARK                            x       y       z     vdW  Elec       q    Type
REMARK                         _______ _______ _______ _____ _____    ______ ____
ROOT
ATOM      1  C   UNL     1       6.521   5.793  16.224  0.00  0.00    +0.000 C 
ATOM      2  O   UNL     1       7.456   6.592  16.246  0.00  0.00    +0.000 OA
ATOM      3  N   UNL     1       6.138   5.084  17.340  0.00  0.00    +0.000 N 
ATOM      4  C   UNL     1       6.864   5.140  18.583  0.00  0.00    +0.000 C 
ATOM      5  C   UNL     1       5.767   5.125  19.634  0.00  0.00    +0.000 C 
ATOM      6  C   UNL     1       4.540   4.458  18.964  0.00  0.00    +0.000 C 
ATOM      7  C   UNL     1       4.105   3.149  19.629  0.00  0.00    +0.000 C 
ATOM      8  C   UNL     1       2.577   3.176  19.666  0.00  0.00    +0.000 C 
ATOM      9  N   UNL     1       2.136   4.421  19.035  0.00  0.00    +0.000 NA
ATOM     10  C   UNL     1       1.590   4.204  17.700  0.00  0.00    +0.000 C 
ATOM     11  C   UNL     1       3.285   5.332  19.077  0.00  0.00    +0.000 C 
ATOM     12  C   UNL     1       4.953   4.266  17.492  0.00  0.00    +0.000 C 
ENDROOT
BRANCH   1  13
ATOM     13  C   UNL     1       5.687   5.549  14.974  0.00  0.00    +0.000 C 
BRANCH  13  18
ATOM     14  C   UNL     1       7.116   1.883  10.657  0.00  0.00    +0.000 C 
ATOM     15  C   UNL     1       6.631   3.063  11.496  0.00  0.00    +0.000 C 
ATOM     16  C   UNL     1       5.477   2.632  12.406  0.00  0.00    +0.000 C 
ATOM     17  C   UNL     1       5.004   3.778  13.295  0.00  0.00    +0.000 C 
ATOM     18  C   UNL     1       6.157   4.356  14.134  0.00  0.00    +0.000 C 
ATOM     19  C   UNL     1       7.307   4.796  13.213  0.00  0.00    +0.000 C 
ATOM     20  C   UNL     1       7.783   3.656  12.317  0.00  0.00    +0.000 C 
ENDBRANCH  13  18
ENDBRANCH   1  13
TORSDOF 2
ENDMDL
MODEL 9
REMARK VINA RESULT:      -6.2      1.363      1.758
REMARK  Name = 
REMARK  4 active torsions:
REMARK  status: ('A' for Active; 'I' for Inactive)
REMARK    1  A    between atoms: C_1  and  C_2
REMARK    2  A    between atoms: C_5  and  C_6
REMARK    3  A    between atoms: C_6  and  C_7
REMARK    4  A    between atoms: N_15  and  C_16
REMARK                            x       y       z     vdW  Elec       q    Type
REMARK                         _______ _______ _______ _____ _____    ______ ____
ROOT
ATOM      1  C   UNL     1       3.861   7.004  18.289  0.00  0.00    +0.000 C 
ATOM      2  O   UNL     1       3.393   8.005  17.750  0.00  0.00    +0.000 OA
ATOM      3  N   UNL     1       3.212   6.355  19.315  0.00  0.00    +0.000 N 
ATOM      4  C   UNL     1       1.998   6.856  19.907  0.00  0.00    +0.000 C 
ATOM      5  C   UNL     1       1.184   5.598  20.160  0.00  0.00    +0.000 C 
ATOM      6  C   UNL     1       2.205   4.438  20.261  0.00  0.00    +0.000 C 
ATOM      7  C   UNL     1       2.226   3.747  21.628  0.00  0.00    +0.000 C 
ATOM      8  C   UNL     1       2.347   2.249  21.348  0.00  0.00    +0.000 C 
ATOM      9  N   UNL     1       2.417   2.070  19.896  0.00  0.00    +0.000 NA
ATOM     10  C   UNL     1       3.763   1.742  19.442  0.00  0.00    +0.000 C 
ATOM     11  C   UNL     1       1.860   3.291  19.304  0.00  0.00    +0.000 C 
ATOM     12  C   UNL     1       3.559   5.075  19.898  0.00  0.00    +0.000 C 
ENDROOT
BRANCH   1  13
ATOM     13  C   UNL     1       5.174   6.376  17.843  0.00  0.00    +0.000 C 
BRANCH  13  18
ATOM     14  C   UNL     1       6.150   3.440  12.888  0.00  0.00    +0.000 C 
ATOM     15  C   UNL     1       6.259   4.310  14.138  0.00  0.00    +0.000 C 
ATOM     16  C   UNL     1       5.284   5.488  14.055  0.00  0.00    +0.000 C 
ATOM     17  C   UNL     1       5.333   6.348  15.313  0.00  0.00    +0.000 C 
ATOM     18  C   UNL     1       5.058   5.517  16.578  0.00  0.00    +0.000 C 
ATOM     19  C   UNL     1       6.047   4.343  16.660  0.00  0.00    +0.000 C 
ATOM     20  C   UNL     1       6.008   3.480  15.402  0.00  0.00    +0.000 C 
ENDBRANCH  13  18
ENDBRANCH   1  13
TORSDOF 2
ENDMDL
