MODEL 1
REMARK VINA RESULT:      -8.1      0.000      0.000
REMARK  Name = 
REMARK  10 active torsions:
REMARK  status: ('A' for Active; 'I' for Inactive)
REMARK    1  A    between atoms: C_1  and  C_2
REMARK    2  A    between atoms: C_2  and  C_3
REMARK    3  A    between atoms: C_2  and  C_4
REMARK    4  A    between atoms: C_4  and  C_5
REMARK    5  A    between atoms: C_8  and  C_9
REMARK    6  A    between atoms: C_9  and  C_10
REMARK    7  A    between atoms: C_9  and  C_11
REMARK    8  A    between atoms: C_11  and  O_13
REMARK    9  A    between atoms: O_13  and  C_14
REMARK   10  A    between atoms: N_21  and  C_22
REMARK                            x       y       z     vdW  Elec       q    Type
REMARK                         _______ _______ _______ _____ _____    ______ ____
ROOT
ATOM      1  C   UNL     1       6.442   5.987  17.435  0.00  0.00    +0.000 C 
ATOM      2  C   UNL     1       7.362   7.202  17.605  0.00  0.00    +0.000 C 
ENDROOT
BRANCH   1   6
ATOM      3  C   UNL     1       6.529   4.070  13.480  0.00  0.00    +0.000 A 
ATOM      4  C   UNL     1       7.495   5.021  13.825  0.00  0.00    +0.000 A 
ATOM      5  C   UNL     1       7.508   5.615  15.100  0.00  0.00    +0.000 A 
ATOM      6  C   UNL     1       6.547   5.288  16.069  0.00  0.00    +0.000 A 
ATOM      7  C   UNL     1       5.628   4.277  15.738  0.00  0.00    +0.000 A 
ATOM      8  C   UNL     1       5.611   3.689  14.462  0.00  0.00    +0.000 A 
BRANCH   3   9
ATOM      9  C   UNL     1       6.436   3.513  12.069  0.00  0.00    +0.000 C 
BRANCH   9  11
ATOM     10  C   UNL     1       4.120   3.041  11.125  0.00  0.00    +0.000 C 
ATOM     11  C   UNL     1       5.334   2.455  11.850  0.00  0.00    +0.000 C 
ATOM     12  C   UNL     1       5.862   1.259  11.048  0.00  0.00    +0.000 C 
ENDBRANCH   9  11
ENDBRANCH   3   9
ENDBRANCH   1   6
BRANCH   1  13
ATOM     13  C   UNL     1       5.013   6.466  17.737  0.00  0.00    +0.000 C 
ATOM     14  O   UNL     1       4.338   7.171  16.997  0.00  0.00    +0.000 OA
BRANCH  13  15
ATOM     15  O   UNL     1       4.574   6.024  18.947  0.00  0.00    +0.000 OA
BRANCH  15  16
ATOM     16  C   UNL     1       3.533   5.010  19.029  0.00  0.00    +0.000 C 
ATOM     17  C   UNL     1       4.062   3.573  19.238  0.00  0.00    +0.000 C 
ATOM     18  C   UNL     1       2.934   2.586  19.624  0.00  0.00    +0.000 C 
ATOM     19  C   UNL     1       2.673   2.520  21.143  0.00  0.00    +0.000 C 
ATOM     20  C   UNL     1       1.473   3.434  21.384  0.00  0.00    +0.000 C 
ATOM     21  C   UNL     1       1.335   4.179  20.056  0.00  0.00    +0.000 C 
ATOM     22  C   UNL     1       2.380   5.335  19.994  0.00  0.00    +0.000 C 
ATOM     23  N   UNL     1       1.692   3.142  19.058  0.00  0.00    +0.000 NA
ATOM     24  C   UNL     1       0.662   2.122  18.858  0.00  0.00    +0.000 C 
ENDBRANCH  15  16
ENDBRANCH  13  15
ENDBRANCH   1  13
TORSDOF 6
ENDMDL
MODEL 2
REMARK VINA RESULT:      -8.1      1.402      2.334
REMARK  Name = 
REMARK  10 active torsions:
REMARK  status: ('A' for Active; 'I' for Inactive)
REMARK    1  A    between atoms: C_1  and  C_2
REMARK    2  A    between atoms: C_2  and  C_3
REMARK    3  A    between atoms: C_2  and  C_4
REMARK    4  A    between atoms: C_4  and  C_5
REMARK    5  A    between atoms: C_8  and  C_9
REMARK    6  A    between atoms: C_9  and  C_10
REMARK    7  A    between atoms: C_9  and  C_11
REMARK    8  A    between atoms: C_11  and  O_13
REMARK    9  A    between atoms: O_13  and  C_14
REMARK   10  A    between atoms: N_21  and  C_22
REMARK                            x       y       z     vdW  Elec       q    Type
REMARK                         _______ _______ _______ _____ _____    ______ ____
ROOT
ATOM      1  C   UNL     1       7.601   6.205  17.928  0.00  0.00    +0.000 C 
ATOM      2  C   UNL     1       7.718   7.734  17.916  0.00  0.00    +0.000 C 
ENDROOT
BRANCH   1   6
ATOM      3  C   UNL     1       5.675   4.315  14.457  0.00  0.00    +0.000 A 
ATOM      4  C   UNL     1       5.419   5.656  14.764  0.00  0.00    +0.000 A 
ATOM      5  C   UNL     1       6.057   6.289  15.846  0.00  0.00    +0.000 A 
ATOM      6  C   UNL     1       6.963   5.600  16.666  0.00  0.00    +0.000 A 
ATOM      7  C   UNL     1       7.270   4.276  16.304  0.00  0.00    +0.000 A 
ATOM      8  C   UNL     1       6.628   3.642  15.227  0.00  0.00    +0.000 A 
BRANCH   3   9
ATOM      9  C   UNL     1       4.904   3.591  13.367  0.00  0.00    +0.000 C 
BRANCH   9  11
ATOM     10  C   UNL     1       7.024   4.105  12.057  0.00  0.00    +0.000 C 
ATOM     11  C   UNL     1       5.629   3.479  12.009  0.00  0.00    +0.000 C 
ATOM     12  C   UNL     1       5.755   2.016  11.564  0.00  0.00    +0.000 C 
ENDBRANCH   9  11
ENDBRANCH   3   9
ENDBRANCH   1   6
BRANCH   1  13
ATOM     13  C   UNL     1       6.837   5.827  19.208  0.00  0.00    +0.000 C 
ATOM     14  O   UNL     1       7.331   5.270  20.181  0.00  0.00    +0.000 OA
BRANCH  13  15
ATOM     15  O   UNL     1       5.524   6.172  19.135  0.00  0.00    +0.000 OA
BRANCH  15  16
ATOM     16  C   UNL     1       4.486   5.160  19.277  0.00  0.00    +0.000 C 
ATOM     17  C   UNL     1       3.194   5.462  18.484  0.00  0.00    +0.000 C 
ATOM     18  C   UNL     1       2.252   4.235  18.415  0.00  0.00    +0.000 C 
ATOM     19  C   UNL     1       2.553   3.302  17.224  0.00  0.00    +0.000 C 
ATOM     20  C   UNL     1       3.403   2.172  17.804  0.00  0.00    +0.000 C 
ATOM     21  C   UNL     1       3.774   2.698  19.191  0.00  0.00    +0.000 C 
ATOM     22  C   UNL     1       4.955   3.710  19.067  0.00  0.00    +0.000 C 
ATOM     23  N   UNL     1       2.549   3.422  19.608  0.00  0.00    +0.000 NA
ATOM     24  C   UNL     1       1.436   2.551  19.983  0.00  0.00    +0.000 C 
ENDBRANCH  15  16
ENDBRANCH  13  15
ENDBRANCH   1  13
TORSDOF 6
ENDMDL
MODEL 3
REMARK VINA RESULT:      -8.1      0.229      1.004
REMARK  Name = 
REMARK  10 active torsions:
REMARK  status: ('A' for Active; 'I' for Inactive)
REMARK    1  A    between atoms: C_1  and  C_2
REMARK    2  A    between atoms: C_2  and  C_3
REMARK    3  A    between atoms: C_2  and  C_4
REMARK    4  A    between atoms: C_4  and  C_5
REMARK    5  A    between atoms: C_8  and  C_9
REMARK    6  A    between atoms: C_9  and  C_10
REMARK    7  A    between atoms: C_9  and  C_11
REMARK    8  A    between atoms: C_11  and  O_13
REMARK    9  A    between atoms: O_13  and  C_14
REMARK   10  A    between atoms: N_21  and  C_22
REMARK                            x       y       z     vdW  Elec       q    Type
REMARK                         _______ _______ _______ _____ _____    ______ ____
ROOT
ATOM      1  C   UNL     1       6.596   5.959  17.424  0.00  0.00    +0.000 C 
ATOM      2  C   UNL     1       7.523   7.177  17.517  0.00  0.00    +0.000 C 
ENDROOT
BRANCH   1   6
ATOM      3  C   UNL     1       6.476   4.112  13.437  0.00  0.00    +0.000 A 
ATOM      4  C   UNL     1       5.504   3.795  14.391  0.00  0.00    +0.000 A 
ATOM      5  C   UNL     1       5.502   4.406  15.658  0.00  0.00    +0.000 A 
ATOM      6  C   UNL     1       6.480   5.346  16.019  0.00  0.00    +0.000 A 
ATOM      7  C   UNL     1       7.406   5.713  15.027  0.00  0.00    +0.000 A 
ATOM      8  C   UNL     1       7.412   5.098  13.764  0.00  0.00    +0.000 A 
BRANCH   3   9
ATOM      9  C   UNL     1       6.556   3.372  12.112  0.00  0.00    +0.000 C 
BRANCH   9  11
ATOM     10  C   UNL     1       4.239   3.059  11.108  0.00  0.00    +0.000 C 
ATOM     11  C   UNL     1       5.402   2.385  11.838  0.00  0.00    +0.000 C 
ATOM     12  C   UNL     1       5.881   1.186  11.009  0.00  0.00    +0.000 C 
ENDBRANCH   9  11
ENDBRANCH   3   9
ENDBRANCH   1   6
BRANCH   1  13
ATOM     13  C   UNL     1       5.232   6.395  17.985  0.00  0.00    +0.000 C 
ATOM     14  O   UNL     1       4.508   7.247  17.486  0.00  0.00    +0.000 OA
BRANCH  13  15
ATOM     15  O   UNL     1       4.916   5.727  19.128  0.00  0.00    +0.000 OA
BRANCH  15  16
ATOM     16  C   UNL     1       3.788   4.807  19.157  0.00  0.00    +0.000 C 
ATOM     17  C   UNL     1       4.177   3.336  19.428  0.00  0.00    +0.000 C 
ATOM     18  C   UNL     1       2.945   2.456  19.753  0.00  0.00    +0.000 C 
ATOM     19  C   UNL     1       2.579   2.450  21.251  0.00  0.00    +0.000 C 
ATOM     20  C   UNL     1       1.447   3.467  21.392  0.00  0.00    +0.000 C 
ATOM     21  C   UNL     1       1.464   4.188  20.044  0.00  0.00    +0.000 C 
ATOM     22  C   UNL     1       2.606   5.251  20.034  0.00  0.00    +0.000 C 
ATOM     23  N   UNL     1       1.797   3.102  19.092  0.00  0.00    +0.000 NA
ATOM     24  C   UNL     1       0.699   2.167  18.841  0.00  0.00    +0.000 C 
ENDBRANCH  15  16
ENDBRANCH  13  15
ENDBRANCH   1  13
TORSDOF 6
ENDMDL
MODEL 4
REMARK VINA RESULT:      -8.0      0.777      1.108
REMARK  Name = 
REMARK  10 active torsions:
REMARK  status: ('A' for Active; 'I' for Inactive)
REMARK    1  A    between atoms: C_1  and  C_2
REMARK    2  A    between atoms: C_2  and  C_3
REMARK    3  A    between atoms: C_2  and  C_4
REMARK    4  A    between atoms: C_4  and  C_5
REMARK    5  A    between atoms: C_8  and  C_9
REMARK    6  A    between atoms: C_9  and  C_10
REMARK    7  A    between atoms: C_9  and  C_11
REMARK    8  A    between atoms: C_11  and  O_13
REMARK    9  A    between atoms: O_13  and  C_14
REMARK   10  A    between atoms: N_21  and  C_22
REMARK                            x       y       z     vdW  Elec       q    Type
REMARK                         _______ _______ _______ _____ _____    ______ ____
ROOT
ATOM      1  C   UNL     1       6.049   6.329  17.388  0.00  0.00    +0.000 C 
ATOM      2  C   UNL     1       4.749   7.139  17.452  0.00  0.00    +0.000 C 
ENDROOT
BRANCH   1   6
ATOM      3  C   UNL     1       6.423   4.151  13.587  0.00  0.00    +0.000 A 
ATOM      4  C   UNL     1       7.492   4.911  14.074  0.00  0.00    +0.000 A 
ATOM      5  C   UNL     1       7.405   5.581  15.307  0.00  0.00    +0.000 A 
ATOM      6  C   UNL     1       6.243   5.526  16.090  0.00  0.00    +0.000 A 
ATOM      7  C   UNL     1       5.203   4.699  15.629  0.00  0.00    +0.000 A 
ATOM      8  C   UNL     1       5.287   4.035  14.393  0.00  0.00    +0.000 A 
BRANCH   3   9
ATOM      9  C   UNL     1       6.463   3.523  12.204  0.00  0.00    +0.000 C 
BRANCH   9  11
ATOM     10  C   UNL     1       4.203   3.054  11.134  0.00  0.00    +0.000 C 
ATOM     11  C   UNL     1       5.371   2.468  11.927  0.00  0.00    +0.000 C 
ATOM     12  C   UNL     1       5.940   1.266  11.161  0.00  0.00    +0.000 C 
ENDBRANCH   9  11
ENDBRANCH   3   9
ENDBRANCH   1   6
BRANCH   1  13
ATOM     13  C   UNL     1       6.077   5.434  18.638  0.00  0.00    +0.000 C 
ATOM     14  O   UNL     1       6.955   4.619  18.898  0.00  0.00    +0.000 OA
BRANCH  13  15
ATOM     15  O   UNL     1       4.994   5.639  19.434  0.00  0.00    +0.000 OA
BRANCH  15  16
ATOM     16  C   UNL     1       3.840   4.755  19.352  0.00  0.00    +0.000 C 
ATOM     17  C   UNL     1       4.168   3.262  19.578  0.00  0.00    +0.000 C 
ATOM     18  C   UNL     1       2.893   2.409  19.787  0.00  0.00    +0.000 C 
ATOM     19  C   UNL     1       2.435   2.348  21.259  0.00  0.00    +0.000 C 
ATOM     20  C   UNL     1       1.327   3.393  21.379  0.00  0.00    +0.000 C 
ATOM     21  C   UNL     1       1.448   4.173  20.069  0.00  0.00    +0.000 C 
ATOM     22  C   UNL     1       2.619   5.198  20.176  0.00  0.00    +0.000 C 
ATOM     23  N   UNL     1       1.807   3.120  19.090  0.00  0.00    +0.000 NA
ATOM     24  C   UNL     1       0.700   2.233  18.729  0.00  0.00    +0.000 C 
ENDBRANCH  15  16
ENDBRANCH  13  15
ENDBRANCH   1  13
TORSDOF 6
ENDMDL
MODEL 5
REMARK VINA RESULT:      -8.0      0.870      1.514
REMARK  Name = 
REMARK  10 active torsions:
REMARK  status: ('A' for Active; 'I' for Inactive)
REMARK    1  A    between atoms: C_1  and  C_2
REMARK    2  A    between atoms: C_2  and  C_3
REMARK    3  A    between atoms: C_2  and  C_4
REMARK    4  A    between atoms: C_4  and  C_5
REMARK    5  A    between atoms: C_8  and  C_9
REMARK    6  A    between atoms: C_9  and  C_10
REMARK    7  A    between atoms: C_9  and  C_11
REMARK    8  A    between atoms: C_11  and  O_13
REMARK    9  A    between atoms: O_13  and  C_14
REMARK   10  A    between atoms: N_21  and  C_22
REMARK                            x       y       z     vdW  Elec       q    Type
REMARK                         _______ _______ _______ _____ _____    ______ ____
ROOT
ATOM      1  C   UNL     1       6.403   5.604  17.820  0.00  0.00    +0.000 C 
ATOM      2  C   UNL     1       7.582   6.489  18.240  0.00  0.00    +0.000 C 
ENDROOT
BRANCH   1   6
ATOM      3  C   UNL     1       6.496   4.052  13.708  0.00  0.00    +0.000 A 
ATOM      4  C   UNL     1       7.504   4.910  14.162  0.00  0.00    +0.000 A 
ATOM      5  C   UNL     1       7.513   5.384  15.486  0.00  0.00    +0.000 A 
ATOM      6  C   UNL     1       6.508   5.027  16.398  0.00  0.00    +0.000 A 
ATOM      7  C   UNL     1       5.543   4.105  15.954  0.00  0.00    +0.000 A 
ATOM      8  C   UNL     1       5.530   3.637  14.629  0.00  0.00    +0.000 A 
BRANCH   3   9
ATOM      9  C   UNL     1       6.412   3.631  12.250  0.00  0.00    +0.000 C 
BRANCH   9  11
ATOM     10  C   UNL     1       4.181   3.143  11.128  0.00  0.00    +0.000 C 
ATOM     11  C   UNL     1       5.345   2.563  11.933  0.00  0.00    +0.000 C 
ATOM     12  C   UNL     1       5.949   1.386  11.155  0.00  0.00    +0.000 C 
ENDBRANCH   9  11
ENDBRANCH   3   9
ENDBRANCH   1   6
BRANCH   1  13
ATOM     13  C   UNL     1       5.127   6.439  18.019  0.00  0.00    +0.000 C 
ATOM     14  O   UNL     1       4.724   7.298  17.245  0.00  0.00    +0.000 OA
BRANCH  13  15
ATOM     15  O   UNL     1       4.489   6.122  19.178  0.00  0.00    +0.000 OA
BRANCH  15  16
ATOM     16  C   UNL     1       3.525   5.031  19.216  0.00  0.00    +0.000 C 
ATOM     17  C   UNL     1       2.669   4.898  17.936  0.00  0.00    +0.000 C 
ATOM     18  C   UNL     1       1.888   3.562  17.893  0.00  0.00    +0.000 C 
ATOM     19  C   UNL     1       2.691   2.406  17.262  0.00  0.00    +0.000 C 
ATOM     20  C   UNL     1       3.265   1.624  18.443  0.00  0.00    +0.000 C 
ATOM     21  C   UNL     1       3.007   2.555  19.628  0.00  0.00    +0.000 C 
ATOM     22  C   UNL     1       4.093   3.673  19.661  0.00  0.00    +0.000 C 
ATOM     23  N   UNL     1       1.694   3.156  19.296  0.00  0.00    +0.000 NA
ATOM     24  C   UNL     1       0.558   2.249  19.464  0.00  0.00    +0.000 C 
ENDBRANCH  15  16
ENDBRANCH  13  15
ENDBRANCH   1  13
TORSDOF 6
ENDMDL
MODEL 6
REMARK VINA RESULT:      -7.7      1.120      1.944
REMARK  Name = 
REMARK  10 active torsions:
REMARK  status: ('A' for Active; 'I' for Inactive)
REMARK    1  A    between atoms: C_1  and  C_2
REMARK    2  A    between atoms: C_2  and  C_3
REMARK    3  A    between atoms: C_2  and  C_4
REMARK    4  A    between atoms: C_4  and  C_5
REMARK    5  A    between atoms: C_8  and  C_9
REMARK    6  A    between atoms: C_9  and  C_10
REMARK    7  A    between atoms: C_9  and  C_11
REMARK    8  A    between atoms: C_11  and  O_13
REMARK    9  A    between atoms: O_13  and  C_14
REMARK   10  A    between atoms: N_21  and  C_22
REMARK                            x       y       z     vdW  Elec       q    Type
REMARK                         _______ _______ _______ _____ _____    ______ ____
ROOT
ATOM      1  C   UNL     1       6.260   6.334  17.311  0.00  0.00    +0.000 C 
ATOM      2  C   UNL     1       4.916   7.050  17.493  0.00  0.00    +0.000 C 
ENDROOT
BRANCH   1   6
ATOM      3  C   UNL     1       6.447   4.149  13.500  0.00  0.00    +0.000 A 
ATOM      4  C   UNL     1       7.575   4.817  13.987  0.00  0.00    +0.000 A 
ATOM      5  C   UNL     1       7.546   5.487  15.224  0.00  0.00    +0.000 A 
ATOM      6  C   UNL     1       6.384   5.523  16.009  0.00  0.00    +0.000 A 
ATOM      7  C   UNL     1       5.280   4.786  15.547  0.00  0.00    +0.000 A 
ATOM      8  C   UNL     1       5.307   4.122  14.309  0.00  0.00    +0.000 A 
BRANCH   3   9
ATOM      9  C   UNL     1       6.433   3.525  12.115  0.00  0.00    +0.000 C 
BRANCH   9  11
ATOM     10  C   UNL     1       4.151   3.057  11.091  0.00  0.00    +0.000 C 
ATOM     11  C   UNL     1       5.328   2.475  11.876  0.00  0.00    +0.000 C 
ATOM     12  C   UNL     1       5.873   1.255  11.122  0.00  0.00    +0.000 C 
ENDBRANCH   9  11
ENDBRANCH   3   9
ENDBRANCH   1   6
BRANCH   1  13
ATOM     13  C   UNL     1       6.475   5.467  18.562  0.00  0.00    +0.000 C 
ATOM     14  O   UNL     1       7.383   4.657  18.706  0.00  0.00    +0.000 OA
BRANCH  13  15
ATOM     15  O   UNL     1       5.521   5.690  19.505  0.00  0.00    +0.000 OA
BRANCH  15  16
ATOM     16  C   UNL     1       4.389   4.783  19.639  0.00  0.00    +0.000 C 
ATOM     17  C   UNL     1       3.009   5.469  19.515  0.00  0.00    +0.000 C 
ATOM     18  C   UNL     1       1.860   4.443  19.356  0.00  0.00    +0.000 C 
ATOM     19  C   UNL     1       1.597   4.045  17.889  0.00  0.00    +0.000 C 
ATOM     20  C   UNL     1       2.332   2.720  17.694  0.00  0.00    +0.000 C 
ATOM     21  C   UNL     1       3.198   2.620  18.950  0.00  0.00    +0.000 C 
ATOM     22  C   UNL     1       4.468   3.509  18.781  0.00  0.00    +0.000 C 
ATOM     23  N   UNL     1       2.328   3.202  19.999  0.00  0.00    +0.000 NA
ATOM     24  C   UNL     1       1.223   2.336  20.411  0.00  0.00    +0.000 C 
ENDBRANCH  15  16
ENDBRANCH  13  15
ENDBRANCH   1  13
TORSDOF 6
ENDMDL
MODEL 7
REMARK VINA RESULT:      -7.6      1.166      2.154
REMARK  Name = 
REMARK  10 active torsions:
REMARK  status: ('A' for Active; 'I' for Inactive)
REMARK    1  A    between atoms: C_1  and  C_2
REMARK    2  A    between atoms: C_2  and  C_3
REMARK    3  A    between atoms: C_2  and  C_4
REMARK    4  A    between atoms: C_4  and  C_5
REMARK    5  A    between atoms: C_8  and  C_9
REMARK    6  A    between atoms: C_9  and  C_10
REMARK    7  A    between atoms: C_9  and  C_11
REMARK    8  A    between atoms: C_11  and  O_13
REMARK    9  A    between atoms: O_13  and  C_14
REMARK   10  A    between atoms: N_21  and  C_22
REMARK                            x       y       z     vdW  Elec       q    Type
REMARK                         _______ _______ _______ _____ _____    ______ ____
ROOT
ATOM      1  C   UNL     1       6.347   6.088  17.397  0.00  0.00    +0.000 C 
ATOM      2  C   UNL     1       5.179   7.033  17.705  0.00  0.00    +0.000 C 
ENDROOT
BRANCH   1   6
ATOM      3  C   UNL     1       6.445   4.194  13.431  0.00  0.00    +0.000 A 
ATOM      4  C   UNL     1       5.263   4.202  14.180  0.00  0.00    +0.000 A 
ATOM      5  C   UNL     1       5.202   4.839  15.433  0.00  0.00    +0.000 A 
ATOM      6  C   UNL     1       6.323   5.477  15.985  0.00  0.00    +0.000 A 
ATOM      7  C   UNL     1       7.482   5.528  15.191  0.00  0.00    +0.000 A 
ATOM      8  C   UNL     1       7.545   4.886  13.943  0.00  0.00    +0.000 A 
BRANCH   3   9
ATOM      9  C   UNL     1       6.554   3.409  12.135  0.00  0.00    +0.000 C 
BRANCH   9  11
ATOM     10  C   UNL     1       4.259   3.064  11.090  0.00  0.00    +0.000 C 
ATOM     11  C   UNL     1       5.405   2.414  11.867  0.00  0.00    +0.000 C 
ATOM     12  C   UNL     1       5.900   1.187  11.090  0.00  0.00    +0.000 C 
ENDBRANCH   9  11
ENDBRANCH   3   9
ENDBRANCH   1   6
BRANCH   1  13
ATOM     13  C   UNL     1       6.354   5.015  18.498  0.00  0.00    +0.000 C 
ATOM     14  O   UNL     1       6.990   5.086  19.542  0.00  0.00    +0.000 OA
BRANCH  13  15
ATOM     15  O   UNL     1       5.571   3.950  18.174  0.00  0.00    +0.000 OA
BRANCH  15  16
ATOM     16  C   UNL     1       4.467   3.557  19.037  0.00  0.00    +0.000 C 
ATOM     17  C   UNL     1       3.590   4.734  19.521  0.00  0.00    +0.000 C 
ATOM     18  C   UNL     1       2.270   4.250  20.170  0.00  0.00    +0.000 C 
ATOM     19  C   UNL     1       1.128   4.050  19.153  0.00  0.00    +0.000 C 
ATOM     20  C   UNL     1       1.116   2.551  18.853  0.00  0.00    +0.000 C 
ATOM     21  C   UNL     1       2.427   2.066  19.473  0.00  0.00    +0.000 C 
ATOM     22  C   UNL     1       3.612   2.391  18.512  0.00  0.00    +0.000 C 
ATOM     23  N   UNL     1       2.543   2.899  20.693  0.00  0.00    +0.000 NA
ATOM     24  C   UNL     1       1.625   2.520  21.768  0.00  0.00    +0.000 C 
ENDBRANCH  15  16
ENDBRANCH  13  15
ENDBRANCH   1  13
TORSDOF 6
ENDMDL
MODEL 8
REMARK VINA RESULT:      -7.6      0.860      1.617
REMARK  Name = 
REMARK  10 active torsions:
REMARK  status: ('A' for Active; 'I' for Inactive)
REMARK    1  A    between atoms: C_1  and  C_2
REMARK    2  A    between atoms: C_2  and  C_3
REMARK    3  A    between atoms: C_2  and  C_4
REMARK    4  A    between atoms: C_4  and  C_5
REMARK    5  A    between atoms: C_8  and  C_9
REMARK    6  A    between atoms: C_9  and  C_10
REMARK    7  A    between atoms: C_9  and  C_11
REMARK    8  A    between atoms: C_11  and  O_13
REMARK    9  A    between atoms: O_13  and  C_14
REMARK   10  A    between atoms: N_21  and  C_22
REMARK                            x       y       z     vdW  Elec       q    Type
REMARK                         _______ _______ _______ _____ _____    ______ ____
ROOT
ATOM      1  C   UNL     1       5.906   5.267  17.982  0.00  0.00    +0.000 C 
ATOM      2  C   UNL     1       7.042   6.107  18.580  0.00  0.00    +0.000 C 
ENDROOT
BRANCH   1   6
ATOM      3  C   UNL     1       6.388   3.985  13.805  0.00  0.00    +0.000 A 
ATOM      4  C   UNL     1       7.266   4.921  14.362  0.00  0.00    +0.000 A 
ATOM      5  C   UNL     1       7.153   5.313  15.708  0.00  0.00    +0.000 A 
ATOM      6  C   UNL     1       6.150   4.792  16.540  0.00  0.00    +0.000 A 
ATOM      7  C   UNL     1       5.321   3.797  15.992  0.00  0.00    +0.000 A 
ATOM      8  C   UNL     1       5.431   3.410  14.645  0.00  0.00    +0.000 A 
BRANCH   3   9
ATOM      9  C   UNL     1       6.429   3.645  12.324  0.00  0.00    +0.000 C 
BRANCH   9  11
ATOM     10  C   UNL     1       4.234   3.029  11.194  0.00  0.00    +0.000 C 
ATOM     11  C   UNL     1       5.492   2.500  11.885  0.00  0.00    +0.000 C 
ATOM     12  C   UNL     1       6.207   1.528  10.938  0.00  0.00    +0.000 C 
ENDBRANCH   9  11
ENDBRANCH   3   9
ENDBRANCH   1   6
BRANCH   1  13
ATOM     13  C   UNL     1       4.621   6.101  18.113  0.00  0.00    +0.000 C 
ATOM     14  O   UNL     1       4.034   6.636  17.180  0.00  0.00    +0.000 OA
BRANCH  13  15
ATOM     15  O   UNL     1       4.205   6.193  19.405  0.00  0.00    +0.000 OA
BRANCH  15  16
ATOM     16  C   UNL     1       3.445   5.111  20.014  0.00  0.00    +0.000 C 
ATOM     17  C   UNL     1       1.921   5.361  20.074  0.00  0.00    +0.000 C 
ATOM     18  C   UNL     1       1.133   4.079  20.439  0.00  0.00    +0.000 C 
ATOM     19  C   UNL     1       0.765   3.219  19.213  0.00  0.00    +0.000 C 
ATOM     20  C   UNL     1       1.829   2.123  19.157  0.00  0.00    +0.000 C 
ATOM     21  C   UNL     1       2.879   2.614  20.154  0.00  0.00    +0.000 C 
ATOM     22  C   UNL     1       3.768   3.705  19.481  0.00  0.00    +0.000 C 
ATOM     23  N   UNL     1       2.059   3.238  21.218  0.00  0.00    +0.000 NA
ATOM     24  C   UNL     1       1.358   2.281  22.075  0.00  0.00    +0.000 C 
ENDBRANCH  15  16
ENDBRANCH  13  15
ENDBRANCH   1  13
TORSDOF 6
ENDMDL
MODEL 9
REMARK VINA RESULT:      -7.4      1.133      1.580
REMARK  Name = 
REMARK  10 active torsions:
REMARK  status: ('A' for Active; 'I' for Inactive)
REMARK    1  A    between atoms: C_1  and  C_2
REMARK    2  A    between atoms: C_2  and  C_3
REMARK    3  A    between atoms: C_2  and  C_4
REMARK    4  A    between atoms: C_4  and  C_5
REMARK    5  A    between atoms: C_8  and  C_9
REMARK    6  A    between atoms: C_9  and  C_10
REMARK    7  A    between atoms: C_9  and  C_11
REMARK    8  A    between atoms: C_11  and  O_13
REMARK    9  A    between atoms: O_13  and  C_14
REMARK   10  A    between atoms: N_21  and  C_22
REMARK                            x       y       z     vdW  Elec       q    Type
REMARK                         _______ _______ _______ _____ _____    ______ ____
ROOT
ATOM      1  C   UNL     1       7.376   6.017  17.881  0.00  0.00    +0.000 C 
ATOM      2  C   UNL     1       7.645   7.526  17.888  0.00  0.00    +0.000 C 
ENDROOT
BRANCH   1   6
ATOM      3  C   UNL     1       5.585   4.305  14.249  0.00  0.00    +0.000 A 
ATOM      4  C   UNL     1       5.322   5.631  14.608  0.00  0.00    +0.000 A 
ATOM      5  C   UNL     1       5.918   6.208  15.744  0.00  0.00    +0.000 A 
ATOM      6  C   UNL     1       6.787   5.476  16.567  0.00  0.00    +0.000 A 
ATOM      7  C   UNL     1       7.104   4.169  16.154  0.00  0.00    +0.000 A 
ATOM      8  C   UNL     1       6.504   3.591  15.023  0.00  0.00    +0.000 A 
BRANCH   3   9
ATOM      9  C   UNL     1       4.856   3.638  13.095  0.00  0.00    +0.000 C 
BRANCH   9  11
ATOM     10  C   UNL     1       7.117   3.967  11.974  0.00  0.00    +0.000 C 
ATOM     11  C   UNL     1       5.709   3.386  11.833  0.00  0.00    +0.000 C 
ATOM     12  C   UNL     1       5.817   1.887  11.525  0.00  0.00    +0.000 C 
ENDBRANCH   9  11
ENDBRANCH   3   9
ENDBRANCH   1   6
BRANCH   1  13
ATOM     13  C   UNL     1       6.475   5.720  19.090  0.00  0.00    +0.000 C 
ATOM     14  O   UNL     1       6.850   5.196  20.133  0.00  0.00    +0.000 OA
BRANCH  13  15
ATOM     15  O   UNL     1       5.187   6.096  18.868  0.00  0.00    +0.000 OA
BRANCH  15  16
ATOM     16  C   UNL     1       4.108   5.122  18.952  0.00  0.00    +0.000 C 
ATOM     17  C   UNL     1       4.583   3.651  18.977  0.00  0.00    +0.000 C 
ATOM     18  C   UNL     1       3.447   2.677  19.372  0.00  0.00    +0.000 C 
ATOM     19  C   UNL     1       3.318   2.475  20.896  0.00  0.00    +0.000 C 
ATOM     20  C   UNL     1       2.189   3.409  21.330  0.00  0.00    +0.000 C 
ATOM     21  C   UNL     1       1.972   4.283  20.095  0.00  0.00    +0.000 C 
ATOM     22  C   UNL     1       3.062   5.398  20.045  0.00  0.00    +0.000 C 
ATOM     23  N   UNL     1       2.188   3.335  18.977  0.00  0.00    +0.000 NA
ATOM     24  C   UNL     1       1.097   2.381  18.779  0.00  0.00    +0.000 C 
ENDBRANCH  15  16
ENDBRANCH  13  15
ENDBRANCH   1  13
TORSDOF 6
ENDMDL
