MODEL 1
REMARK VINA RESULT:      -6.8      0.000      0.000
REMARK  Name = 
REMARK  20 active torsions:
REMARK  status: ('A' for Active; 'I' for Inactive)
REMARK    1  A    between atoms: C_1  and  C_2
REMARK    2  A    between atoms: C_2  and  C_3
REMARK    3  A    between atoms: C_3  and  C_4
REMARK    4  A    between atoms: C_4  and  C_5
REMARK    5  A    between atoms: C_5  and  C_6
REMARK    6  A    between atoms: C_6  and  N_7
REMARK    7  A    between atoms: N_7  and  C_8
REMARK    8  A    between atoms: C_8  and  N_10
REMARK    9  A    between atoms: N_10  and  C_11
REMARK   10  A    between atoms: C_13  and  C_14
REMARK   11  A    between atoms: C_15  and  C_16
REMARK   12  A    between atoms: N_18  and  O_19
REMARK   13  A    between atoms: C_22  and  O_23
REMARK   14  A    between atoms: O_23  and  C_24
REMARK   15  A    between atoms: C_24  and  C_25
REMARK   16  A    between atoms: C_25  and  N_26
REMARK   17  A    between atoms: N_26  and  C_27
REMARK   18  A    between atoms: N_26  and  C_29
REMARK   19  A    between atoms: C_27  and  C_28
REMARK   20  A    between atoms: C_29  and  C_30
REMARK                            x       y       z     vdW  Elec       q    Type
REMARK                         _______ _______ _______ _____ _____    ______ ____
ROOT
ATOM      1  C   UNL     1       3.966   6.314  17.731  0.00  0.00    +0.000 A 
ATOM      2  C   UNL     1       3.214   7.470  17.446  0.00  0.00    +0.000 A 
ATOM      3  C   UNL     1       2.343   8.037  18.390  0.00  0.00    +0.000 A 
ATOM      4  C   UNL     1       2.224   7.417  19.636  0.00  0.00    +0.000 A 
ATOM      5  C   UNL     1       3.029   6.323  19.963  0.00  0.00    +0.000 A 
ATOM      6  C   UNL     1       3.944   5.794  19.043  0.00  0.00    +0.000 A 
ENDROOT
BRANCH   3   7
ATOM      7  C   UNL     1       1.538   9.210  18.012  0.00  0.00    +0.000 C 
ATOM      8  C   UNL     1       0.604   9.767  18.803  0.00  0.00    +0.000 C 
BRANCH   8   9
ATOM      9  C   UNL     1      -0.156  10.957  18.350  0.00  0.00    +0.000 C 
ATOM     10  O   UNL     1       0.037  12.091  18.776  0.00  0.00    +0.000 OA
ATOM     11  N   UNL     1      -1.102  10.664  17.407  0.00  0.00    +0.000 N 
ATOM     12  H   UNL     1      -1.311   9.743  17.043  0.00  0.00    +0.000 HD
BRANCH  11  13
ATOM     13  O   UNL     1      -1.892  11.731  16.930  0.00  0.00    +0.000 OA
ATOM     14  H   UNL     1      -2.807  11.406  17.111  0.00  0.00    +0.000 HD
ENDBRANCH  11  13
ENDBRANCH   8   9
ENDBRANCH   3   7
BRANCH   1  15
ATOM     15  N   UNL     1       4.687   5.784  16.628  0.00  0.00    +0.000 N 
ATOM     16  H   UNL     1       4.195   5.124  16.035  0.00  0.00    +0.000 HD
BRANCH  15  17
ATOM     17  C   UNL     1       5.979   6.025  16.230  0.00  0.00    +0.000 C 
ATOM     18  S   UNL     1       7.067   6.608  17.356  0.00  0.00    +0.000 S 
BRANCH  17  19
ATOM     19  N   UNL     1       6.235   5.788  14.912  0.00  0.00    +0.000 N 
ATOM     20  H   UNL     1       5.747   6.421  14.295  0.00  0.00    +0.000 HD
BRANCH  19  21
ATOM     21  C   UNL     1       7.362   5.068  14.338  0.00  0.00    +0.000 C 
BRANCH  21  22
ATOM     22  C   UNL     1       7.034   4.508  12.951  0.00  0.00    +0.000 C 
BRANCH  22  23
ATOM     23  C   UNL     1       5.951   3.425  12.988  0.00  0.00    +0.000 C 
BRANCH  23  24
ATOM     24  C   UNL     1       4.645   3.892  12.341  0.00  0.00    +0.000 C 
BRANCH  24  26
ATOM     25  C   UNL     1       3.316   3.643  10.205  0.00  0.00    +0.000 C 
ATOM     26  C   UNL     1       4.262   2.968  11.184  0.00  0.00    +0.000 C 
ENDBRANCH  24  26
ENDBRANCH  23  24
ENDBRANCH  22  23
ENDBRANCH  21  22
ENDBRANCH  19  21
ENDBRANCH  17  19
ENDBRANCH  15  17
ENDBRANCH   1  15
BRANCH   6  27
ATOM     27  O   UNL     1       4.756   4.837  19.610  0.00  0.00    +0.000 OA
BRANCH  27  28
ATOM     28  C   UNL     1       4.876   3.598  18.904  0.00  0.00    +0.000 C 
BRANCH  28  29
ATOM     29  C   UNL     1       3.887   2.521  19.367  0.00  0.00    +0.000 C 
BRANCH  29  30
ATOM     30  N   UNL     1       2.471   2.975  19.314  0.00  0.00    +0.000 NA
BRANCH  30  31
ATOM     31  C   UNL     1       1.693   2.327  20.381  0.00  0.00    +0.000 C 
ATOM     32  C   UNL     1       1.905   2.910  21.776  0.00  0.00    +0.000 C 
ENDBRANCH  30  31
BRANCH  30  33
ATOM     33  C   UNL     1       1.853   2.868  17.978  0.00  0.00    +0.000 C 
ATOM     34  C   UNL     1       1.106   4.102  17.482  0.00  0.00    +0.000 C 
ENDBRANCH  30  33
ENDBRANCH  29  30
ENDBRANCH  28  29
ENDBRANCH  27  28
ENDBRANCH   6  27
TORSDOF 17
ENDMDL
MODEL 2
REMARK VINA RESULT:      -6.5      2.391      6.689
REMARK  Name = 
REMARK  20 active torsions:
REMARK  status: ('A' for Active; 'I' for Inactive)
REMARK    1  A    between atoms: C_1  and  C_2
REMARK    2  A    between atoms: C_2  and  C_3
REMARK    3  A    between atoms: C_3  and  C_4
REMARK    4  A    between atoms: C_4  and  C_5
REMARK    5  A    between atoms: C_5  and  C_6
REMARK    6  A    between atoms: C_6  and  N_7
REMARK    7  A    between atoms: N_7  and  C_8
REMARK    8  A    between atoms: C_8  and  N_10
REMARK    9  A    between atoms: N_10  and  C_11
REMARK   10  A    between atoms: C_13  and  C_14
REMARK   11  A    between atoms: C_15  and  C_16
REMARK   12  A    between atoms: N_18  and  O_19
REMARK   13  A    between atoms: C_22  and  O_23
REMARK   14  A    between atoms: O_23  and  C_24
REMARK   15  A    between atoms: C_24  and  C_25
REMARK   16  A    between atoms: C_25  and  N_26
REMARK   17  A    between atoms: N_26  and  C_27
REMARK   18  A    between atoms: N_26  and  C_29
REMARK   19  A    between atoms: C_27  and  C_28
REMARK   20  A    between atoms: C_29  and  C_30
REMARK                            x       y       z     vdW  Elec       q    Type
REMARK                         _______ _______ _______ _____ _____    ______ ____
ROOT
ATOM      1  C   UNL     1       4.286   4.188  16.937  0.00  0.00    +0.000 A 
ATOM      2  C   UNL     1       3.458   5.214  17.432  0.00  0.00    +0.000 A 
ATOM      3  C   UNL     1       3.872   6.556  17.445  0.00  0.00    +0.000 A 
ATOM      4  C   UNL     1       5.146   6.860  16.962  0.00  0.00    +0.000 A 
ATOM      5  C   UNL     1       5.942   5.866  16.387  0.00  0.00    +0.000 A 
ATOM      6  C   UNL     1       5.504   4.537  16.316  0.00  0.00    +0.000 A 
ENDROOT
BRANCH   3   7
ATOM      7  C   UNL     1       2.986   7.575  18.032  0.00  0.00    +0.000 C 
ATOM      8  C   UNL     1       2.374   7.443  19.222  0.00  0.00    +0.000 C 
BRANCH   8   9
ATOM      9  C   UNL     1       1.505   8.524  19.748  0.00  0.00    +0.000 C 
ATOM     10  O   UNL     1       1.251   9.554  19.133  0.00  0.00    +0.000 OA
ATOM     11  N   UNL     1       1.013   8.259  20.996  0.00  0.00    +0.000 N 
ATOM     12  H   UNL     1       1.213   7.435  21.550  0.00  0.00    +0.000 HD
BRANCH  11  13
ATOM     13  O   UNL     1       0.192   9.240  21.590  0.00  0.00    +0.000 OA
ATOM     14  H   UNL     1       0.777   9.592  22.303  0.00  0.00    +0.000 HD
ENDBRANCH  11  13
ENDBRANCH   8   9
ENDBRANCH   3   7
BRANCH   1  15
ATOM     15  N   UNL     1       3.783   2.873  17.124  0.00  0.00    +0.000 N 
ATOM     16  H   UNL     1       3.661   2.307  16.292  0.00  0.00    +0.000 HD
BRANCH  15  17
ATOM     17  C   UNL     1       3.421   2.232  18.283  0.00  0.00    +0.000 C 
ATOM     18  S   UNL     1       4.489   2.236  19.568  0.00  0.00    +0.000 S 
BRANCH  17  19
ATOM     19  N   UNL     1       2.207   1.612  18.250  0.00  0.00    +0.000 N 
ATOM     20  H   UNL     1       2.277   0.605  18.235  0.00  0.00    +0.000 HD
BRANCH  19  21
ATOM     21  C   UNL     1       0.914   2.163  18.628  0.00  0.00    +0.000 C 
BRANCH  21  22
ATOM     22  C   UNL     1       0.963   3.687  18.776  0.00  0.00    +0.000 C 
BRANCH  22  23
ATOM     23  C   UNL     1       0.732   4.151  20.218  0.00  0.00    +0.000 C 
BRANCH  23  24
ATOM     24  C   UNL     1       2.035   4.564  20.907  0.00  0.00    +0.000 C 
BRANCH  24  26
ATOM     25  C   UNL     1       1.471   2.369  22.027  0.00  0.00    +0.000 C 
ATOM     26  C   UNL     1       2.369   3.594  22.042  0.00  0.00    +0.000 C 
ENDBRANCH  24  26
ENDBRANCH  23  24
ENDBRANCH  22  23
ENDBRANCH  21  22
ENDBRANCH  19  21
ENDBRANCH  17  19
ENDBRANCH  15  17
ENDBRANCH   1  15
BRANCH   6  27
ATOM     27  O   UNL     1       6.351   3.751  15.566  0.00  0.00    +0.000 OA
BRANCH  27  28
ATOM     28  C   UNL     1       6.558   4.146  14.206  0.00  0.00    +0.000 C 
BRANCH  28  29
ATOM     29  C   UNL     1       5.305   4.028  13.328  0.00  0.00    +0.000 C 
BRANCH  29  30
ATOM     30  N   UNL     1       5.596   3.483  11.975  0.00  0.00    +0.000 NA
BRANCH  30  31
ATOM     31  C   UNL     1       4.436   2.730  11.475  0.00  0.00    +0.000 C 
ATOM     32  C   UNL     1       3.501   3.519  10.561  0.00  0.00    +0.000 C 
ENDBRANCH  30  31
BRANCH  30  33
ATOM     33  C   UNL     1       6.871   2.744  11.884  0.00  0.00    +0.000 C 
ATOM     34  C   UNL     1       6.947   1.664  10.809  0.00  0.00    +0.000 C 
ENDBRANCH  30  33
ENDBRANCH  29  30
ENDBRANCH  28  29
ENDBRANCH  27  28
ENDBRANCH   6  27
TORSDOF 17
ENDMDL
MODEL 3
REMARK VINA RESULT:      -6.5      3.235      5.088
REMARK  Name = 
REMARK  20 active torsions:
REMARK  status: ('A' for Active; 'I' for Inactive)
REMARK    1  A    between atoms: C_1  and  C_2
REMARK    2  A    between atoms: C_2  and  C_3
REMARK    3  A    between atoms: C_3  and  C_4
REMARK    4  A    between atoms: C_4  and  C_5
REMARK    5  A    between atoms: C_5  and  C_6
REMARK    6  A    between atoms: C_6  and  N_7
REMARK    7  A    between atoms: N_7  and  C_8
REMARK    8  A    between atoms: C_8  and  N_10
REMARK    9  A    between atoms: N_10  and  C_11
REMARK   10  A    between atoms: C_13  and  C_14
REMARK   11  A    between atoms: C_15  and  C_16
REMARK   12  A    between atoms: N_18  and  O_19
REMARK   13  A    between atoms: C_22  and  O_23
REMARK   14  A    between atoms: O_23  and  C_24
REMARK   15  A    between atoms: C_24  and  C_25
REMARK   16  A    between atoms: C_25  and  N_26
REMARK   17  A    between atoms: N_26  and  C_27
REMARK   18  A    between atoms: N_26  and  C_29
REMARK   19  A    between atoms: C_27  and  C_28
REMARK   20  A    between atoms: C_29  and  C_30
REMARK                            x       y       z     vdW  Elec       q    Type
REMARK                         _______ _______ _______ _____ _____    ______ ____
ROOT
ATOM      1  C   UNL     1       4.647   5.927  17.896  0.00  0.00    +0.000 A 
ATOM      2  C   UNL     1       3.986   7.170  17.917  0.00  0.00    +0.000 A 
ATOM      3  C   UNL     1       2.592   7.268  17.787  0.00  0.00    +0.000 A 
ATOM      4  C   UNL     1       1.858   6.091  17.622  0.00  0.00    +0.000 A 
ATOM      5  C   UNL     1       2.490   4.847  17.690  0.00  0.00    +0.000 A 
ATOM      6  C   UNL     1       3.874   4.746  17.882  0.00  0.00    +0.000 A 
ENDROOT
BRANCH   3   7
ATOM      7  C   UNL     1       1.965   8.600  17.754  0.00  0.00    +0.000 C 
ATOM      8  C   UNL     1       1.430   9.205  18.830  0.00  0.00    +0.000 C 
BRANCH   8   9
ATOM      9  C   UNL     1       0.828  10.556  18.714  0.00  0.00    +0.000 C 
ATOM     10  O   UNL     1       1.251  11.544  19.305  0.00  0.00    +0.000 OA
ATOM     11  N   UNL     1      -0.254  10.592  17.878  0.00  0.00    +0.000 N 
ATOM     12  H   UNL     1      -0.652   9.800  17.388  0.00  0.00    +0.000 HD
BRANCH  11  13
ATOM     13  O   UNL     1      -0.909  11.831  17.721  0.00  0.00    +0.000 OA
ATOM     14  H   UNL     1      -1.754  11.563  17.285  0.00  0.00    +0.000 HD
ENDBRANCH  11  13
ENDBRANCH   8   9
ENDBRANCH   3   7
BRANCH   1  15
ATOM     15  N   UNL     1       6.065   6.004  17.894  0.00  0.00    +0.000 N 
ATOM     16  H   UNL     1       6.529   5.929  18.793  0.00  0.00    +0.000 HD
BRANCH  15  17
ATOM     17  C   UNL     1       6.930   6.174  16.841  0.00  0.00    +0.000 C 
ATOM     18  S   UNL     1       6.910   5.056  15.600  0.00  0.00    +0.000 S 
BRANCH  17  19
ATOM     19  N   UNL     1       7.760   7.251  16.939  0.00  0.00    +0.000 N 
ATOM     20  H   UNL     1       8.476   7.265  16.227  0.00  0.00    +0.000 HD
BRANCH  19  21
ATOM     21  C   UNL     1       7.512   8.509  17.628  0.00  0.00    +0.000 C 
BRANCH  21  22
ATOM     22  C   UNL     1       8.760   9.017  18.356  0.00  0.00    +0.000 C 
BRANCH  22  23
ATOM     23  C   UNL     1       8.901  10.542  18.300  0.00  0.00    +0.000 C 
BRANCH  23  24
ATOM     24  C   UNL     1       9.901  11.068  19.332  0.00  0.00    +0.000 C 
BRANCH  24  26
ATOM     25  C   UNL     1      12.328  11.696  19.654  0.00  0.00    +0.000 C 
ATOM     26  C   UNL     1      11.209  11.474  18.651  0.00  0.00    +0.000 C 
ENDBRANCH  24  26
ENDBRANCH  23  24
ENDBRANCH  22  23
ENDBRANCH  21  22
ENDBRANCH  19  21
ENDBRANCH  17  19
ENDBRANCH  15  17
ENDBRANCH   1  15
BRANCH   6  27
ATOM     27  O   UNL     1       4.276   3.445  18.090  0.00  0.00    +0.000 OA
BRANCH  27  28
ATOM     28  C   UNL     1       4.786   3.131  19.389  0.00  0.00    +0.000 C 
BRANCH  28  29
ATOM     29  C   UNL     1       3.778   2.412  20.296  0.00  0.00    +0.000 C 
BRANCH  29  30
ATOM     30  N   UNL     1       2.432   3.045  20.279  0.00  0.00    +0.000 NA
BRANCH  30  31
ATOM     31  C   UNL     1       2.298   3.975  21.411  0.00  0.00    +0.000 C 
ATOM     32  C   UNL     1       1.737   5.349  21.053  0.00  0.00    +0.000 C 
ENDBRANCH  30  31
BRANCH  30  33
ATOM     33  C   UNL     1       1.315   2.087  20.160  0.00  0.00    +0.000 C 
ATOM     34  C   UNL     1       0.581   2.072  18.823  0.00  0.00    +0.000 C 
ENDBRANCH  30  33
ENDBRANCH  29  30
ENDBRANCH  28  29
ENDBRANCH  27  28
ENDBRANCH   6  27
TORSDOF 17
ENDMDL
MODEL 4
REMARK VINA RESULT:      -6.4      3.251      7.725
REMARK  Name = 
REMARK  20 active torsions:
REMARK  status: ('A' for Active; 'I' for Inactive)
REMARK    1  A    between atoms: C_1  and  C_2
REMARK    2  A    between atoms: C_2  and  C_3
REMARK    3  A    between atoms: C_3  and  C_4
REMARK    4  A    between atoms: C_4  and  C_5
REMARK    5  A    between atoms: C_5  and  C_6
REMARK    6  A    between atoms: C_6  and  N_7
REMARK    7  A    between atoms: N_7  and  C_8
REMARK    8  A    between atoms: C_8  and  N_10
REMARK    9  A    between atoms: N_10  and  C_11
REMARK   10  A    between atoms: C_13  and  C_14
REMARK   11  A    between atoms: C_15  and  C_16
REMARK   12  A    between atoms: N_18  and  O_19
REMARK   13  A    between atoms: C_22  and  O_23
REMARK   14  A    between atoms: O_23  and  C_24
REMARK   15  A    between atoms: C_24  and  C_25
REMARK   16  A    between atoms: C_25  and  N_26
REMARK   17  A    between atoms: N_26  and  C_27
REMARK   18  A    between atoms: N_26  and  C_29
REMARK   19  A    between atoms: C_27  and  C_28
REMARK   20  A    between atoms: C_29  and  C_30
REMARK                            x       y       z     vdW  Elec       q    Type
REMARK                         _______ _______ _______ _____ _____    ______ ____
ROOT
ATOM      1  C   UNL     1       2.398   6.670  19.810  0.00  0.00    +0.000 A 
ATOM      2  C   UNL     1       3.425   6.229  18.953  0.00  0.00    +0.000 A 
ATOM      3  C   UNL     1       3.818   6.971  17.828  0.00  0.00    +0.000 A 
ATOM      4  C   UNL     1       3.154   8.171  17.561  0.00  0.00    +0.000 A 
ATOM      5  C   UNL     1       2.196   8.663  18.451  0.00  0.00    +0.000 A 
ATOM      6  C   UNL     1       1.847   7.954  19.608  0.00  0.00    +0.000 A 
ENDROOT
BRANCH   3   7
ATOM      7  C   UNL     1       4.856   6.428  16.936  0.00  0.00    +0.000 C 
ATOM      8  C   UNL     1       5.968   5.808  17.367  0.00  0.00    +0.000 C 
BRANCH   8   9
ATOM      9  C   UNL     1       6.960   5.278  16.401  0.00  0.00    +0.000 C 
ATOM     10  O   UNL     1       7.852   4.491  16.702  0.00  0.00    +0.000 OA
ATOM     11  N   UNL     1       6.782   5.755  15.132  0.00  0.00    +0.000 N 
ATOM     12  H   UNL     1       6.076   6.420  14.842  0.00  0.00    +0.000 HD
BRANCH  11  13
ATOM     13  O   UNL     1       7.692   5.323  14.144  0.00  0.00    +0.000 OA
ATOM     14  H   UNL     1       8.226   4.654  14.636  0.00  0.00    +0.000 HD
ENDBRANCH  11  13
ENDBRANCH   8   9
ENDBRANCH   3   7
BRANCH   1  15
ATOM     15  N   UNL     1       2.021   5.742  20.817  0.00  0.00    +0.000 N 
ATOM     16  H   UNL     1       1.996   6.086  21.770  0.00  0.00    +0.000 HD
BRANCH  15  17
ATOM     17  C   UNL     1       1.681   4.417  20.701  0.00  0.00    +0.000 C 
ATOM     18  S   UNL     1       2.160   3.359  21.903  0.00  0.00    +0.000 S 
BRANCH  17  19
ATOM     19  N   UNL     1       0.998   4.088  19.568  0.00  0.00    +0.000 N 
ATOM     20  H   UNL     1       1.130   4.754  18.820  0.00  0.00    +0.000 HD
BRANCH  19  21
ATOM     21  C   UNL     1       0.480   2.783  19.185  0.00  0.00    +0.000 C 
BRANCH  21  22
ATOM     22  C   UNL     1       1.394   2.078  18.179  0.00  0.00    +0.000 C 
BRANCH  22  23
ATOM     23  C   UNL     1       2.345   3.043  17.463  0.00  0.00    +0.000 C 
BRANCH  23  24
ATOM     24  C   UNL     1       3.808   2.794  17.836  0.00  0.00    +0.000 C 
BRANCH  24  26
ATOM     25  C   UNL     1       4.739   1.884  20.002  0.00  0.00    +0.000 C 
ATOM     26  C   UNL     1       3.926   1.578  18.756  0.00  0.00    +0.000 C 
ENDBRANCH  24  26
ENDBRANCH  23  24
ENDBRANCH  22  23
ENDBRANCH  21  22
ENDBRANCH  19  21
ENDBRANCH  17  19
ENDBRANCH  15  17
ENDBRANCH   1  15
BRANCH   6  27
ATOM     27  O   UNL     1       1.019   8.682  20.433  0.00  0.00    +0.000 OA
BRANCH  27  28
ATOM     28  C   UNL     1       0.431   9.861  19.875  0.00  0.00    +0.000 C 
BRANCH  28  29
ATOM     29  C   UNL     1       0.411  11.059  20.834  0.00  0.00    +0.000 C 
BRANCH  29  30
ATOM     30  N   UNL     1       0.817  12.331  20.178  0.00  0.00    +0.000 NA
BRANCH  30  31
ATOM     31  C   UNL     1       0.933  12.134  18.724  0.00  0.00    +0.000 C 
ATOM     32  C   UNL     1       2.275  12.545  18.124  0.00  0.00    +0.000 C 
ENDBRANCH  30  31
BRANCH  30  33
ATOM     33  C   UNL     1       1.998  12.974  20.787  0.00  0.00    +0.000 C 
ATOM     34  C   UNL     1       1.761  14.330  21.444  0.00  0.00    +0.000 C 
ENDBRANCH  30  33
ENDBRANCH  29  30
ENDBRANCH  28  29
ENDBRANCH  27  28
ENDBRANCH   6  27
TORSDOF 17
ENDMDL
MODEL 5
REMARK VINA RESULT:      -6.4      3.908      7.298
REMARK  Name = 
REMARK  20 active torsions:
REMARK  status: ('A' for Active; 'I' for Inactive)
REMARK    1  A    between atoms: C_1  and  C_2
REMARK    2  A    between atoms: C_2  and  C_3
REMARK    3  A    between atoms: C_3  and  C_4
REMARK    4  A    between atoms: C_4  and  C_5
REMARK    5  A    between atoms: C_5  and  C_6
REMARK    6  A    between atoms: C_6  and  N_7
REMARK    7  A    between atoms: N_7  and  C_8
REMARK    8  A    between atoms: C_8  and  N_10
REMARK    9  A    between atoms: N_10  and  C_11
REMARK   10  A    between atoms: C_13  and  C_14
REMARK   11  A    between atoms: C_15  and  C_16
REMARK   12  A    between atoms: N_18  and  O_19
REMARK   13  A    between atoms: C_22  and  O_23
REMARK   14  A    between atoms: O_23  and  C_24
REMARK   15  A    between atoms: C_24  and  C_25
REMARK   16  A    between atoms: C_25  and  N_26
REMARK   17  A    between atoms: N_26  and  C_27
REMARK   18  A    between atoms: N_26  and  C_29
REMARK   19  A    between atoms: C_27  and  C_28
REMARK   20  A    between atoms: C_29  and  C_30
REMARK                            x       y       z     vdW  Elec       q    Type
REMARK                         _______ _______ _______ _____ _____    ______ ____
ROOT
ATOM      1  C   UNL     1       4.894   6.197  17.302  0.00  0.00    +0.000 A 
ATOM      2  C   UNL     1       5.880   7.148  17.634  0.00  0.00    +0.000 A 
ATOM      3  C   UNL     1       7.207   6.775  17.896  0.00  0.00    +0.000 A 
ATOM      4  C   UNL     1       7.539   5.420  17.833  0.00  0.00    +0.000 A 
ATOM      5  C   UNL     1       6.594   4.478  17.419  0.00  0.00    +0.000 A 
ATOM      6  C   UNL     1       5.285   4.857  17.097  0.00  0.00    +0.000 A 
ENDROOT
BRANCH   3   7
ATOM      7  C   UNL     1       8.178   7.808  18.298  0.00  0.00    +0.000 C 
ATOM      8  C   UNL     1       8.091   9.100  17.937  0.00  0.00    +0.000 C 
BRANCH   8   9
ATOM      9  C   UNL     1       9.105  10.081  18.395  0.00  0.00    +0.000 C 
ATOM     10  O   UNL     1       9.713  10.834  17.642  0.00  0.00    +0.000 OA
ATOM     11  N   UNL     1       9.298  10.063  19.749  0.00  0.00    +0.000 N 
ATOM     12  H   UNL     1       8.836   9.445  20.405  0.00  0.00    +0.000 HD
BRANCH  11  13
ATOM     13  O   UNL     1      10.261  10.947  20.277  0.00  0.00    +0.000 OA
ATOM     14  H   UNL     1      11.018  10.821  19.655  0.00  0.00    +0.000 HD
ENDBRANCH  11  13
ENDBRANCH   8   9
ENDBRANCH   3   7
BRANCH   1  15
ATOM     15  N   UNL     1       3.575   6.714  17.208  0.00  0.00    +0.000 N 
ATOM     16  H   UNL     1       3.106   6.611  16.315  0.00  0.00    +0.000 HD
BRANCH  15  17
ATOM     17  C   UNL     1       2.815   7.351  18.158  0.00  0.00    +0.000 C 
ATOM     18  S   UNL     1       2.429   6.529  19.559  0.00  0.00    +0.000 S 
BRANCH  17  19
ATOM     19  N   UNL     1       2.417   8.614  17.832  0.00  0.00    +0.000 N 
ATOM     20  H   UNL     1       2.972   9.026  17.095  0.00  0.00    +0.000 HD
BRANCH  19  21
ATOM     21  C   UNL     1       1.129   9.239  18.096  0.00  0.00    +0.000 C 
BRANCH  21  22
ATOM     22  C   UNL     1       1.284  10.681  18.589  0.00  0.00    +0.000 C 
BRANCH  22  23
ATOM     23  C   UNL     1       0.746  10.884  20.009  0.00  0.00    +0.000 C 
BRANCH  23  24
ATOM     24  C   UNL     1       0.036   9.637  20.541  0.00  0.00    +0.000 C 
BRANCH  24  26
ATOM     25  C   UNL     1      -0.066   9.599  23.066  0.00  0.00    +0.000 C 
ATOM     26  C   UNL     1       0.700   9.155  21.832  0.00  0.00    +0.000 C 
ENDBRANCH  24  26
ENDBRANCH  23  24
ENDBRANCH  22  23
ENDBRANCH  21  22
ENDBRANCH  19  21
ENDBRANCH  17  19
ENDBRANCH  15  17
ENDBRANCH   1  15
BRANCH   6  27
ATOM     27  O   UNL     1       4.563   3.818  16.552  0.00  0.00    +0.000 OA
BRANCH  27  28
ATOM     28  C   UNL     1       3.267   3.574  17.110  0.00  0.00    +0.000 C 
BRANCH  28  29
ATOM     29  C   UNL     1       3.095   2.163  17.688  0.00  0.00    +0.000 C 
BRANCH  29  30
ATOM     30  N   UNL     1       2.832   2.166  19.151  0.00  0.00    +0.000 NA
BRANCH  30  31
ATOM     31  C   UNL     1       1.501   2.732  19.423  0.00  0.00    +0.000 C 
ATOM     32  C   UNL     1       1.164   2.900  20.902  0.00  0.00    +0.000 C 
ENDBRANCH  30  31
BRANCH  30  33
ATOM     33  C   UNL     1       3.911   2.769  19.958  0.00  0.00    +0.000 C 
ATOM     34  C   UNL     1       4.877   1.794  20.626  0.00  0.00    +0.000 C 
ENDBRANCH  30  33
ENDBRANCH  29  30
ENDBRANCH  28  29
ENDBRANCH  27  28
ENDBRANCH   6  27
TORSDOF 17
ENDMDL
MODEL 6
REMARK VINA RESULT:      -6.4      2.326      6.247
REMARK  Name = 
REMARK  20 active torsions:
REMARK  status: ('A' for Active; 'I' for Inactive)
REMARK    1  A    between atoms: C_1  and  C_2
REMARK    2  A    between atoms: C_2  and  C_3
REMARK    3  A    between atoms: C_3  and  C_4
REMARK    4  A    between atoms: C_4  and  C_5
REMARK    5  A    between atoms: C_5  and  C_6
REMARK    6  A    between atoms: C_6  and  N_7
REMARK    7  A    between atoms: N_7  and  C_8
REMARK    8  A    between atoms: C_8  and  N_10
REMARK    9  A    between atoms: N_10  and  C_11
REMARK   10  A    between atoms: C_13  and  C_14
REMARK   11  A    between atoms: C_15  and  C_16
REMARK   12  A    between atoms: N_18  and  O_19
REMARK   13  A    between atoms: C_22  and  O_23
REMARK   14  A    between atoms: O_23  and  C_24
REMARK   15  A    between atoms: C_24  and  C_25
REMARK   16  A    between atoms: C_25  and  N_26
REMARK   17  A    between atoms: N_26  and  C_27
REMARK   18  A    between atoms: N_26  and  C_29
REMARK   19  A    between atoms: C_27  and  C_28
REMARK   20  A    between atoms: C_29  and  C_30
REMARK                            x       y       z     vdW  Elec       q    Type
REMARK                         _______ _______ _______ _____ _____    ______ ____
ROOT
ATOM      1  C   UNL     1       4.975   4.613  18.576  0.00  0.00    +0.000 A 
ATOM      2  C   UNL     1       3.885   5.255  19.194  0.00  0.00    +0.000 A 
ATOM      3  C   UNL     1       3.436   6.518  18.774  0.00  0.00    +0.000 A 
ATOM      4  C   UNL     1       4.109   7.143  17.722  0.00  0.00    +0.000 A 
ATOM      5  C   UNL     1       5.134   6.480  17.043  0.00  0.00    +0.000 A 
ATOM      6  C   UNL     1       5.542   5.194  17.421  0.00  0.00    +0.000 A 
ENDROOT
BRANCH   3   7
ATOM      7  C   UNL     1       2.330   7.165  19.500  0.00  0.00    +0.000 C 
ATOM      8  C   UNL     1       1.926   8.429  19.281  0.00  0.00    +0.000 C 
BRANCH   8   9
ATOM      9  C   UNL     1       0.794   9.002  20.048  0.00  0.00    +0.000 C 
ATOM     10  O   UNL     1       0.115   9.946  19.657  0.00  0.00    +0.000 OA
ATOM     11  N   UNL     1       0.579   8.372  21.243  0.00  0.00    +0.000 N 
ATOM     12  H   UNL     1       1.126   7.606  21.615  0.00  0.00    +0.000 HD
BRANCH  11  13
ATOM     13  O   UNL     1      -0.465   8.862  22.055  0.00  0.00    +0.000 OA
ATOM     14  H   UNL     1      -0.028   9.617  22.518  0.00  0.00    +0.000 HD
ENDBRANCH  11  13
ENDBRANCH   8   9
ENDBRANCH   3   7
BRANCH   1  15
ATOM     15  N   UNL     1       5.396   3.412  19.207  0.00  0.00    +0.000 N 
ATOM     16  H   UNL     1       6.317   3.417  19.631  0.00  0.00    +0.000 HD
BRANCH  15  17
ATOM     17  C   UNL     1       4.739   2.213  19.331  0.00  0.00    +0.000 C 
ATOM     18  S   UNL     1       4.809   1.409  20.793  0.00  0.00    +0.000 S 
BRANCH  17  19
ATOM     19  N   UNL     1       4.108   1.777  18.203  0.00  0.00    +0.000 N 
ATOM     20  H   UNL     1       4.487   0.911  17.848  0.00  0.00    +0.000 HD
BRANCH  19  21
ATOM     21  C   UNL     1       2.786   2.149  17.720  0.00  0.00    +0.000 C 
BRANCH  21  22
ATOM     22  C   UNL     1       1.684   1.739  18.701  0.00  0.00    +0.000 C 
BRANCH  22  23
ATOM     23  C   UNL     1       0.547   2.764  18.779  0.00  0.00    +0.000 C 
BRANCH  23  24
ATOM     24  C   UNL     1       0.683   3.685  19.994  0.00  0.00    +0.000 C 
BRANCH  24  26
ATOM     25  C   UNL     1       2.330   3.727  21.910  0.00  0.00    +0.000 C 
ATOM     26  C   UNL     1       1.269   2.920  21.181  0.00  0.00    +0.000 C 
ENDBRANCH  24  26
ENDBRANCH  23  24
ENDBRANCH  22  23
ENDBRANCH  21  22
ENDBRANCH  19  21
ENDBRANCH  17  19
ENDBRANCH  15  17
ENDBRANCH   1  15
BRANCH   6  27
ATOM     27  O   UNL     1       6.439   4.650  16.528  0.00  0.00    +0.000 OA
BRANCH  27  28
ATOM     28  C   UNL     1       5.891   3.847  15.478  0.00  0.00    +0.000 C 
BRANCH  28  29
ATOM     29  C   UNL     1       5.999   4.487  14.087  0.00  0.00    +0.000 C 
BRANCH  29  30
ATOM     30  N   UNL     1       6.000   3.484  12.988  0.00  0.00    +0.000 NA
BRANCH  30  31
ATOM     31  C   UNL     1       6.952   3.885  11.941  0.00  0.00    +0.000 C 
ATOM     32  C   UNL     1       7.674   5.205  12.198  0.00  0.00    +0.000 C 
ENDBRANCH  30  31
BRANCH  30  33
ATOM     33  C   UNL     1       4.657   3.150  12.475  0.00  0.00    +0.000 C 
ATOM     34  C   UNL     1       4.378   3.527  11.023  0.00  0.00    +0.000 C 
ENDBRANCH  30  33
ENDBRANCH  29  30
ENDBRANCH  28  29
ENDBRANCH  27  28
ENDBRANCH   6  27
TORSDOF 17
ENDMDL
MODEL 7
REMARK VINA RESULT:      -6.4      2.999      7.433
REMARK  Name = 
REMARK  20 active torsions:
REMARK  status: ('A' for Active; 'I' for Inactive)
REMARK    1  A    between atoms: C_1  and  C_2
REMARK    2  A    between atoms: C_2  and  C_3
REMARK    3  A    between atoms: C_3  and  C_4
REMARK    4  A    between atoms: C_4  and  C_5
REMARK    5  A    between atoms: C_5  and  C_6
REMARK    6  A    between atoms: C_6  and  N_7
REMARK    7  A    between atoms: N_7  and  C_8
REMARK    8  A    between atoms: C_8  and  N_10
REMARK    9  A    between atoms: N_10  and  C_11
REMARK   10  A    between atoms: C_13  and  C_14
REMARK   11  A    between atoms: C_15  and  C_16
REMARK   12  A    between atoms: N_18  and  O_19
REMARK   13  A    between atoms: C_22  and  O_23
REMARK   14  A    between atoms: O_23  and  C_24
REMARK   15  A    between atoms: C_24  and  C_25
REMARK   16  A    between atoms: C_25  and  N_26
REMARK   17  A    between atoms: N_26  and  C_27
REMARK   18  A    between atoms: N_26  and  C_29
REMARK   19  A    between atoms: C_27  and  C_28
REMARK   20  A    between atoms: C_29  and  C_30
REMARK                            x       y       z     vdW  Elec       q    Type
REMARK                         _______ _______ _______ _____ _____    ______ ____
ROOT
ATOM      1  C   UNL     1       2.832   6.173  19.956  0.00  0.00    +0.000 A 
ATOM      2  C   UNL     1       3.833   5.664  19.105  0.00  0.00    +0.000 A 
ATOM      3  C   UNL     1       4.173   6.301  17.902  0.00  0.00    +0.000 A 
ATOM      4  C   UNL     1       3.482   7.462  17.548  0.00  0.00    +0.000 A 
ATOM      5  C   UNL     1       2.550   8.025  18.424  0.00  0.00    +0.000 A 
ATOM      6  C   UNL     1       2.255   7.425  19.654  0.00  0.00    +0.000 A 
ENDROOT
BRANCH   3   7
ATOM      7  C   UNL     1       5.186   5.688  17.025  0.00  0.00    +0.000 C 
ATOM      8  C   UNL     1       5.177   5.787  15.684  0.00  0.00    +0.000 C 
BRANCH   8   9
ATOM      9  C   UNL     1       6.243   5.148  14.874  0.00  0.00    +0.000 C 
ATOM     10  O   UNL     1       7.421   5.487  14.909  0.00  0.00    +0.000 OA
ATOM     11  N   UNL     1       5.779   4.137  14.078  0.00  0.00    +0.000 N 
ATOM     12  H   UNL     1       4.815   3.838  14.000  0.00  0.00    +0.000 HD
BRANCH  11  13
ATOM     13  O   UNL     1       6.717   3.482  13.252  0.00  0.00    +0.000 OA
ATOM     14  H   UNL     1       7.525   4.035  13.381  0.00  0.00    +0.000 HD
ENDBRANCH  11  13
ENDBRANCH   8   9
ENDBRANCH   3   7
BRANCH   1  15
ATOM     15  N   UNL     1       2.506   5.340  21.059  0.00  0.00    +0.000 N 
ATOM     16  H   UNL     1       2.655   5.727  21.984  0.00  0.00    +0.000 HD
BRANCH  15  17
ATOM     17  C   UNL     1       2.015   4.058  21.072  0.00  0.00    +0.000 C 
ATOM     18  S   UNL     1       0.538   3.759  20.351  0.00  0.00    +0.000 S 
BRANCH  17  19
ATOM     19  N   UNL     1       2.791   3.144  21.721  0.00  0.00    +0.000 N 
ATOM     20  H   UNL     1       2.561   3.054  22.700  0.00  0.00    +0.000 HD
BRANCH  19  21
ATOM     21  C   UNL     1       3.569   2.060  21.138  0.00  0.00    +0.000 C 
BRANCH  21  22
ATOM     22  C   UNL     1       4.122   2.431  19.760  0.00  0.00    +0.000 C 
BRANCH  22  23
ATOM     23  C   UNL     1       3.698   1.446  18.665  0.00  0.00    +0.000 C 
BRANCH  23  24
ATOM     24  C   UNL     1       2.386   1.858  17.994  0.00  0.00    +0.000 C 
BRANCH  24  26
ATOM     25  C   UNL     1       1.422   4.064  17.224  0.00  0.00    +0.000 C 
ATOM     26  C   UNL     1       2.595   3.103  17.131  0.00  0.00    +0.000 C 
ENDBRANCH  24  26
ENDBRANCH  23  24
ENDBRANCH  22  23
ENDBRANCH  21  22
ENDBRANCH  19  21
ENDBRANCH  17  19
ENDBRANCH  15  17
ENDBRANCH   1  15
BRANCH   6  27
ATOM     27  O   UNL     1       1.446   8.218  20.439  0.00  0.00    +0.000 OA
BRANCH  27  28
ATOM     28  C   UNL     1       0.977   9.436  19.851  0.00  0.00    +0.000 C 
BRANCH  28  29
ATOM     29  C   UNL     1      -0.414   9.864  20.337  0.00  0.00    +0.000 C 
BRANCH  29  30
ATOM     30  N   UNL     1      -0.431  11.242  20.897  0.00  0.00    +0.000 NA
BRANCH  30  31
ATOM     31  C   UNL     1       0.784  11.966  20.493  0.00  0.00    +0.000 C 
ATOM     32  C   UNL     1       0.930  13.363  21.091  0.00  0.00    +0.000 C 
ENDBRANCH  30  31
BRANCH  30  33
ATOM     33  C   UNL     1      -0.704  11.301  22.347  0.00  0.00    +0.000 C 
ATOM     34  C   UNL     1      -0.589   9.982  23.107  0.00  0.00    +0.000 C 
ENDBRANCH  30  33
ENDBRANCH  29  30
ENDBRANCH  28  29
ENDBRANCH  27  28
ENDBRANCH   6  27
TORSDOF 17
ENDMDL
MODEL 8
REMARK VINA RESULT:      -6.4      0.993      1.614
REMARK  Name = 
REMARK  20 active torsions:
REMARK  status: ('A' for Active; 'I' for Inactive)
REMARK    1  A    between atoms: C_1  and  C_2
REMARK    2  A    between atoms: C_2  and  C_3
REMARK    3  A    between atoms: C_3  and  C_4
REMARK    4  A    between atoms: C_4  and  C_5
REMARK    5  A    between atoms: C_5  and  C_6
REMARK    6  A    between atoms: C_6  and  N_7
REMARK    7  A    between atoms: N_7  and  C_8
REMARK    8  A    between atoms: C_8  and  N_10
REMARK    9  A    between atoms: N_10  and  C_11
REMARK   10  A    between atoms: C_13  and  C_14
REMARK   11  A    between atoms: C_15  and  C_16
REMARK   12  A    between atoms: N_18  and  O_19
REMARK   13  A    between atoms: C_22  and  O_23
REMARK   14  A    between atoms: O_23  and  C_24
REMARK   15  A    between atoms: C_24  and  C_25
REMARK   16  A    between atoms: C_25  and  N_26
REMARK   17  A    between atoms: N_26  and  C_27
REMARK   18  A    between atoms: N_26  and  C_29
REMARK   19  A    between atoms: C_27  and  C_28
REMARK   20  A    between atoms: C_29  and  C_30
REMARK                            x       y       z     vdW  Elec       q    Type
REMARK                         _______ _______ _______ _____ _____    ______ ____
ROOT
ATOM      1  C   UNL     1       4.342   6.680  17.772  0.00  0.00    +0.000 A 
ATOM      2  C   UNL     1       3.567   7.826  17.506  0.00  0.00    +0.000 A 
ATOM      3  C   UNL     1       2.460   8.169  18.298  0.00  0.00    +0.000 A 
ATOM      4  C   UNL     1       2.126   7.333  19.366  0.00  0.00    +0.000 A 
ATOM      5  C   UNL     1       2.937   6.244  19.694  0.00  0.00    +0.000 A 
ATOM      6  C   UNL     1       4.078   5.937  18.943  0.00  0.00    +0.000 A 
ENDROOT
BRANCH   3   7
ATOM      7  C   UNL     1       1.652   9.345  17.933  0.00  0.00    +0.000 C 
ATOM      8  C   UNL     1       0.460   9.637  18.481  0.00  0.00    +0.000 C 
BRANCH   8   9
ATOM      9  C   UNL     1      -0.285  10.850  18.066  0.00  0.00    +0.000 C 
ATOM     10  O   UNL     1      -0.039  11.977  18.482  0.00  0.00    +0.000 OA
ATOM     11  N   UNL     1      -1.282  10.587  17.167  0.00  0.00    +0.000 N 
ATOM     12  H   UNL     1      -1.536   9.673  16.813  0.00  0.00    +0.000 HD
BRANCH  11  13
ATOM     13  O   UNL     1      -2.062  11.677  16.729  0.00  0.00    +0.000 OA
ATOM     14  H   UNL     1      -2.144  12.216  17.553  0.00  0.00    +0.000 HD
ENDBRANCH  11  13
ENDBRANCH   8   9
ENDBRANCH   3   7
BRANCH   1  15
ATOM     15  N   UNL     1       5.336   6.392  16.798  0.00  0.00    +0.000 N 
ATOM     16  H   UNL     1       5.009   6.126  15.876  0.00  0.00    +0.000 HD
BRANCH  15  17
ATOM     17  C   UNL     1       6.704   6.413  16.913  0.00  0.00    +0.000 C 
ATOM     18  S   UNL     1       7.445   7.830  17.396  0.00  0.00    +0.000 S 
BRANCH  17  19
ATOM     19  N   UNL     1       7.333   5.251  16.578  0.00  0.00    +0.000 N 
ATOM     20  H   UNL     1       7.707   4.759  17.376  0.00  0.00    +0.000 HD
BRANCH  19  21
ATOM     21  C   UNL     1       7.181   4.475  15.355  0.00  0.00    +0.000 C 
BRANCH  21  22
ATOM     22  C   UNL     1       7.397   5.332  14.105  0.00  0.00    +0.000 C 
BRANCH  22  23
ATOM     23  C   UNL     1       7.012   4.605  12.813  0.00  0.00    +0.000 C 
BRANCH  23  24
ATOM     24  C   UNL     1       5.990   3.492  13.059  0.00  0.00    +0.000 C 
BRANCH  24  26
ATOM     25  C   UNL     1       5.833   1.650  11.335  0.00  0.00    +0.000 C 
ATOM     26  C   UNL     1       5.366   3.038  11.738  0.00  0.00    +0.000 C 
ENDBRANCH  24  26
ENDBRANCH  23  24
ENDBRANCH  22  23
ENDBRANCH  21  22
ENDBRANCH  19  21
ENDBRANCH  17  19
ENDBRANCH  15  17
ENDBRANCH   1  15
BRANCH   6  27
ATOM     27  O   UNL     1       4.830   4.940  19.524  0.00  0.00    +0.000 OA
BRANCH  27  28
ATOM     28  C   UNL     1       5.022   3.749  18.754  0.00  0.00    +0.000 C 
BRANCH  28  29
ATOM     29  C   UNL     1       3.730   3.191  18.142  0.00  0.00    +0.000 C 
BRANCH  29  30
ATOM     30  N   UNL     1       2.848   2.541  19.148  0.00  0.00    +0.000 NA
BRANCH  30  31
ATOM     31  C   UNL     1       1.538   3.211  19.177  0.00  0.00    +0.000 C 
ATOM     32  C   UNL     1       0.357   2.332  18.773  0.00  0.00    +0.000 C 
ENDBRANCH  30  31
BRANCH  30  33
ATOM     33  C   UNL     1       3.465   2.382  20.479  0.00  0.00    +0.000 C 
ATOM     34  C   UNL     1       2.579   2.716  21.676  0.00  0.00    +0.000 C 
ENDBRANCH  30  33
ENDBRANCH  29  30
ENDBRANCH  28  29
ENDBRANCH  27  28
ENDBRANCH   6  27
TORSDOF 17
ENDMDL
MODEL 9
REMARK VINA RESULT:      -6.3      2.992      7.542
REMARK  Name = 
REMARK  20 active torsions:
REMARK  status: ('A' for Active; 'I' for Inactive)
REMARK    1  A    between atoms: C_1  and  C_2
REMARK    2  A    between atoms: C_2  and  C_3
REMARK    3  A    between atoms: C_3  and  C_4
REMARK    4  A    between atoms: C_4  and  C_5
REMARK    5  A    between atoms: C_5  and  C_6
REMARK    6  A    between atoms: C_6  and  N_7
REMARK    7  A    between atoms: N_7  and  C_8
REMARK    8  A    between atoms: C_8  and  N_10
REMARK    9  A    between atoms: N_10  and  C_11
REMARK   10  A    between atoms: C_13  and  C_14
REMARK   11  A    between atoms: C_15  and  C_16
REMARK   12  A    between atoms: N_18  and  O_19
REMARK   13  A    between atoms: C_22  and  O_23
REMARK   14  A    between atoms: O_23  and  C_24
REMARK   15  A    between atoms: C_24  and  C_25
REMARK   16  A    between atoms: C_25  and  N_26
REMARK   17  A    between atoms: N_26  and  C_27
REMARK   18  A    between atoms: N_26  and  C_29
REMARK   19  A    between atoms: C_27  and  C_28
REMARK   20  A    between atoms: C_29  and  C_30
REMARK                            x       y       z     vdW  Elec       q    Type
REMARK                         _______ _______ _______ _____ _____    ______ ____
ROOT
ATOM      1  C   UNL     1       2.786   7.199  18.265  0.00  0.00    +0.000 A 
ATOM      2  C   UNL     1       3.612   6.984  17.145  0.00  0.00    +0.000 A 
ATOM      3  C   UNL     1       4.729   6.136  17.203  0.00  0.00    +0.000 A 
ATOM      4  C   UNL     1       5.020   5.506  18.415  0.00  0.00    +0.000 A 
ATOM      5  C   UNL     1       4.160   5.641  19.508  0.00  0.00    +0.000 A 
ATOM      6  C   UNL     1       3.011   6.438  19.433  0.00  0.00    +0.000 A 
ENDROOT
BRANCH   3   7
ATOM      7  C   UNL     1       5.589   5.999  16.015  0.00  0.00    +0.000 C 
ATOM      8  C   UNL     1       5.868   4.825  15.421  0.00  0.00    +0.000 C 
BRANCH   8   9
ATOM      9  C   UNL     1       6.736   4.775  14.219  0.00  0.00    +0.000 C 
ATOM     10  O   UNL     1       6.525   4.044  13.257  0.00  0.00    +0.000 OA
ATOM     11  N   UNL     1       7.801   5.629  14.290  0.00  0.00    +0.000 N 
ATOM     12  H   UNL     1       8.026   6.234  15.070  0.00  0.00    +0.000 HD
BRANCH  11  13
ATOM     13  O   UNL     1       8.697   5.637  13.200  0.00  0.00    +0.000 OA
ATOM     14  H   UNL     1       9.510   5.244  13.601  0.00  0.00    +0.000 HD
ENDBRANCH  11  13
ENDBRANCH   8   9
ENDBRANCH   3   7
BRANCH   1  15
ATOM     15  N   UNL     1       1.786   8.192  18.088  0.00  0.00    +0.000 N 
ATOM     16  H   UNL     1       1.105   8.029  17.354  0.00  0.00    +0.000 HD
BRANCH  15  17
ATOM     17  C   UNL     1       1.593   9.370  18.765  0.00  0.00    +0.000 C 
ATOM     18  S   UNL     1       2.065  10.799  18.039  0.00  0.00    +0.000 S 
BRANCH  17  19
ATOM     19  N   UNL     1       1.052   9.243  20.011  0.00  0.00    +0.000 N 
ATOM     20  H   UNL     1       1.747   9.201  20.741  0.00  0.00    +0.000 HD
BRANCH  19  21
ATOM     21  C   UNL     1      -0.306   9.558  20.429  0.00  0.00    +0.000 C 
BRANCH  21  22
ATOM     22  C   UNL     1      -0.430  11.001  20.927  0.00  0.00    +0.000 C 
BRANCH  22  23
ATOM     23  C   UNL     1      -0.936  11.961  19.846  0.00  0.00    +0.000 C 
BRANCH  23  24
ATOM     24  C   UNL     1      -2.127  11.386  19.075  0.00  0.00    +0.000 C 
BRANCH  24  26
ATOM     25  C   UNL     1      -2.495   9.906  17.060  0.00  0.00    +0.000 C 
ATOM     26  C   UNL     1      -1.733  11.092  17.627  0.00  0.00    +0.000 C 
ENDBRANCH  24  26
ENDBRANCH  23  24
ENDBRANCH  22  23
ENDBRANCH  21  22
ENDBRANCH  19  21
ENDBRANCH  17  19
ENDBRANCH  15  17
ENDBRANCH   1  15
BRANCH   6  27
ATOM     27  O   UNL     1       2.212   6.304  20.547  0.00  0.00    +0.000 OA
BRANCH  27  28
ATOM     28  C   UNL     1       1.248   5.246  20.523  0.00  0.00    +0.000 C 
BRANCH  28  29
ATOM     29  C   UNL     1       1.846   3.857  20.781  0.00  0.00    +0.000 C 
BRANCH  29  30
ATOM     30  N   UNL     1       1.583   2.900  19.672  0.00  0.00    +0.000 NA
BRANCH  30  31
ATOM     31  C   UNL     1       2.695   1.943  19.559  0.00  0.00    +0.000 C 
ATOM     32  C   UNL     1       3.930   2.291  20.386  0.00  0.00    +0.000 C 
ENDBRANCH  30  31
BRANCH  30  33
ATOM     33  C   UNL     1       1.218   3.542  18.395  0.00  0.00    +0.000 C 
ATOM     34  C   UNL     1       2.248   3.441  17.273  0.00  0.00    +0.000 C 
ENDBRANCH  30  33
ENDBRANCH  29  30
ENDBRANCH  28  29
ENDBRANCH  27  28
ENDBRANCH   6  27
TORSDOF 17
ENDMDL
