MODEL 1
REMARK VINA RESULT:      -7.7      0.000      0.000
REMARK  Name = 
REMARK  6 active torsions:
REMARK  status: ('A' for Active; 'I' for Inactive)
REMARK    1  A    between atoms: C_1  and  C_2
REMARK    2  A    between atoms: C_3  and  C_4
REMARK    3  A    between atoms: N_5  and  C_6
REMARK    4  A    between atoms: C_6  and  C_7
REMARK    5  A    between atoms: C_6  and  C_8
REMARK    6  A    between atoms: C_16  and  C_17
REMARK                            x       y       z     vdW  Elec       q    Type
REMARK                         _______ _______ _______ _____ _____    ______ ____
ROOT
ATOM      1  C   UNL     1       1.293   8.077  20.890  0.00  0.00    +0.000 C 
ATOM      2  C   UNL     1       0.602   9.342  20.518  0.00  0.00    +0.000 A 
ATOM      3  C   UNL     1       0.504   9.918  19.257  0.00  0.00    +0.000 A 
ATOM      4  C   UNL     1       1.085   9.426  17.973  0.00  0.00    +0.000 C 
ATOM      5  N   UNL     1      -0.250  11.085  19.379  0.00  0.00    +0.000 N 
ATOM      6  C   UNL     1      -0.566  11.288  20.719  0.00  0.00    +0.000 A 
ATOM      7  N   UNL     1      -1.229  12.343  21.249  0.00  0.00    +0.000 NA
ATOM      8  C   UNL     1      -1.371  12.254  22.597  0.00  0.00    +0.000 A 
ATOM      9  N   UNL     1      -0.951  11.225  23.371  0.00  0.00    +0.000 NA
ATOM     10  C   UNL     1      -0.307  10.196  22.816  0.00  0.00    +0.000 A 
ATOM     11  N   UNL     1       0.112   9.199  23.689  0.00  0.00    +0.000 N 
ATOM     12  C   UNL     1      -0.069  10.207  21.435  0.00  0.00    +0.000 A 
ATOM     13  H   UNL     1       0.075   9.537  24.643  0.00  0.00    +0.000 HD
ATOM     14  H   UNL     1       0.972   8.744  23.421  0.00  0.00    +0.000 HD
ENDROOT
BRANCH   8  15
ATOM     15  C   UNL     1      -1.993  13.377  23.374  0.00  0.00    +0.000 A 
ATOM     16  C   UNL     1      -3.391  13.505  23.458  0.00  0.00    +0.000 A 
ATOM     17  C   UNL     1      -3.970  14.516  24.219  0.00  0.00    +0.000 A 
ATOM     18  C   UNL     1      -3.140  15.397  24.890  0.00  0.00    +0.000 A 
ATOM     19  C   UNL     1      -1.771  15.232  24.760  0.00  0.00    +0.000 A 
ATOM     20  N   UNL     1      -1.181  14.253  24.027  0.00  0.00    +0.000 NA
ENDBRANCH   8  15
BRANCH   5  21
ATOM     21  C   UNL     1      -0.698  11.972  18.278  0.00  0.00    +0.000 C 
ATOM     22  C   UNL     1      -0.444  13.447  18.632  0.00  0.00    +0.000 C 
BRANCH  21  23
ATOM     23  C   UNL     1      -2.127  11.662  17.813  0.00  0.00    +0.000 A 
ATOM     24  C   UNL     1      -3.268  11.957  18.586  0.00  0.00    +0.000 A 
ATOM     25  C   UNL     1      -4.553  11.649  18.134  0.00  0.00    +0.000 A 
ATOM     26  C   UNL     1      -4.729  11.046  16.892  0.00  0.00    +0.000 A 
ATOM     27  C   UNL     1      -3.619  10.765  16.099  0.00  0.00    +0.000 A 
ATOM     28  C   UNL     1      -2.332  11.078  16.550  0.00  0.00    +0.000 A 
ENDBRANCH  21  23
ENDBRANCH   5  21
TORSDOF 3
ENDMDL
MODEL 2
REMARK VINA RESULT:      -7.6      5.343      8.632
REMARK  Name = 
REMARK  6 active torsions:
REMARK  status: ('A' for Active; 'I' for Inactive)
REMARK    1  A    between atoms: C_1  and  C_2
REMARK    2  A    between atoms: C_3  and  C_4
REMARK    3  A    between atoms: N_5  and  C_6
REMARK    4  A    between atoms: C_6  and  C_7
REMARK    5  A    between atoms: C_6  and  C_8
REMARK    6  A    between atoms: C_16  and  C_17
REMARK                            x       y       z     vdW  Elec       q    Type
REMARK                         _______ _______ _______ _____ _____    ______ ____
ROOT
ATOM      1  C   UNL     1       2.966   1.869  18.343  0.00  0.00    +0.000 C 
ATOM      2  C   UNL     1       3.294   3.306  18.130  0.00  0.00    +0.000 A 
ATOM      3  C   UNL     1       4.280   3.839  17.307  0.00  0.00    +0.000 A 
ATOM      4  C   UNL     1       5.263   3.106  16.456  0.00  0.00    +0.000 C 
ATOM      5  N   UNL     1       4.212   5.229  17.406  0.00  0.00    +0.000 N 
ATOM      6  C   UNL     1       3.240   5.573  18.341  0.00  0.00    +0.000 A 
ATOM      7  N   UNL     1       2.924   6.821  18.764  0.00  0.00    +0.000 NA
ATOM      8  C   UNL     1       1.936   6.826  19.695  0.00  0.00    +0.000 A 
ATOM      9  N   UNL     1       1.275   5.737  20.157  0.00  0.00    +0.000 NA
ATOM     10  C   UNL     1       1.607   4.523  19.713  0.00  0.00    +0.000 A 
ATOM     11  N   UNL     1       0.898   3.461  20.261  0.00  0.00    +0.000 N 
ATOM     12  C   UNL     1       2.645   4.399  18.780  0.00  0.00    +0.000 A 
ATOM     13  H   UNL     1       0.409   3.765  21.094  0.00  0.00    +0.000 HD
ATOM     14  H   UNL     1       1.429   2.608  20.355  0.00  0.00    +0.000 HD
ENDROOT
BRANCH   8  15
ATOM     15  C   UNL     1       1.517   8.108  20.355  0.00  0.00    +0.000 A 
ATOM     16  C   UNL     1       1.147   9.224  19.584  0.00  0.00    +0.000 A 
ATOM     17  C   UNL     1       0.711  10.398  20.193  0.00  0.00    +0.000 A 
ATOM     18  C   UNL     1       0.651  10.444  21.575  0.00  0.00    +0.000 A 
ATOM     19  C   UNL     1       1.041   9.319  22.282  0.00  0.00    +0.000 A 
ATOM     20  N   UNL     1       1.467   8.162  21.714  0.00  0.00    +0.000 NA
ENDBRANCH   8  15
BRANCH   5  21
ATOM     21  C   UNL     1       5.002   6.213  16.628  0.00  0.00    +0.000 C 
ATOM     22  C   UNL     1       5.270   5.691  15.206  0.00  0.00    +0.000 C 
BRANCH  21  23
ATOM     23  C   UNL     1       6.250   6.696  17.378  0.00  0.00    +0.000 A 
ATOM     24  C   UNL     1       6.938   5.902  18.318  0.00  0.00    +0.000 A 
ATOM     25  C   UNL     1       8.064   6.381  18.990  0.00  0.00    +0.000 A 
ATOM     26  C   UNL     1       8.537   7.664  18.732  0.00  0.00    +0.000 A 
ATOM     27  C   UNL     1       7.888   8.461  17.791  0.00  0.00    +0.000 A 
ATOM     28  C   UNL     1       6.763   7.979  17.114  0.00  0.00    +0.000 A 
ENDBRANCH  21  23
ENDBRANCH   5  21
TORSDOF 3
ENDMDL
MODEL 3
REMARK VINA RESULT:      -7.5      5.405      8.702
REMARK  Name = 
REMARK  6 active torsions:
REMARK  status: ('A' for Active; 'I' for Inactive)
REMARK    1  A    between atoms: C_1  and  C_2
REMARK    2  A    between atoms: C_3  and  C_4
REMARK    3  A    between atoms: N_5  and  C_6
REMARK    4  A    between atoms: C_6  and  C_7
REMARK    5  A    between atoms: C_6  and  C_8
REMARK    6  A    between atoms: C_16  and  C_17
REMARK                            x       y       z     vdW  Elec       q    Type
REMARK                         _______ _______ _______ _____ _____    ______ ____
ROOT
ATOM      1  C   UNL     1       3.319   1.891  18.220  0.00  0.00    +0.000 C 
ATOM      2  C   UNL     1       3.568   3.344  18.008  0.00  0.00    +0.000 A 
ATOM      3  C   UNL     1       4.527   3.930  17.190  0.00  0.00    +0.000 A 
ATOM      4  C   UNL     1       5.554   3.253  16.344  0.00  0.00    +0.000 C 
ATOM      5  N   UNL     1       4.382   5.314  17.287  0.00  0.00    +0.000 N 
ATOM      6  C   UNL     1       3.387   5.605  18.217  0.00  0.00    +0.000 A 
ATOM      7  N   UNL     1       2.999   6.833  18.637  0.00  0.00    +0.000 NA
ATOM      8  C   UNL     1       2.007   6.784  19.563  0.00  0.00    +0.000 A 
ATOM      9  N   UNL     1       1.406   5.660  20.022  0.00  0.00    +0.000 NA
ATOM     10  C   UNL     1       1.808   4.465  19.582  0.00  0.00    +0.000 A 
ATOM     11  N   UNL     1       1.156   3.366  20.127  0.00  0.00    +0.000 N 
ATOM     12  C   UNL     1       2.856   4.399  18.654  0.00  0.00    +0.000 A 
ATOM     13  H   UNL     1       0.647   3.643  20.957  0.00  0.00    +0.000 HD
ATOM     14  H   UNL     1       1.733   2.544  20.224  0.00  0.00    +0.000 HD
ENDROOT
BRANCH   8  15
ATOM     15  C   UNL     1       1.514   8.040  20.220  0.00  0.00    +0.000 A 
ATOM     16  C   UNL     1       1.323   8.095  21.612  0.00  0.00    +0.000 A 
ATOM     17  C   UNL     1       0.914   9.274  22.229  0.00  0.00    +0.000 A 
ATOM     18  C   UNL     1       0.695  10.392  21.443  0.00  0.00    +0.000 A 
ATOM     19  C   UNL     1       0.886  10.275  20.076  0.00  0.00    +0.000 A 
ATOM     20  N   UNL     1       1.287   9.139  19.449  0.00  0.00    +0.000 NA
ENDBRANCH   8  15
BRANCH   5  21
ATOM     21  C   UNL     1       5.119   6.341  16.513  0.00  0.00    +0.000 C 
ATOM     22  C   UNL     1       5.427   5.832  15.093  0.00  0.00    +0.000 C 
BRANCH  21  23
ATOM     23  C   UNL     1       6.332   6.896  17.271  0.00  0.00    +0.000 A 
ATOM     24  C   UNL     1       6.802   8.215  17.109  0.00  0.00    +0.000 A 
ATOM     25  C   UNL     1       7.918   8.681  17.808  0.00  0.00    +0.000 A 
ATOM     26  C   UNL     1       8.586   7.841  18.694  0.00  0.00    +0.000 A 
ATOM     27  C   UNL     1       8.128   6.539  18.888  0.00  0.00    +0.000 A 
ATOM     28  C   UNL     1       7.007   6.075  18.192  0.00  0.00    +0.000 A 
ENDBRANCH  21  23
ENDBRANCH   5  21
TORSDOF 3
ENDMDL
MODEL 4
REMARK VINA RESULT:      -7.2      1.999      5.819
REMARK  Name = 
REMARK  6 active torsions:
REMARK  status: ('A' for Active; 'I' for Inactive)
REMARK    1  A    between atoms: C_1  and  C_2
REMARK    2  A    between atoms: C_3  and  C_4
REMARK    3  A    between atoms: N_5  and  C_6
REMARK    4  A    between atoms: C_6  and  C_7
REMARK    5  A    between atoms: C_6  and  C_8
REMARK    6  A    between atoms: C_16  and  C_17
REMARK                            x       y       z     vdW  Elec       q    Type
REMARK                         _______ _______ _______ _____ _____    ______ ____
ROOT
ATOM      1  C   UNL     1      -1.758  11.844  23.397  0.00  0.00    +0.000 C 
ATOM      2  C   UNL     1      -1.257  11.491  22.039  0.00  0.00    +0.000 A 
ATOM      3  C   UNL     1      -1.565  12.111  20.833  0.00  0.00    +0.000 A 
ATOM      4  C   UNL     1      -2.487  13.262  20.599  0.00  0.00    +0.000 C 
ATOM      5  N   UNL     1      -0.853  11.459  19.826  0.00  0.00    +0.000 N 
ATOM      6  C   UNL     1      -0.157  10.388  20.378  0.00  0.00    +0.000 A 
ATOM      7  N   UNL     1       0.595   9.478  19.714  0.00  0.00    +0.000 NA
ATOM      8  C   UNL     1       1.140   8.544  20.537  0.00  0.00    +0.000 A 
ATOM      9  N   UNL     1       1.011   8.504  21.885  0.00  0.00    +0.000 NA
ATOM     10  C   UNL     1       0.268   9.421  22.508  0.00  0.00    +0.000 A 
ATOM     11  N   UNL     1       0.168   9.287  23.888  0.00  0.00    +0.000 N 
ATOM     12  C   UNL     1      -0.374  10.408  21.749  0.00  0.00    +0.000 A 
ATOM     13  H   UNL     1       0.478   8.364  24.168  0.00  0.00    +0.000 HD
ATOM     14  H   UNL     1      -0.715   9.586  24.274  0.00  0.00    +0.000 HD
ENDROOT
BRANCH   8  15
ATOM     15  C   UNL     1       1.924   7.396  19.973  0.00  0.00    +0.000 A 
ATOM     16  C   UNL     1       1.911   6.139  20.604  0.00  0.00    +0.000 A 
ATOM     17  C   UNL     1       2.598   5.059  20.056  0.00  0.00    +0.000 A 
ATOM     18  C   UNL     1       3.296   5.248  18.876  0.00  0.00    +0.000 A 
ATOM     19  C   UNL     1       3.284   6.511  18.307  0.00  0.00    +0.000 A 
ATOM     20  N   UNL     1       2.621   7.579  18.818  0.00  0.00    +0.000 NA
ENDBRANCH   8  15
BRANCH   5  21
ATOM     21  C   UNL     1      -0.791  11.841  18.394  0.00  0.00    +0.000 C 
ATOM     22  C   UNL     1      -0.601  13.361  18.247  0.00  0.00    +0.000 C 
BRANCH  21  23
ATOM     23  C   UNL     1      -1.950  11.259  17.575  0.00  0.00    +0.000 A 
ATOM     24  C   UNL     1      -1.807  10.141  16.728  0.00  0.00    +0.000 A 
ATOM     25  C   UNL     1      -2.884   9.647  15.988  0.00  0.00    +0.000 A 
ATOM     26  C   UNL     1      -4.133  10.252  16.085  0.00  0.00    +0.000 A 
ATOM     27  C   UNL     1      -4.305  11.344  16.933  0.00  0.00    +0.000 A 
ATOM     28  C   UNL     1      -3.228  11.836  17.678  0.00  0.00    +0.000 A 
ENDBRANCH  21  23
ENDBRANCH   5  21
TORSDOF 3
ENDMDL
MODEL 5
REMARK VINA RESULT:      -7.2      2.063      6.695
REMARK  Name = 
REMARK  6 active torsions:
REMARK  status: ('A' for Active; 'I' for Inactive)
REMARK    1  A    between atoms: C_1  and  C_2
REMARK    2  A    between atoms: C_3  and  C_4
REMARK    3  A    between atoms: N_5  and  C_6
REMARK    4  A    between atoms: C_6  and  C_7
REMARK    5  A    between atoms: C_6  and  C_8
REMARK    6  A    between atoms: C_16  and  C_17
REMARK                            x       y       z     vdW  Elec       q    Type
REMARK                         _______ _______ _______ _____ _____    ______ ____
ROOT
ATOM      1  C   UNL     1      -4.711  14.852  23.271  0.00  0.00    +0.000 C 
ATOM      2  C   UNL     1      -3.614  14.144  22.555  0.00  0.00    +0.000 A 
ATOM      3  C   UNL     1      -2.269  14.088  22.904  0.00  0.00    +0.000 A 
ATOM      4  C   UNL     1      -1.593  14.739  24.065  0.00  0.00    +0.000 C 
ATOM      5  N   UNL     1      -1.616  13.298  21.958  0.00  0.00    +0.000 N 
ATOM      6  C   UNL     1      -2.525  12.917  20.975  0.00  0.00    +0.000 A 
ATOM      7  N   UNL     1      -2.260  12.203  19.855  0.00  0.00    +0.000 NA
ATOM      8  C   UNL     1      -3.361  12.003  19.085  0.00  0.00    +0.000 A 
ATOM      9  N   UNL     1      -4.618  12.415  19.378  0.00  0.00    +0.000 NA
ATOM     10  C   UNL     1      -4.845  13.110  20.494  0.00  0.00    +0.000 A 
ATOM     11  N   UNL     1      -6.159  13.516  20.700  0.00  0.00    +0.000 N 
ATOM     12  C   UNL     1      -3.770  13.410  21.341  0.00  0.00    +0.000 A 
ATOM     13  H   UNL     1      -6.686  13.427  19.840  0.00  0.00    +0.000 HD
ATOM     14  H   UNL     1      -6.252  14.399  21.180  0.00  0.00    +0.000 HD
ENDROOT
BRANCH   8  15
ATOM     15  C   UNL     1      -3.247  11.317  17.755  0.00  0.00    +0.000 A 
ATOM     16  C   UNL     1      -2.220  10.387  17.513  0.00  0.00    +0.000 A 
ATOM     17  C   UNL     1      -2.141   9.713  16.297  0.00  0.00    +0.000 A 
ATOM     18  C   UNL     1      -3.094   9.980  15.329  0.00  0.00    +0.000 A 
ATOM     19  C   UNL     1      -4.074  10.916  15.619  0.00  0.00    +0.000 A 
ATOM     20  N   UNL     1      -4.175  11.584  16.796  0.00  0.00    +0.000 NA
ENDBRANCH   8  15
BRANCH   5  21
ATOM     21  C   UNL     1      -0.194  12.877  21.983  0.00  0.00    +0.000 C 
ATOM     22  C   UNL     1       0.635  13.712  20.992  0.00  0.00    +0.000 C 
BRANCH  21  23
ATOM     23  C   UNL     1      -0.024  11.359  21.841  0.00  0.00    +0.000 A 
ATOM     24  C   UNL     1       0.728  10.763  20.810  0.00  0.00    +0.000 A 
ATOM     25  C   UNL     1       0.850   9.375  20.706  0.00  0.00    +0.000 A 
ATOM     26  C   UNL     1       0.230   8.549  21.638  0.00  0.00    +0.000 A 
ATOM     27  C   UNL     1      -0.502   9.115  22.681  0.00  0.00    +0.000 A 
ATOM     28  C   UNL     1      -0.620  10.505  22.787  0.00  0.00    +0.000 A 
ENDBRANCH  21  23
ENDBRANCH   5  21
TORSDOF 3
ENDMDL
MODEL 6
REMARK VINA RESULT:      -7.2      2.043      5.827
REMARK  Name = 
REMARK  6 active torsions:
REMARK  status: ('A' for Active; 'I' for Inactive)
REMARK    1  A    between atoms: C_1  and  C_2
REMARK    2  A    between atoms: C_3  and  C_4
REMARK    3  A    between atoms: N_5  and  C_6
REMARK    4  A    between atoms: C_6  and  C_7
REMARK    5  A    between atoms: C_6  and  C_8
REMARK    6  A    between atoms: C_16  and  C_17
REMARK                            x       y       z     vdW  Elec       q    Type
REMARK                         _______ _______ _______ _____ _____    ______ ____
ROOT
ATOM      1  C   UNL     1      -1.618  11.756  23.344  0.00  0.00    +0.000 C 
ATOM      2  C   UNL     1      -1.154  11.433  21.966  0.00  0.00    +0.000 A 
ATOM      3  C   UNL     1      -1.509  12.066  20.780  0.00  0.00    +0.000 A 
ATOM      4  C   UNL     1      -2.455  13.205  20.593  0.00  0.00    +0.000 C 
ATOM      5  N   UNL     1      -0.819  11.442  19.741  0.00  0.00    +0.000 N 
ATOM      6  C   UNL     1      -0.088  10.374  20.254  0.00  0.00    +0.000 A 
ATOM      7  N   UNL     1       0.657   9.486  19.553  0.00  0.00    +0.000 NA
ATOM      8  C   UNL     1       1.241   8.548  20.343  0.00  0.00    +0.000 A 
ATOM      9  N   UNL     1       1.154   8.485  21.693  0.00  0.00    +0.000 NA
ATOM     10  C   UNL     1       0.417   9.380  22.354  0.00  0.00    +0.000 A 
ATOM     11  N   UNL     1       0.362   9.222  23.734  0.00  0.00    +0.000 N 
ATOM     12  C   UNL     1      -0.264  10.368  21.631  0.00  0.00    +0.000 A 
ATOM     13  H   UNL     1       0.695   8.300  23.990  0.00  0.00    +0.000 HD
ATOM     14  H   UNL     1      -0.513   9.501  24.152  0.00  0.00    +0.000 HD
ENDROOT
BRANCH   8  15
ATOM     15  C   UNL     1       2.025   7.422  19.736  0.00  0.00    +0.000 A 
ATOM     16  C   UNL     1       2.618   7.561  18.469  0.00  0.00    +0.000 A 
ATOM     17  C   UNL     1       3.388   6.536  17.926  0.00  0.00    +0.000 A 
ATOM     18  C   UNL     1       3.555   5.373  18.659  0.00  0.00    +0.000 A 
ATOM     19  C   UNL     1       2.935   5.287  19.895  0.00  0.00    +0.000 A 
ATOM     20  N   UNL     1       2.183   6.272  20.449  0.00  0.00    +0.000 NA
ENDBRANCH   8  15
BRANCH   5  21
ATOM     21  C   UNL     1      -0.806  11.847  18.315  0.00  0.00    +0.000 C 
ATOM     22  C   UNL     1      -0.564  13.361  18.184  0.00  0.00    +0.000 C 
BRANCH  21  23
ATOM     23  C   UNL     1      -2.023  11.324  17.540  0.00  0.00    +0.000 A 
ATOM     24  C   UNL     1      -3.311  11.881  17.665  0.00  0.00    +0.000 A 
ATOM     25  C   UNL     1      -4.398  11.369  16.952  0.00  0.00    +0.000 A 
ATOM     26  C   UNL     1      -4.220  10.292  16.088  0.00  0.00    +0.000 A 
ATOM     27  C   UNL     1      -2.951   9.738  15.931  0.00  0.00    +0.000 A 
ATOM     28  C   UNL     1      -1.862  10.254  16.641  0.00  0.00    +0.000 A 
ENDBRANCH  21  23
ENDBRANCH   5  21
TORSDOF 3
ENDMDL
MODEL 7
REMARK VINA RESULT:      -7.1      2.163      6.405
REMARK  Name = 
REMARK  6 active torsions:
REMARK  status: ('A' for Active; 'I' for Inactive)
REMARK    1  A    between atoms: C_1  and  C_2
REMARK    2  A    between atoms: C_3  and  C_4
REMARK    3  A    between atoms: N_5  and  C_6
REMARK    4  A    between atoms: C_6  and  C_7
REMARK    5  A    between atoms: C_6  and  C_8
REMARK    6  A    between atoms: C_16  and  C_17
REMARK                            x       y       z     vdW  Elec       q    Type
REMARK                         _______ _______ _______ _____ _____    ______ ____
ROOT
ATOM      1  C   UNL     1      -2.274  11.940  23.583  0.00  0.00    +0.000 C 
ATOM      2  C   UNL     1      -1.679  11.892  22.219  0.00  0.00    +0.000 A 
ATOM      3  C   UNL     1      -1.916  12.758  21.158  0.00  0.00    +0.000 A 
ATOM      4  C   UNL     1      -2.839  13.930  21.116  0.00  0.00    +0.000 C 
ATOM      5  N   UNL     1      -1.128  12.342  20.084  0.00  0.00    +0.000 N 
ATOM      6  C   UNL     1      -0.451  11.178  20.438  0.00  0.00    +0.000 A 
ATOM      7  N   UNL     1       0.358  10.434  19.646  0.00  0.00    +0.000 NA
ATOM      8  C   UNL     1       0.862   9.346  20.282  0.00  0.00    +0.000 A 
ATOM      9  N   UNL     1       0.644   9.013  21.577  0.00  0.00    +0.000 NA
ATOM     10  C   UNL     1      -0.154   9.772  22.332  0.00  0.00    +0.000 A 
ATOM     11  N   UNL     1      -0.343   9.341  23.640  0.00  0.00    +0.000 N 
ATOM     12  C   UNL     1      -0.760  10.899  21.762  0.00  0.00    +0.000 A 
ATOM     13  H   UNL     1      -0.037   8.380  23.734  0.00  0.00    +0.000 HD
ATOM     14  H   UNL     1      -1.255   9.547  24.020  0.00  0.00    +0.000 HD
ENDROOT
BRANCH   8  15
ATOM     15  C   UNL     1       1.701   8.348  19.538  0.00  0.00    +0.000 A 
ATOM     16  C   UNL     1       2.173   8.631  18.244  0.00  0.00    +0.000 A 
ATOM     17  C   UNL     1       2.993   7.729  17.571  0.00  0.00    +0.000 A 
ATOM     18  C   UNL     1       3.332   6.545  18.202  0.00  0.00    +0.000 A 
ATOM     19  C   UNL     1       2.826   6.314  19.471  0.00  0.00    +0.000 A 
ATOM     20  N   UNL     1       2.028   7.177  20.150  0.00  0.00    +0.000 NA
ENDBRANCH   8  15
BRANCH   5  21
ATOM     21  C   UNL     1      -0.976  13.026  18.777  0.00  0.00    +0.000 C 
ATOM     22  C   UNL     1      -1.215  12.040  17.620  0.00  0.00    +0.000 C 
BRANCH  21  23
ATOM     23  C   UNL     1       0.327  13.829  18.677  0.00  0.00    +0.000 A 
ATOM     24  C   UNL     1       1.537  13.275  18.213  0.00  0.00    +0.000 A 
ATOM     25  C   UNL     1       2.707  14.035  18.148  0.00  0.00    +0.000 A 
ATOM     26  C   UNL     1       2.693  15.371  18.534  0.00  0.00    +0.000 A 
ATOM     27  C   UNL     1       1.504  15.948  18.975  0.00  0.00    +0.000 A 
ATOM     28  C   UNL     1       0.331  15.188  19.036  0.00  0.00    +0.000 A 
ENDBRANCH  21  23
ENDBRANCH   5  21
TORSDOF 3
ENDMDL
MODEL 8
REMARK VINA RESULT:      -7.0      2.851      5.291
REMARK  Name = 
REMARK  6 active torsions:
REMARK  status: ('A' for Active; 'I' for Inactive)
REMARK    1  A    between atoms: C_1  and  C_2
REMARK    2  A    between atoms: C_3  and  C_4
REMARK    3  A    between atoms: N_5  and  C_6
REMARK    4  A    between atoms: C_6  and  C_7
REMARK    5  A    between atoms: C_6  and  C_8
REMARK    6  A    between atoms: C_16  and  C_17
REMARK                            x       y       z     vdW  Elec       q    Type
REMARK                         _______ _______ _______ _____ _____    ______ ____
ROOT
ATOM      1  C   UNL     1      -3.794  10.639  16.467  0.00  0.00    +0.000 C 
ATOM      2  C   UNL     1      -3.442  11.257  17.775  0.00  0.00    +0.000 A 
ATOM      3  C   UNL     1      -2.177  11.403  18.333  0.00  0.00    +0.000 A 
ATOM      4  C   UNL     1      -0.868  10.956  17.772  0.00  0.00    +0.000 C 
ATOM      5  N   UNL     1      -2.324  12.055  19.557  0.00  0.00    +0.000 N 
ATOM      6  C   UNL     1      -3.678  12.257  19.808  0.00  0.00    +0.000 A 
ATOM      7  N   UNL     1      -4.227  12.798  20.922  0.00  0.00    +0.000 NA
ATOM      8  C   UNL     1      -5.583  12.848  20.869  0.00  0.00    +0.000 A 
ATOM      9  N   UNL     1      -6.351  12.452  19.826  0.00  0.00    +0.000 NA
ATOM     10  C   UNL     1      -5.777  11.929  18.740  0.00  0.00    +0.000 A 
ATOM     11  N   UNL     1      -6.642  11.525  17.730  0.00  0.00    +0.000 N 
ATOM     12  C   UNL     1      -4.383  11.793  18.706  0.00  0.00    +0.000 A 
ATOM     13  H   UNL     1      -7.587  11.467  18.088  0.00  0.00    +0.000 HD
ATOM     14  H   UNL     1      -6.324  10.723  17.205  0.00  0.00    +0.000 HD
ENDROOT
BRANCH   8  15
ATOM     15  C   UNL     1      -6.375  13.324  22.052  0.00  0.00    +0.000 A 
ATOM     16  C   UNL     1      -7.072  14.545  22.004  0.00  0.00    +0.000 A 
ATOM     17  C   UNL     1      -7.848  14.965  23.082  0.00  0.00    +0.000 A 
ATOM     18  C   UNL     1      -7.916  14.157  24.203  0.00  0.00    +0.000 A 
ATOM     19  C   UNL     1      -7.197  12.973  24.199  0.00  0.00    +0.000 A 
ATOM     20  N   UNL     1      -6.437  12.538  23.162  0.00  0.00    +0.000 NA
ENDBRANCH   8  15
BRANCH   5  21
ATOM     21  C   UNL     1      -1.236  12.514  20.454  0.00  0.00    +0.000 C 
ATOM     22  C   UNL     1      -0.179  13.306  19.664  0.00  0.00    +0.000 C 
BRANCH  21  23
ATOM     23  C   UNL     1      -0.670  11.383  21.324  0.00  0.00    +0.000 A 
ATOM     24  C   UNL     1      -1.182  11.064  22.598  0.00  0.00    +0.000 A 
ATOM     25  C   UNL     1      -0.632  10.035  23.366  0.00  0.00    +0.000 A 
ATOM     26  C   UNL     1       0.437   9.293  22.874  0.00  0.00    +0.000 A 
ATOM     27  C   UNL     1       0.947   9.575  21.608  0.00  0.00    +0.000 A 
ATOM     28  C   UNL     1       0.393  10.602  20.837  0.00  0.00    +0.000 A 
ENDBRANCH  21  23
ENDBRANCH   5  21
TORSDOF 3
ENDMDL
MODEL 9
REMARK VINA RESULT:      -6.8      2.784      5.289
REMARK  Name = 
REMARK  6 active torsions:
REMARK  status: ('A' for Active; 'I' for Inactive)
REMARK    1  A    between atoms: C_1  and  C_2
REMARK    2  A    between atoms: C_3  and  C_4
REMARK    3  A    between atoms: N_5  and  C_6
REMARK    4  A    between atoms: C_6  and  C_7
REMARK    5  A    between atoms: C_6  and  C_8
REMARK    6  A    between atoms: C_16  and  C_17
REMARK                            x       y       z     vdW  Elec       q    Type
REMARK                         _______ _______ _______ _____ _____    ______ ____
ROOT
ATOM      1  C   UNL     1      -3.712  10.401  16.457  0.00  0.00    +0.000 C 
ATOM      2  C   UNL     1      -3.347  11.099  17.721  0.00  0.00    +0.000 A 
ATOM      3  C   UNL     1      -2.081  11.238  18.279  0.00  0.00    +0.000 A 
ATOM      4  C   UNL     1      -0.785  10.705  17.764  0.00  0.00    +0.000 C 
ATOM      5  N   UNL     1      -2.212  11.981  19.452  0.00  0.00    +0.000 N 
ATOM      6  C   UNL     1      -3.560  12.249  19.675  0.00  0.00    +0.000 A 
ATOM      7  N   UNL     1      -4.097  12.888  20.742  0.00  0.00    +0.000 NA
ATOM      8  C   UNL     1      -5.449  12.984  20.673  0.00  0.00    +0.000 A 
ATOM      9  N   UNL     1      -6.224  12.542  19.653  0.00  0.00    +0.000 NA
ATOM     10  C   UNL     1      -5.662  11.923  18.613  0.00  0.00    +0.000 A 
ATOM     11  N   UNL     1      -6.534  11.478  17.626  0.00  0.00    +0.000 N 
ATOM     12  C   UNL     1      -4.274  11.733  18.602  0.00  0.00    +0.000 A 
ATOM     13  H   UNL     1      -7.484  11.480  17.978  0.00  0.00    +0.000 HD
ATOM     14  H   UNL     1      -6.243  10.630  17.163  0.00  0.00    +0.000 HD
ENDROOT
BRANCH   8  15
ATOM     15  C   UNL     1      -6.231  13.572  21.811  0.00  0.00    +0.000 A 
ATOM     16  C   UNL     1      -6.882  12.740  22.740  0.00  0.00    +0.000 A 
ATOM     17  C   UNL     1      -7.566  13.283  23.825  0.00  0.00    +0.000 A 
ATOM     18  C   UNL     1      -7.595  14.659  23.968  0.00  0.00    +0.000 A 
ATOM     19  C   UNL     1      -6.949  15.428  23.015  0.00  0.00    +0.000 A 
ATOM     20  N   UNL     1      -6.272  14.925  21.951  0.00  0.00    +0.000 NA
ENDBRANCH   8  15
BRANCH   5  21
ATOM     21  C   UNL     1      -1.114  12.463  20.325  0.00  0.00    +0.000 C 
ATOM     22  C   UNL     1      -0.051  13.208  19.497  0.00  0.00    +0.000 C 
BRANCH  21  23
ATOM     23  C   UNL     1      -0.559  11.364  21.239  0.00  0.00    +0.000 A 
ATOM     24  C   UNL     1       0.611  10.636  20.943  0.00  0.00    +0.000 A 
ATOM     25  C   UNL     1       1.078   9.632  21.795  0.00  0.00    +0.000 A 
ATOM     26  C   UNL     1       0.393   9.339  22.970  0.00  0.00    +0.000 A 
ATOM     27  C   UNL     1      -0.755  10.060  23.296  0.00  0.00    +0.000 A 
ATOM     28  C   UNL     1      -1.220  11.068  22.445  0.00  0.00    +0.000 A 
ENDBRANCH  21  23
ENDBRANCH   5  21
TORSDOF 3
ENDMDL
