MODEL 1
REMARK VINA RESULT:      -7.5      0.000      0.000
REMARK  Name = 
REMARK  10 active torsions:
REMARK  status: ('A' for Active; 'I' for Inactive)
REMARK    1  A    between atoms: C_1  and  C_2
REMARK    2  A    between atoms: C_5  and  C_6
REMARK    3  A    between atoms: C_6  and  C_7
REMARK    4  A    between atoms: C_6  and  C_8
REMARK    5  A    between atoms: C_9  and  O_10
REMARK    6  A    between atoms: O_10  and  C_11
REMARK    7  A    between atoms: C_11  and  C_12
REMARK    8  A    between atoms: N_14  and  C_15
REMARK    9  A    between atoms: C_15  and  C_16
REMARK   10  A    between atoms: C_15  and  C_17
REMARK                            x       y       z     vdW  Elec       q    Type
REMARK                         _______ _______ _______ _____ _____    ______ ____
ROOT
ATOM      1  C   UNL     1       1.525   8.994  18.680  0.00  0.00    +0.000 C 
ATOM      2  O   UNL     1       1.434   8.864  19.895  0.00  0.00    +0.000 OA
ATOM      3  N   UNL     1       0.642   9.778  17.962  0.00  0.00    +0.000 N 
ATOM      4  H   UNL     1       0.854  10.042  17.007  0.00  0.00    +0.000 HD
ENDROOT
BRANCH   3   5
ATOM      5  C   UNL     1      -0.425  10.505  18.631  0.00  0.00    +0.000 C 
ATOM      6  C   UNL     1      -0.049  11.975  18.834  0.00  0.00    +0.000 C 
BRANCH   5   7
ATOM      7  C   UNL     1      -1.654  10.414  17.786  0.00  0.00    +0.000 A 
ATOM      8  N   UNL     1      -1.789   9.729  16.658  0.00  0.00    +0.000 NA
ATOM      9  N   UNL     1      -3.042   9.997  16.110  0.00  0.00    +0.000 NA
ATOM     10  C   UNL     1      -3.623  10.825  16.931  0.00  0.00    +0.000 A 
ATOM     11  N   UNL     1      -2.816  11.073  17.994  0.00  0.00    +0.000 N 
ATOM     12  C   UNL     1      -3.425  11.936  18.976  0.00  0.00    +0.000 C 
ATOM     13  C   UNL     1      -4.910  11.914  18.539  0.00  0.00    +0.000 C 
ATOM     14  C   UNL     1      -4.905  11.539  17.035  0.00  0.00    +0.000 C 
ENDBRANCH   5   7
ENDBRANCH   3   5
BRANCH   1  15
ATOM     15  C   UNL     1       2.563   8.257  17.817  0.00  0.00    +0.000 C 
BRANCH  15  16
ATOM     16  O   UNL     1       2.412   6.846  17.911  0.00  0.00    +0.000 OA
BRANCH  16  22
ATOM     17  C   UNL     1       5.949   5.517  15.782  0.00  0.00    +0.000 C 
ATOM     18  C   UNL     1       4.631   5.462  16.546  0.00  0.00    +0.000 C 
ATOM     19  C   UNL     1       4.155   4.022  16.730  0.00  0.00    +0.000 C 
ATOM     20  C   UNL     1       2.855   3.944  17.534  0.00  0.00    +0.000 C 
ATOM     21  C   UNL     1       2.935   4.689  18.891  0.00  0.00    +0.000 C 
ATOM     22  C   UNL     1       3.421   6.154  18.656  0.00  0.00    +0.000 C 
ATOM     23  C   UNL     1       4.768   6.133  17.917  0.00  0.00    +0.000 C 
BRANCH  21  24
ATOM     24  C   UNL     1       1.576   4.603  19.658  0.00  0.00    +0.000 C 
ATOM     25  C   UNL     1       1.214   3.161  20.050  0.00  0.00    +0.000 C 
ATOM     26  C   UNL     1       1.579   5.451  20.936  0.00  0.00    +0.000 C 
ENDBRANCH  21  24
ENDBRANCH  16  22
ENDBRANCH  15  16
ENDBRANCH   1  15
TORSDOF 6
ENDMDL
MODEL 2
REMARK VINA RESULT:      -7.4      2.424      4.102
REMARK  Name = 
REMARK  10 active torsions:
REMARK  status: ('A' for Active; 'I' for Inactive)
REMARK    1  A    between atoms: C_1  and  C_2
REMARK    2  A    between atoms: C_5  and  C_6
REMARK    3  A    between atoms: C_6  and  C_7
REMARK    4  A    between atoms: C_6  and  C_8
REMARK    5  A    between atoms: C_9  and  O_10
REMARK    6  A    between atoms: O_10  and  C_11
REMARK    7  A    between atoms: C_11  and  C_12
REMARK    8  A    between atoms: N_14  and  C_15
REMARK    9  A    between atoms: C_15  and  C_16
REMARK   10  A    between atoms: C_15  and  C_17
REMARK                            x       y       z     vdW  Elec       q    Type
REMARK                         _______ _______ _______ _____ _____    ______ ____
ROOT
ATOM      1  C   UNL     1       1.786   8.650  19.105  0.00  0.00    +0.000 C 
ATOM      2  O   UNL     1       2.287   8.963  18.032  0.00  0.00    +0.000 OA
ATOM      3  N   UNL     1       0.878   9.468  19.752  0.00  0.00    +0.000 N 
ATOM      4  H   UNL     1       0.321   9.107  20.517  0.00  0.00    +0.000 HD
ENDROOT
BRANCH   3   5
ATOM      5  C   UNL     1       0.461  10.732  19.164  0.00  0.00    +0.000 C 
ATOM      6  C   UNL     1      -1.051  10.930  19.296  0.00  0.00    +0.000 C 
BRANCH   5   7
ATOM      7  C   UNL     1       1.175  11.835  19.875  0.00  0.00    +0.000 A 
ATOM      8  N   UNL     1       1.104  12.119  21.170  0.00  0.00    +0.000 NA
ATOM      9  N   UNL     1       1.816  13.291  21.418  0.00  0.00    +0.000 NA
ATOM     10  C   UNL     1       2.300  13.668  20.269  0.00  0.00    +0.000 A 
ATOM     11  N   UNL     1       1.961  12.775  19.304  0.00  0.00    +0.000 N 
ATOM     12  C   UNL     1       2.519  13.099  18.013  0.00  0.00    +0.000 C 
ATOM     13  C   UNL     1       3.582  14.161  18.387  0.00  0.00    +0.000 C 
ATOM     14  C   UNL     1       3.122  14.765  19.738  0.00  0.00    +0.000 C 
ENDBRANCH   5   7
ENDBRANCH   3   5
BRANCH   1  15
ATOM     15  C   UNL     1       2.155   7.376  19.882  0.00  0.00    +0.000 C 
BRANCH  15  16
ATOM     16  O   UNL     1       2.466   6.301  19.003  0.00  0.00    +0.000 OA
BRANCH  16  22
ATOM     17  C   UNL     1       5.562   5.548  16.059  0.00  0.00    +0.000 C 
ATOM     18  C   UNL     1       4.390   5.301  17.003  0.00  0.00    +0.000 C 
ATOM     19  C   UNL     1       3.917   3.849  16.933  0.00  0.00    +0.000 C 
ATOM     20  C   UNL     1       2.770   3.570  17.906  0.00  0.00    +0.000 C 
ATOM     21  C   UNL     1       3.095   3.987  19.363  0.00  0.00    +0.000 C 
ATOM     22  C   UNL     1       3.569   5.473  19.389  0.00  0.00    +0.000 C 
ATOM     23  C   UNL     1       4.772   5.643  18.447  0.00  0.00    +0.000 C 
BRANCH  21  24
ATOM     24  C   UNL     1       1.884   3.707  20.309  0.00  0.00    +0.000 C 
ATOM     25  C   UNL     1       0.753   2.938  19.604  0.00  0.00    +0.000 C 
ATOM     26  C   UNL     1       2.293   2.906  21.551  0.00  0.00    +0.000 C 
ENDBRANCH  21  24
ENDBRANCH  16  22
ENDBRANCH  15  16
ENDBRANCH   1  15
TORSDOF 6
ENDMDL
MODEL 3
REMARK VINA RESULT:      -7.4      2.623      7.952
REMARK  Name = 
REMARK  10 active torsions:
REMARK  status: ('A' for Active; 'I' for Inactive)
REMARK    1  A    between atoms: C_1  and  C_2
REMARK    2  A    between atoms: C_5  and  C_6
REMARK    3  A    between atoms: C_6  and  C_7
REMARK    4  A    between atoms: C_6  and  C_8
REMARK    5  A    between atoms: C_9  and  O_10
REMARK    6  A    between atoms: O_10  and  C_11
REMARK    7  A    between atoms: C_11  and  C_12
REMARK    8  A    between atoms: N_14  and  C_15
REMARK    9  A    between atoms: C_15  and  C_16
REMARK   10  A    between atoms: C_15  and  C_17
REMARK                            x       y       z     vdW  Elec       q    Type
REMARK                         _______ _______ _______ _____ _____    ______ ____
ROOT
ATOM      1  C   UNL     1       1.829   8.656  18.447  0.00  0.00    +0.000 C 
ATOM      2  O   UNL     1       1.991   9.004  17.283  0.00  0.00    +0.000 OA
ATOM      3  N   UNL     1       2.148   7.382  18.878  0.00  0.00    +0.000 N 
ATOM      4  H   UNL     1       2.208   7.179  19.869  0.00  0.00    +0.000 HD
ENDROOT
BRANCH   3   5
ATOM      5  C   UNL     1       2.716   6.404  17.964  0.00  0.00    +0.000 C 
ATOM      6  C   UNL     1       4.240   6.349  18.091  0.00  0.00    +0.000 C 
BRANCH   5   7
ATOM      7  C   UNL     1       2.137   5.066  18.292  0.00  0.00    +0.000 A 
ATOM      8  N   UNL     1       1.591   4.210  17.438  0.00  0.00    +0.000 NA
ATOM      9  N   UNL     1       1.060   3.135  18.149  0.00  0.00    +0.000 NA
ATOM     10  C   UNL     1       1.313   3.375  19.405  0.00  0.00    +0.000 A 
ATOM     11  N   UNL     1       2.010   4.533  19.528  0.00  0.00    +0.000 N 
ATOM     12  C   UNL     1       2.380   4.828  20.890  0.00  0.00    +0.000 C 
ATOM     13  C   UNL     1       2.116   3.471  21.590  0.00  0.00    +0.000 C 
ATOM     14  C   UNL     1       1.077   2.734  20.707  0.00  0.00    +0.000 C 
ENDBRANCH   5   7
ENDBRANCH   3   5
BRANCH   1  15
ATOM     15  C   UNL     1       1.195   9.549  19.526  0.00  0.00    +0.000 C 
BRANCH  15  16
ATOM     16  O   UNL     1      -0.095  10.003  19.135  0.00  0.00    +0.000 OA
BRANCH  16  22
ATOM     17  C   UNL     1      -0.046  13.644  21.492  0.00  0.00    +0.000 C 
ATOM     18  C   UNL     1      -0.554  12.536  20.576  0.00  0.00    +0.000 C 
ATOM     19  C   UNL     1      -2.005  12.779  20.162  0.00  0.00    +0.000 C 
ATOM     20  C   UNL     1      -2.519  11.699  19.206  0.00  0.00    +0.000 C 
ATOM     21  C   UNL     1      -1.606  11.500  17.970  0.00  0.00    +0.000 C 
ATOM     22  C   UNL     1      -0.138  11.253  18.437  0.00  0.00    +0.000 C 
ATOM     23  C   UNL     1       0.321  12.422  19.323  0.00  0.00    +0.000 C 
BRANCH  21  24
ATOM     24  C   UNL     1      -2.159  10.371  17.042  0.00  0.00    +0.000 C 
ATOM     25  C   UNL     1      -3.275   9.553  17.713  0.00  0.00    +0.000 C 
ATOM     26  C   UNL     1      -2.711  10.925  15.723  0.00  0.00    +0.000 C 
ENDBRANCH  21  24
ENDBRANCH  16  22
ENDBRANCH  15  16
ENDBRANCH   1  15
TORSDOF 6
ENDMDL
MODEL 4
REMARK VINA RESULT:      -7.4      2.366      3.205
REMARK  Name = 
REMARK  10 active torsions:
REMARK  status: ('A' for Active; 'I' for Inactive)
REMARK    1  A    between atoms: C_1  and  C_2
REMARK    2  A    between atoms: C_5  and  C_6
REMARK    3  A    between atoms: C_6  and  C_7
REMARK    4  A    between atoms: C_6  and  C_8
REMARK    5  A    between atoms: C_9  and  O_10
REMARK    6  A    between atoms: O_10  and  C_11
REMARK    7  A    between atoms: C_11  and  C_12
REMARK    8  A    between atoms: N_14  and  C_15
REMARK    9  A    between atoms: C_15  and  C_16
REMARK   10  A    between atoms: C_15  and  C_17
REMARK                            x       y       z     vdW  Elec       q    Type
REMARK                         _______ _______ _______ _____ _____    ______ ____
ROOT
ATOM      1  C   UNL     1       1.611   8.712  18.467  0.00  0.00    +0.000 C 
ATOM      2  O   UNL     1       0.866   9.246  17.655  0.00  0.00    +0.000 OA
ATOM      3  N   UNL     1       1.370   8.772  19.827  0.00  0.00    +0.000 N 
ATOM      4  H   UNL     1       1.867   8.156  20.461  0.00  0.00    +0.000 HD
ENDROOT
BRANCH   3   5
ATOM      5  C   UNL     1       0.198   9.458  20.349  0.00  0.00    +0.000 C 
ATOM      6  C   UNL     1      -0.239   8.863  21.689  0.00  0.00    +0.000 C 
BRANCH   5   7
ATOM      7  C   UNL     1       0.543  10.901  20.529  0.00  0.00    +0.000 A 
ATOM      8  N   UNL     1       1.306  11.418  21.484  0.00  0.00    +0.000 NA
ATOM      9  N   UNL     1       1.284  12.808  21.379  0.00  0.00    +0.000 NA
ATOM     10  C   UNL     1       0.519  13.080  20.361  0.00  0.00    +0.000 A 
ATOM     11  N   UNL     1       0.078  11.931  19.788  0.00  0.00    +0.000 N 
ATOM     12  C   UNL     1      -0.726  12.158  18.612  0.00  0.00    +0.000 C 
ATOM     13  C   UNL     1      -0.430  13.648  18.309  0.00  0.00    +0.000 C 
ATOM     14  C   UNL     1       0.025  14.271  19.654  0.00  0.00    +0.000 C 
ENDBRANCH   5   7
ENDBRANCH   3   5
BRANCH   1  15
ATOM     15  C   UNL     1       2.915   7.991  18.087  0.00  0.00    +0.000 C 
BRANCH  15  16
ATOM     16  O   UNL     1       2.709   6.593  17.926  0.00  0.00    +0.000 OA
BRANCH  16  22
ATOM     17  C   UNL     1       6.549   5.447  16.264  0.00  0.00    +0.000 C 
ATOM     18  C   UNL     1       5.113   5.337  16.762  0.00  0.00    +0.000 C 
ATOM     19  C   UNL     1       4.581   3.912  16.614  0.00  0.00    +0.000 C 
ATOM     20  C   UNL     1       3.153   3.772  17.149  0.00  0.00    +0.000 C 
ATOM     21  C   UNL     1       2.999   4.282  18.604  0.00  0.00    +0.000 C 
ATOM     22  C   UNL     1       3.550   5.739  18.710  0.00  0.00    +0.000 C 
ATOM     23  C   UNL     1       5.009   5.770  18.229  0.00  0.00    +0.000 C 
BRANCH  21  24
ATOM     24  C   UNL     1       1.521   4.142  19.092  0.00  0.00    +0.000 C 
ATOM     25  C   UNL     1       0.980   2.712  18.924  0.00  0.00    +0.000 C 
ATOM     26  C   UNL     1       1.359   4.536  20.565  0.00  0.00    +0.000 C 
ENDBRANCH  21  24
ENDBRANCH  16  22
ENDBRANCH  15  16
ENDBRANCH   1  15
TORSDOF 6
ENDMDL
MODEL 5
REMARK VINA RESULT:      -7.3      2.335      3.329
REMARK  Name = 
REMARK  10 active torsions:
REMARK  status: ('A' for Active; 'I' for Inactive)
REMARK    1  A    between atoms: C_1  and  C_2
REMARK    2  A    between atoms: C_5  and  C_6
REMARK    3  A    between atoms: C_6  and  C_7
REMARK    4  A    between atoms: C_6  and  C_8
REMARK    5  A    between atoms: C_9  and  O_10
REMARK    6  A    between atoms: O_10  and  C_11
REMARK    7  A    between atoms: C_11  and  C_12
REMARK    8  A    between atoms: N_14  and  C_15
REMARK    9  A    between atoms: C_15  and  C_16
REMARK   10  A    between atoms: C_15  and  C_17
REMARK                            x       y       z     vdW  Elec       q    Type
REMARK                         _______ _______ _______ _____ _____    ______ ____
ROOT
ATOM      1  C   UNL     1       1.882   8.606  18.611  0.00  0.00    +0.000 C 
ATOM      2  O   UNL     1       2.181   8.849  17.448  0.00  0.00    +0.000 OA
ATOM      3  N   UNL     1       1.057   9.442  19.341  0.00  0.00    +0.000 N 
ATOM      4  H   UNL     1       0.653   9.124  20.215  0.00  0.00    +0.000 HD
ENDROOT
BRANCH   3   5
ATOM      5  C   UNL     1       0.489  10.640  18.743  0.00  0.00    +0.000 C 
ATOM      6  C   UNL     1      -0.981  10.428  18.372  0.00  0.00    +0.000 C 
BRANCH   5   7
ATOM      7  C   UNL     1       0.601  11.754  19.732  0.00  0.00    +0.000 A 
ATOM      8  N   UNL     1       1.004  11.655  20.992  0.00  0.00    +0.000 NA
ATOM      9  N   UNL     1       0.851  12.892  21.617  0.00  0.00    +0.000 NA
ATOM     10  C   UNL     1       0.371  13.695  20.711  0.00  0.00    +0.000 A 
ATOM     11  N   UNL     1       0.242  13.041  19.528  0.00  0.00    +0.000 N 
ATOM     12  C   UNL     1      -0.226  13.891  18.460  0.00  0.00    +0.000 C 
ATOM     13  C   UNL     1      -0.032  15.301  19.071  0.00  0.00    +0.000 C 
ATOM     14  C   UNL     1      -0.043  15.103  20.608  0.00  0.00    +0.000 C 
ENDBRANCH   5   7
ENDBRANCH   3   5
BRANCH   1  15
ATOM     15  C   UNL     1       2.434   7.411  19.405  0.00  0.00    +0.000 C 
BRANCH  15  16
ATOM     16  O   UNL     1       2.815   6.345  18.544  0.00  0.00    +0.000 OA
BRANCH  16  22
ATOM     17  C   UNL     1       6.658   5.322  16.811  0.00  0.00    +0.000 C 
ATOM     18  C   UNL     1       5.194   5.207  17.220  0.00  0.00    +0.000 C 
ATOM     19  C   UNL     1       4.584   3.890  16.741  0.00  0.00    +0.000 C 
ATOM     20  C   UNL     1       3.126   3.737  17.180  0.00  0.00    +0.000 C 
ATOM     21  C   UNL     1       2.929   3.928  18.706  0.00  0.00    +0.000 C 
ATOM     22  C   UNL     1       3.561   5.283  19.150  0.00  0.00    +0.000 C 
ATOM     23  C   UNL     1       5.042   5.315  18.741  0.00  0.00    +0.000 C 
BRANCH  21  24
ATOM     24  C   UNL     1       1.423   3.789  19.097  0.00  0.00    +0.000 C 
ATOM     25  C   UNL     1       0.842   2.414  18.723  0.00  0.00    +0.000 C 
ATOM     26  C   UNL     1       1.193   4.004  20.598  0.00  0.00    +0.000 C 
ENDBRANCH  21  24
ENDBRANCH  16  22
ENDBRANCH  15  16
ENDBRANCH   1  15
TORSDOF 6
ENDMDL
MODEL 6
REMARK VINA RESULT:      -7.3      0.986      2.938
REMARK  Name = 
REMARK  10 active torsions:
REMARK  status: ('A' for Active; 'I' for Inactive)
REMARK    1  A    between atoms: C_1  and  C_2
REMARK    2  A    between atoms: C_5  and  C_6
REMARK    3  A    between atoms: C_6  and  C_7
REMARK    4  A    between atoms: C_6  and  C_8
REMARK    5  A    between atoms: C_9  and  O_10
REMARK    6  A    between atoms: O_10  and  C_11
REMARK    7  A    between atoms: C_11  and  C_12
REMARK    8  A    between atoms: N_14  and  C_15
REMARK    9  A    between atoms: C_15  and  C_16
REMARK   10  A    between atoms: C_15  and  C_17
REMARK                            x       y       z     vdW  Elec       q    Type
REMARK                         _______ _______ _______ _____ _____    ______ ____
ROOT
ATOM      1  C   UNL     1       1.771   8.872  18.646  0.00  0.00    +0.000 C 
ATOM      2  O   UNL     1       1.538   8.540  19.802  0.00  0.00    +0.000 OA
ATOM      3  N   UNL     1       1.161   9.968  18.064  0.00  0.00    +0.000 N 
ATOM      4  H   UNL     1       1.517  10.349  17.195  0.00  0.00    +0.000 HD
ENDROOT
BRANCH   3   5
ATOM      5  C   UNL     1       0.227  10.790  18.818  0.00  0.00    +0.000 C 
ATOM      6  C   UNL     1       0.622  12.267  18.762  0.00  0.00    +0.000 C 
BRANCH   5   7
ATOM      7  C   UNL     1      -1.134  10.612  18.227  0.00  0.00    +0.000 A 
ATOM      8  N   UNL     1      -1.460   9.816  17.217  0.00  0.00    +0.000 NA
ATOM      9  N   UNL     1      -2.797  10.025  16.885  0.00  0.00    +0.000 NA
ATOM     10  C   UNL     1      -3.235  10.932  17.713  0.00  0.00    +0.000 A 
ATOM     11  N   UNL     1      -2.251  11.287  18.579  0.00  0.00    +0.000 N 
ATOM     12  C   UNL     1      -2.686  12.245  19.566  0.00  0.00    +0.000 C 
ATOM     13  C   UNL     1      -4.226  12.176  19.415  0.00  0.00    +0.000 C 
ATOM     14  C   UNL     1      -4.489  11.651  17.980  0.00  0.00    +0.000 C 
ENDBRANCH   5   7
ENDBRANCH   3   5
BRANCH   1  15
ATOM     15  C   UNL     1       2.693   8.085  17.699  0.00  0.00    +0.000 C 
BRANCH  15  16
ATOM     16  O   UNL     1       3.239   6.938  18.339  0.00  0.00    +0.000 OA
BRANCH  16  22
ATOM     17  C   UNL     1       0.990   3.866  20.417  0.00  0.00    +0.000 C 
ATOM     18  C   UNL     1       2.165   4.597  19.777  0.00  0.00    +0.000 C 
ATOM     19  C   UNL     1       3.458   3.793  19.910  0.00  0.00    +0.000 C 
ATOM     20  C   UNL     1       4.641   4.491  19.235  0.00  0.00    +0.000 C 
ATOM     21  C   UNL     1       4.361   4.867  17.758  0.00  0.00    +0.000 C 
ATOM     22  C   UNL     1       3.036   5.688  17.669  0.00  0.00    +0.000 C 
ATOM     23  C   UNL     1       1.890   4.879  18.296  0.00  0.00    +0.000 C 
BRANCH  21  24
ATOM     24  C   UNL     1       5.587   5.600  17.124  0.00  0.00    +0.000 C 
ATOM     25  C   UNL     1       6.899   4.819  17.312  0.00  0.00    +0.000 C 
ATOM     26  C   UNL     1       5.399   5.849  15.623  0.00  0.00    +0.000 C 
ENDBRANCH  21  24
ENDBRANCH  16  22
ENDBRANCH  15  16
ENDBRANCH   1  15
TORSDOF 6
ENDMDL
MODEL 7
REMARK VINA RESULT:      -7.2      2.773      7.813
REMARK  Name = 
REMARK  10 active torsions:
REMARK  status: ('A' for Active; 'I' for Inactive)
REMARK    1  A    between atoms: C_1  and  C_2
REMARK    2  A    between atoms: C_5  and  C_6
REMARK    3  A    between atoms: C_6  and  C_7
REMARK    4  A    between atoms: C_6  and  C_8
REMARK    5  A    between atoms: C_9  and  O_10
REMARK    6  A    between atoms: O_10  and  C_11
REMARK    7  A    between atoms: C_11  and  C_12
REMARK    8  A    between atoms: N_14  and  C_15
REMARK    9  A    between atoms: C_15  and  C_16
REMARK   10  A    between atoms: C_15  and  C_17
REMARK                            x       y       z     vdW  Elec       q    Type
REMARK                         _______ _______ _______ _____ _____    ______ ____
ROOT
ATOM      1  C   UNL     1       2.041   8.535  18.488  0.00  0.00    +0.000 C 
ATOM      2  O   UNL     1       2.118   8.885  17.317  0.00  0.00    +0.000 OA
ATOM      3  N   UNL     1       2.347   7.246  18.886  0.00  0.00    +0.000 N 
ATOM      4  H   UNL     1       2.482   7.034  19.868  0.00  0.00    +0.000 HD
ENDROOT
BRANCH   3   5
ATOM      5  C   UNL     1       2.800   6.255  17.923  0.00  0.00    +0.000 C 
ATOM      6  C   UNL     1       4.325   6.128  17.937  0.00  0.00    +0.000 C 
BRANCH   5   7
ATOM      7  C   UNL     1       2.184   4.941  18.280  0.00  0.00    +0.000 A 
ATOM      8  N   UNL     1       1.601   4.089  17.447  0.00  0.00    +0.000 NA
ATOM      9  N   UNL     1       1.045   3.043  18.182  0.00  0.00    +0.000 NA
ATOM     10  C   UNL     1       1.320   3.295  19.430  0.00  0.00    +0.000 A 
ATOM     11  N   UNL     1       2.054   4.433  19.526  0.00  0.00    +0.000 N 
ATOM     12  C   UNL     1       2.449   4.739  20.879  0.00  0.00    +0.000 C 
ATOM     13  C   UNL     1       2.151   3.404  21.605  0.00  0.00    +0.000 C 
ATOM     14  C   UNL     1       1.080   2.684  20.746  0.00  0.00    +0.000 C 
ENDBRANCH   5   7
ENDBRANCH   3   5
BRANCH   1  15
ATOM     15  C   UNL     1       1.533   9.443  19.621  0.00  0.00    +0.000 C 
BRANCH  15  16
ATOM     16  O   UNL     1       0.540  10.348  19.157  0.00  0.00    +0.000 OA
BRANCH  16  22
ATOM     17  C   UNL     1      -2.642  10.895  16.260  0.00  0.00    +0.000 C 
ATOM     18  C   UNL     1      -1.765  11.123  17.485  0.00  0.00    +0.000 C 
ATOM     19  C   UNL     1      -2.241  12.330  18.293  0.00  0.00    +0.000 C 
ATOM     20  C   UNL     1      -1.399  12.550  19.551  0.00  0.00    +0.000 C 
ATOM     21  C   UNL     1      -1.294  11.283  20.439  0.00  0.00    +0.000 C 
ATOM     22  C   UNL     1      -0.803  10.078  19.578  0.00  0.00    +0.000 C 
ATOM     23  C   UNL     1      -1.751   9.882  18.385  0.00  0.00    +0.000 C 
BRANCH  21  24
ATOM     24  C   UNL     1      -0.403  11.551  21.695  0.00  0.00    +0.000 C 
ATOM     25  C   UNL     1      -0.502  13.006  22.186  0.00  0.00    +0.000 C 
ATOM     26  C   UNL     1      -0.766  10.633  22.868  0.00  0.00    +0.000 C 
ENDBRANCH  21  24
ENDBRANCH  16  22
ENDBRANCH  15  16
ENDBRANCH   1  15
TORSDOF 6
ENDMDL
MODEL 8
REMARK VINA RESULT:      -7.2      2.441      4.287
REMARK  Name = 
REMARK  10 active torsions:
REMARK  status: ('A' for Active; 'I' for Inactive)
REMARK    1  A    between atoms: C_1  and  C_2
REMARK    2  A    between atoms: C_5  and  C_6
REMARK    3  A    between atoms: C_6  and  C_7
REMARK    4  A    between atoms: C_6  and  C_8
REMARK    5  A    between atoms: C_9  and  O_10
REMARK    6  A    between atoms: O_10  and  C_11
REMARK    7  A    between atoms: C_11  and  C_12
REMARK    8  A    between atoms: N_14  and  C_15
REMARK    9  A    between atoms: C_15  and  C_16
REMARK   10  A    between atoms: C_15  and  C_17
REMARK                            x       y       z     vdW  Elec       q    Type
REMARK                         _______ _______ _______ _____ _____    ______ ____
ROOT
ATOM      1  C   UNL     1       1.883   8.480  18.341  0.00  0.00    +0.000 C 
ATOM      2  O   UNL     1       1.075   8.918  17.531  0.00  0.00    +0.000 OA
ATOM      3  N   UNL     1       1.666   8.561  19.704  0.00  0.00    +0.000 N 
ATOM      4  H   UNL     1       2.230   8.014  20.344  0.00  0.00    +0.000 HD
ENDROOT
BRANCH   3   5
ATOM      5  C   UNL     1       0.447   9.153  20.232  0.00  0.00    +0.000 C 
ATOM      6  C   UNL     1       0.043   8.498  21.555  0.00  0.00    +0.000 C 
BRANCH   5   7
ATOM      7  C   UNL     1       0.692  10.611  20.449  0.00  0.00    +0.000 A 
ATOM      8  N   UNL     1       1.398  11.157  21.430  0.00  0.00    +0.000 NA
ATOM      9  N   UNL     1       1.286  12.544  21.353  0.00  0.00    +0.000 NA
ATOM     10  C   UNL     1       0.526  12.787  20.323  0.00  0.00    +0.000 A 
ATOM     11  N   UNL     1       0.174  11.624  19.718  0.00  0.00    +0.000 N 
ATOM     12  C   UNL     1      -0.619  11.823  18.529  0.00  0.00    +0.000 C 
ATOM     13  C   UNL     1      -0.416  13.335  18.264  0.00  0.00    +0.000 C 
ATOM     14  C   UNL     1      -0.031  13.958  19.630  0.00  0.00    +0.000 C 
ENDBRANCH   5   7
ENDBRANCH   3   5
BRANCH   1  15
ATOM     15  C   UNL     1       3.240   7.869  17.952  0.00  0.00    +0.000 C 
BRANCH  15  16
ATOM     16  O   UNL     1       3.440   6.606  18.574  0.00  0.00    +0.000 OA
BRANCH  16  22
ATOM     17  C   UNL     1       1.155   3.606  20.718  0.00  0.00    +0.000 C 
ATOM     18  C   UNL     1       2.304   4.263  19.961  0.00  0.00    +0.000 C 
ATOM     19  C   UNL     1       3.489   3.309  19.812  0.00  0.00    +0.000 C 
ATOM     20  C   UNL     1       4.636   3.936  19.017  0.00  0.00    +0.000 C 
ATOM     21  C   UNL     1       4.187   4.495  17.642  0.00  0.00    +0.000 C 
ATOM     22  C   UNL     1       2.980   5.465  17.841  0.00  0.00    +0.000 C 
ATOM     23  C   UNL     1       1.848   4.729  18.574  0.00  0.00    +0.000 C 
BRANCH  21  24
ATOM     24  C   UNL     1       5.387   5.147  16.884  0.00  0.00    +0.000 C 
ATOM     25  C   UNL     1       6.741   4.822  17.537  0.00  0.00    +0.000 C 
ATOM     26  C   UNL     1       5.454   4.703  15.417  0.00  0.00    +0.000 C 
ENDBRANCH  21  24
ENDBRANCH  16  22
ENDBRANCH  15  16
ENDBRANCH   1  15
TORSDOF 6
ENDMDL
MODEL 9
REMARK VINA RESULT:      -7.1      2.534      4.948
REMARK  Name = 
REMARK  10 active torsions:
REMARK  status: ('A' for Active; 'I' for Inactive)
REMARK    1  A    between atoms: C_1  and  C_2
REMARK    2  A    between atoms: C_5  and  C_6
REMARK    3  A    between atoms: C_6  and  C_7
REMARK    4  A    between atoms: C_6  and  C_8
REMARK    5  A    between atoms: C_9  and  O_10
REMARK    6  A    between atoms: O_10  and  C_11
REMARK    7  A    between atoms: C_11  and  C_12
REMARK    8  A    between atoms: N_14  and  C_15
REMARK    9  A    between atoms: C_15  and  C_16
REMARK   10  A    between atoms: C_15  and  C_17
REMARK                            x       y       z     vdW  Elec       q    Type
REMARK                         _______ _______ _______ _____ _____    ______ ____
ROOT
ATOM      1  C   UNL     1       1.947   8.329  18.860  0.00  0.00    +0.000 C 
ATOM      2  O   UNL     1       2.397   8.549  17.742  0.00  0.00    +0.000 OA
ATOM      3  N   UNL     1       1.136   9.240  19.512  0.00  0.00    +0.000 N 
ATOM      4  H   UNL     1       0.607   8.958  20.329  0.00  0.00    +0.000 HD
ENDROOT
BRANCH   3   5
ATOM      5  C   UNL     1       0.764  10.495  18.878  0.00  0.00    +0.000 C 
ATOM      6  C   UNL     1      -0.757  10.632  18.775  0.00  0.00    +0.000 C 
BRANCH   5   7
ATOM      7  C   UNL     1       1.313  11.615  19.702  0.00  0.00    +0.000 A 
ATOM      8  N   UNL     1       1.136  11.799  21.004  0.00  0.00    +0.000 NA
ATOM      9  N   UNL     1       1.703  13.018  21.372  0.00  0.00    +0.000 NA
ATOM     10  C   UNL     1       2.211  13.521  20.283  0.00  0.00    +0.000 A 
ATOM     11  N   UNL     1       2.026  12.668  19.244  0.00  0.00    +0.000 N 
ATOM     12  C   UNL     1       2.621  13.135  18.016  0.00  0.00    +0.000 C 
ATOM     13  C   UNL     1       3.541  14.273  18.524  0.00  0.00    +0.000 C 
ATOM     14  C   UNL     1       2.940  14.732  19.877  0.00  0.00    +0.000 C 
ENDBRANCH   5   7
ENDBRANCH   3   5
BRANCH   1  15
ATOM     15  C   UNL     1       2.282   7.076  19.686  0.00  0.00    +0.000 C 
BRANCH  15  16
ATOM     16  O   UNL     1       3.236   6.255  19.023  0.00  0.00    +0.000 OA
BRANCH  16  22
ATOM     17  C   UNL     1       1.342   2.960  21.115  0.00  0.00    +0.000 C 
ATOM     18  C   UNL     1       2.358   3.737  20.285  0.00  0.00    +0.000 C 
ATOM     19  C   UNL     1       3.532   2.849  19.872  0.00  0.00    +0.000 C 
ATOM     20  C   UNL     1       4.543   3.600  19.001  0.00  0.00    +0.000 C 
ATOM     21  C   UNL     1       3.893   4.284  17.771  0.00  0.00    +0.000 C 
ATOM     22  C   UNL     1       2.704   5.181  18.238  0.00  0.00    +0.000 C 
ATOM     23  C   UNL     1       1.702   4.329  19.034  0.00  0.00    +0.000 C 
BRANCH  21  24
ATOM     24  C   UNL     1       4.960   5.058  16.932  0.00  0.00    +0.000 C 
ATOM     25  C   UNL     1       6.290   5.226  17.685  0.00  0.00    +0.000 C 
ATOM     26  C   UNL     1       5.259   4.365  15.597  0.00  0.00    +0.000 C 
ENDBRANCH  21  24
ENDBRANCH  16  22
ENDBRANCH  15  16
ENDBRANCH   1  15
TORSDOF 6
ENDMDL
