MODEL 1
REMARK VINA RESULT:      -7.0      0.000      0.000
REMARK  Name = 
REMARK  13 active torsions:
REMARK  status: ('A' for Active; 'I' for Inactive)
REMARK    1  A    between atoms: C_1  and  C_2
REMARK    2  A    between atoms: C_2  and  C_3
REMARK    3  A    between atoms: C_3  and  N_4
REMARK    4  A    between atoms: N_4  and  C_5
REMARK    5  A    between atoms: N_4  and  C_8
REMARK    6  A    between atoms: C_5  and  C_6
REMARK    7  A    between atoms: C_6  and  C_7
REMARK    8  A    between atoms: C_8  and  C_9
REMARK    9  A    between atoms: C_9  and  C_10
REMARK   10  A    between atoms: C_15  and  O_16
REMARK   11  A    between atoms: O_16  and  C_17
REMARK   12  A    between atoms: C_17  and  C_18
REMARK   13  A    between atoms: C_18  and  C_19
REMARK                            x       y       z     vdW  Elec       q    Type
REMARK                         _______ _______ _______ _____ _____    ______ ____
ROOT
ATOM      1  C   UNL     1       2.862   7.056  18.323  0.00  0.00    +0.000 A 
ATOM      2  C   UNL     1       2.638   8.167  17.482  0.00  0.00    +0.000 A 
ATOM      3  C   UNL     1       1.907   9.274  17.914  0.00  0.00    +0.000 A 
ATOM      4  C   UNL     1       1.393   9.299  19.201  0.00  0.00    +0.000 A 
ATOM      5  C   UNL     1       1.604   8.213  20.049  0.00  0.00    +0.000 A 
ATOM      6  C   UNL     1       2.291   7.068  19.620  0.00  0.00    +0.000 A 
ENDROOT
BRANCH   1   7
ATOM      7  C   UNL     1       3.611   5.872  17.736  0.00  0.00    +0.000 C 
BRANCH   7   8
ATOM      8  C   UNL     1       4.979   5.555  18.408  0.00  0.00    +0.000 C 
BRANCH   8   9
ATOM      9  N   UNL     1       5.907   4.724  17.596  0.00  0.00    +0.000 NA
BRANCH   9  10
ATOM     10  C   UNL     1       5.515   4.758  16.168  0.00  0.00    +0.000 C 
BRANCH  10  12
ATOM     11  C   UNL     1       6.207   3.988  13.813  0.00  0.00    +0.000 C 
ATOM     12  C   UNL     1       6.042   3.615  15.279  0.00  0.00    +0.000 C 
ENDBRANCH  10  12
ENDBRANCH   9  10
BRANCH   9  13
ATOM     13  C   UNL     1       7.322   5.037  17.832  0.00  0.00    +0.000 C 
BRANCH  13  14
ATOM     14  C   UNL     1       7.609   6.366  18.543  0.00  0.00    +0.000 C 
ATOM     15  C   UNL     1       7.651   7.509  17.540  0.00  0.00    +0.000 C 
ENDBRANCH  13  14
ENDBRANCH   9  13
ENDBRANCH   8   9
ENDBRANCH   7   8
ENDBRANCH   1   7
BRANCH   6  16
ATOM     16  O   UNL     1       2.411   5.948  20.425  0.00  0.00    +0.000 OA
BRANCH  16  17
ATOM     17  C   UNL     1       1.159   5.311  20.754  0.00  0.00    +0.000 C 
BRANCH  17  18
ATOM     18  C   UNL     1       1.217   3.778  20.841  0.00  0.00    +0.000 C 
BRANCH  18  19
ATOM     19  C   UNL     1       2.092   3.108  19.810  0.00  0.00    +0.000 A 
ATOM     20  C   UNL     1       3.346   2.605  20.188  0.00  0.00    +0.000 A 
ATOM     21  C   UNL     1       4.154   1.946  19.265  0.00  0.00    +0.000 A 
ATOM     22  C   UNL     1       3.714   1.763  17.960  0.00  0.00    +0.000 A 
ATOM     23  C   UNL     1       2.468   2.249  17.567  0.00  0.00    +0.000 A 
ATOM     24  C   UNL     1       1.654   2.924  18.492  0.00  0.00    +0.000 A 
ENDBRANCH  18  19
ENDBRANCH  17  18
ENDBRANCH  16  17
ENDBRANCH   6  16
TORSDOF 11
ENDMDL
MODEL 2
REMARK VINA RESULT:      -6.7      0.755      2.264
REMARK  Name = 
REMARK  13 active torsions:
REMARK  status: ('A' for Active; 'I' for Inactive)
REMARK    1  A    between atoms: C_1  and  C_2
REMARK    2  A    between atoms: C_2  and  C_3
REMARK    3  A    between atoms: C_3  and  N_4
REMARK    4  A    between atoms: N_4  and  C_5
REMARK    5  A    between atoms: N_4  and  C_8
REMARK    6  A    between atoms: C_5  and  C_6
REMARK    7  A    between atoms: C_6  and  C_7
REMARK    8  A    between atoms: C_8  and  C_9
REMARK    9  A    between atoms: C_9  and  C_10
REMARK   10  A    between atoms: C_15  and  O_16
REMARK   11  A    between atoms: O_16  and  C_17
REMARK   12  A    between atoms: C_17  and  C_18
REMARK   13  A    between atoms: C_18  and  C_19
REMARK                            x       y       z     vdW  Elec       q    Type
REMARK                         _______ _______ _______ _____ _____    ______ ____
ROOT
ATOM      1  C   UNL     1       2.873   7.469  18.279  0.00  0.00    +0.000 A 
ATOM      2  C   UNL     1       2.535   8.640  17.566  0.00  0.00    +0.000 A 
ATOM      3  C   UNL     1       1.677   9.600  18.104  0.00  0.00    +0.000 A 
ATOM      4  C   UNL     1       1.147   9.415  19.371  0.00  0.00    +0.000 A 
ATOM      5  C   UNL     1       1.470   8.268  20.093  0.00  0.00    +0.000 A 
ATOM      6  C   UNL     1       2.288   7.265  19.553  0.00  0.00    +0.000 A 
ENDROOT
BRANCH   1   7
ATOM      7  C   UNL     1       3.760   6.454  17.579  0.00  0.00    +0.000 C 
BRANCH   7   8
ATOM      8  C   UNL     1       5.004   7.050  16.856  0.00  0.00    +0.000 C 
BRANCH   8   9
ATOM      9  N   UNL     1       5.872   6.057  16.167  0.00  0.00    +0.000 NA
BRANCH   9  10
ATOM     10  C   UNL     1       7.277   6.202  16.613  0.00  0.00    +0.000 C 
BRANCH  10  12
ATOM     11  C   UNL     1       7.714   5.751  19.108  0.00  0.00    +0.000 C 
ATOM     12  C   UNL     1       7.497   6.792  18.020  0.00  0.00    +0.000 C 
ENDBRANCH  10  12
ENDBRANCH   9  10
BRANCH   9  13
ATOM     13  C   UNL     1       5.360   4.684  16.251  0.00  0.00    +0.000 C 
BRANCH  13  14
ATOM     14  C   UNL     1       6.073   3.643  15.379  0.00  0.00    +0.000 C 
ATOM     15  C   UNL     1       5.991   4.032  13.911  0.00  0.00    +0.000 C 
ENDBRANCH  13  14
ENDBRANCH   9  13
ENDBRANCH   8   9
ENDBRANCH   7   8
ENDBRANCH   1   7
BRANCH   6  16
ATOM     16  O   UNL     1       2.526   6.080  20.227  0.00  0.00    +0.000 OA
BRANCH  16  17
ATOM     17  C   UNL     1       1.357   5.496  20.839  0.00  0.00    +0.000 C 
BRANCH  17  18
ATOM     18  C   UNL     1       1.336   3.959  20.858  0.00  0.00    +0.000 C 
BRANCH  18  19
ATOM     19  C   UNL     1       2.140   3.292  19.769  0.00  0.00    +0.000 A 
ATOM     20  C   UNL     1       3.326   2.619  20.099  0.00  0.00    +0.000 A 
ATOM     21  C   UNL     1       4.065   1.961  19.120  0.00  0.00    +0.000 A 
ATOM     22  C   UNL     1       3.621   1.947  17.804  0.00  0.00    +0.000 A 
ATOM     23  C   UNL     1       2.441   2.604  17.458  0.00  0.00    +0.000 A 
ATOM     24  C   UNL     1       1.698   3.279  18.440  0.00  0.00    +0.000 A 
ENDBRANCH  18  19
ENDBRANCH  17  18
ENDBRANCH  16  17
ENDBRANCH   6  16
TORSDOF 11
ENDMDL
MODEL 3
REMARK VINA RESULT:      -6.5      0.847      1.074
REMARK  Name = 
REMARK  13 active torsions:
REMARK  status: ('A' for Active; 'I' for Inactive)
REMARK    1  A    between atoms: C_1  and  C_2
REMARK    2  A    between atoms: C_2  and  C_3
REMARK    3  A    between atoms: C_3  and  N_4
REMARK    4  A    between atoms: N_4  and  C_5
REMARK    5  A    between atoms: N_4  and  C_8
REMARK    6  A    between atoms: C_5  and  C_6
REMARK    7  A    between atoms: C_6  and  C_7
REMARK    8  A    between atoms: C_8  and  C_9
REMARK    9  A    between atoms: C_9  and  C_10
REMARK   10  A    between atoms: C_15  and  O_16
REMARK   11  A    between atoms: O_16  and  C_17
REMARK   12  A    between atoms: C_17  and  C_18
REMARK   13  A    between atoms: C_18  and  C_19
REMARK                            x       y       z     vdW  Elec       q    Type
REMARK                         _______ _______ _______ _____ _____    ______ ____
ROOT
ATOM      1  C   UNL     1       2.406   8.038  18.223  0.00  0.00    +0.000 A 
ATOM      2  C   UNL     1       1.971   9.327  17.848  0.00  0.00    +0.000 A 
ATOM      3  C   UNL     1       1.282  10.153  18.736  0.00  0.00    +0.000 A 
ATOM      4  C   UNL     1       1.025   9.713  20.025  0.00  0.00    +0.000 A 
ATOM      5  C   UNL     1       1.448   8.444  20.418  0.00  0.00    +0.000 A 
ATOM      6  C   UNL     1       2.095   7.577  19.526  0.00  0.00    +0.000 A 
ENDROOT
BRANCH   1   7
ATOM      7  C   UNL     1       3.086   7.192  17.161  0.00  0.00    +0.000 C 
BRANCH   7   8
ATOM      8  C   UNL     1       4.579   6.849  17.444  0.00  0.00    +0.000 C 
BRANCH   8   9
ATOM      9  N   UNL     1       4.852   5.423  17.767  0.00  0.00    +0.000 NA
BRANCH   9  10
ATOM     10  C   UNL     1       5.190   4.670  16.538  0.00  0.00    +0.000 C 
BRANCH  10  12
ATOM     11  C   UNL     1       6.802   4.911  14.547  0.00  0.00    +0.000 C 
ATOM     12  C   UNL     1       5.630   5.503  15.318  0.00  0.00    +0.000 C 
ENDBRANCH  10  12
ENDBRANCH   9  10
BRANCH   9  13
ATOM     13  C   UNL     1       5.822   5.252  18.855  0.00  0.00    +0.000 C 
BRANCH  13  14
ATOM     14  C   UNL     1       7.298   5.201  18.441  0.00  0.00    +0.000 C 
ATOM     15  C   UNL     1       7.962   6.552  18.662  0.00  0.00    +0.000 C 
ENDBRANCH  13  14
ENDBRANCH   9  13
ENDBRANCH   8   9
ENDBRANCH   7   8
ENDBRANCH   1   7
BRANCH   6  16
ATOM     16  O   UNL     1       2.424   6.280  19.883  0.00  0.00    +0.000 OA
BRANCH  16  17
ATOM     17  C   UNL     1       1.566   5.702  20.889  0.00  0.00    +0.000 C 
BRANCH  17  18
ATOM     18  C   UNL     1       1.042   4.295  20.561  0.00  0.00    +0.000 C 
BRANCH  18  19
ATOM     19  C   UNL     1       1.940   3.464  19.678  0.00  0.00    +0.000 A 
ATOM     20  C   UNL     1       3.109   2.902  20.214  0.00  0.00    +0.000 A 
ATOM     21  C   UNL     1       3.933   2.098  19.432  0.00  0.00    +0.000 A 
ATOM     22  C   UNL     1       3.593   1.826  18.113  0.00  0.00    +0.000 A 
ATOM     23  C   UNL     1       2.432   2.369  17.564  0.00  0.00    +0.000 A 
ATOM     24  C   UNL     1       1.604   3.190  18.346  0.00  0.00    +0.000 A 
ENDBRANCH  18  19
ENDBRANCH  17  18
ENDBRANCH  16  17
ENDBRANCH   6  16
TORSDOF 11
ENDMDL
MODEL 4
REMARK VINA RESULT:      -6.5      1.648      5.945
REMARK  Name = 
REMARK  13 active torsions:
REMARK  status: ('A' for Active; 'I' for Inactive)
REMARK    1  A    between atoms: C_1  and  C_2
REMARK    2  A    between atoms: C_2  and  C_3
REMARK    3  A    between atoms: C_3  and  N_4
REMARK    4  A    between atoms: N_4  and  C_5
REMARK    5  A    between atoms: N_4  and  C_8
REMARK    6  A    between atoms: C_5  and  C_6
REMARK    7  A    between atoms: C_6  and  C_7
REMARK    8  A    between atoms: C_8  and  C_9
REMARK    9  A    between atoms: C_9  and  C_10
REMARK   10  A    between atoms: C_15  and  O_16
REMARK   11  A    between atoms: O_16  and  C_17
REMARK   12  A    between atoms: C_17  and  C_18
REMARK   13  A    between atoms: C_18  and  C_19
REMARK                            x       y       z     vdW  Elec       q    Type
REMARK                         _______ _______ _______ _____ _____    ______ ____
ROOT
ATOM      1  C   UNL     1       5.263   5.289  17.834  0.00  0.00    +0.000 A 
ATOM      2  C   UNL     1       5.857   4.233  17.111  0.00  0.00    +0.000 A 
ATOM      3  C   UNL     1       6.036   4.304  15.729  0.00  0.00    +0.000 A 
ATOM      4  C   UNL     1       5.635   5.439  15.042  0.00  0.00    +0.000 A 
ATOM      5  C   UNL     1       5.048   6.495  15.737  0.00  0.00    +0.000 A 
ATOM      6  C   UNL     1       4.811   6.424  17.117  0.00  0.00    +0.000 A 
ENDROOT
BRANCH   1   7
ATOM      7  C   UNL     1       5.051   5.085  19.324  0.00  0.00    +0.000 C 
BRANCH   7   8
ATOM      8  C   UNL     1       4.905   3.601  19.775  0.00  0.00    +0.000 C 
BRANCH   8   9
ATOM      9  N   UNL     1       3.519   3.063  19.744  0.00  0.00    +0.000 NA
BRANCH   9  10
ATOM     10  C   UNL     1       3.406   1.987  18.733  0.00  0.00    +0.000 C 
BRANCH  10  12
ATOM     11  C   UNL     1       2.167   3.623  17.180  0.00  0.00    +0.000 C 
ATOM     12  C   UNL     1       2.343   2.180  17.634  0.00  0.00    +0.000 C 
ENDBRANCH  10  12
ENDBRANCH   9  10
BRANCH   9  13
ATOM     13  C   UNL     1       3.013   2.689  21.070  0.00  0.00    +0.000 C 
BRANCH  13  14
ATOM     14  C   UNL     1       1.603   3.182  21.418  0.00  0.00    +0.000 C 
ATOM     15  C   UNL     1       1.225   4.372  20.550  0.00  0.00    +0.000 C 
ENDBRANCH  13  14
ENDBRANCH   9  13
ENDBRANCH   8   9
ENDBRANCH   7   8
ENDBRANCH   1   7
BRANCH   6  16
ATOM     16  O   UNL     1       4.136   7.427  17.791  0.00  0.00    +0.000 OA
BRANCH  16  17
ATOM     17  C   UNL     1       2.704   7.253  17.843  0.00  0.00    +0.000 C 
BRANCH  17  18
ATOM     18  C   UNL     1       1.895   8.559  17.888  0.00  0.00    +0.000 C 
BRANCH  18  19
ATOM     19  C   UNL     1       1.438   8.984  19.262  0.00  0.00    +0.000 A 
ATOM     20  C   UNL     1       0.807  10.226  19.428  0.00  0.00    +0.000 A 
ATOM     21  C   UNL     1       0.340  10.624  20.678  0.00  0.00    +0.000 A 
ATOM     22  C   UNL     1       0.477   9.781  21.773  0.00  0.00    +0.000 A 
ATOM     23  C   UNL     1       1.095   8.540  21.627  0.00  0.00    +0.000 A 
ATOM     24  C   UNL     1       1.578   8.139  20.371  0.00  0.00    +0.000 A 
ENDBRANCH  18  19
ENDBRANCH  17  18
ENDBRANCH  16  17
ENDBRANCH   6  16
TORSDOF 11
ENDMDL
MODEL 5
REMARK VINA RESULT:      -6.5      0.849      2.610
REMARK  Name = 
REMARK  13 active torsions:
REMARK  status: ('A' for Active; 'I' for Inactive)
REMARK    1  A    between atoms: C_1  and  C_2
REMARK    2  A    between atoms: C_2  and  C_3
REMARK    3  A    between atoms: C_3  and  N_4
REMARK    4  A    between atoms: N_4  and  C_5
REMARK    5  A    between atoms: N_4  and  C_8
REMARK    6  A    between atoms: C_5  and  C_6
REMARK    7  A    between atoms: C_6  and  C_7
REMARK    8  A    between atoms: C_8  and  C_9
REMARK    9  A    between atoms: C_9  and  C_10
REMARK   10  A    between atoms: C_15  and  O_16
REMARK   11  A    between atoms: O_16  and  C_17
REMARK   12  A    between atoms: C_17  and  C_18
REMARK   13  A    between atoms: C_18  and  C_19
REMARK                            x       y       z     vdW  Elec       q    Type
REMARK                         _______ _______ _______ _____ _____    ______ ____
ROOT
ATOM      1  C   UNL     1       2.971   7.393  18.295  0.00  0.00    +0.000 A 
ATOM      2  C   UNL     1       2.575   8.527  17.555  0.00  0.00    +0.000 A 
ATOM      3  C   UNL     1       1.661   9.450  18.065  0.00  0.00    +0.000 A 
ATOM      4  C   UNL     1       1.133   9.264  19.333  0.00  0.00    +0.000 A 
ATOM      5  C   UNL     1       1.512   8.152  20.082  0.00  0.00    +0.000 A 
ATOM      6  C   UNL     1       2.388   7.185  19.570  0.00  0.00    +0.000 A 
ENDROOT
BRANCH   1   7
ATOM      7  C   UNL     1       3.917   6.413  17.623  0.00  0.00    +0.000 C 
BRANCH   7   8
ATOM      8  C   UNL     1       5.195   7.049  17.000  0.00  0.00    +0.000 C 
BRANCH   8   9
ATOM      9  N   UNL     1       6.037   6.122  16.198  0.00  0.00    +0.000 NA
BRANCH   9  10
ATOM     10  C   UNL     1       7.194   5.654  16.995  0.00  0.00    +0.000 C 
BRANCH  10  12
ATOM     11  C   UNL     1       7.832   5.775  19.485  0.00  0.00    +0.000 C 
ATOM     12  C   UNL     1       7.615   6.538  18.185  0.00  0.00    +0.000 C 
ENDBRANCH  10  12
ENDBRANCH   9  10
BRANCH   9  13
ATOM     13  C   UNL     1       5.269   5.039  15.571  0.00  0.00    +0.000 C 
BRANCH  13  14
ATOM     14  C   UNL     1       5.450   4.872  14.057  0.00  0.00    +0.000 C 
ATOM     15  C   UNL     1       6.287   3.640  13.752  0.00  0.00    +0.000 C 
ENDBRANCH  13  14
ENDBRANCH   9  13
ENDBRANCH   8   9
ENDBRANCH   7   8
ENDBRANCH   1   7
BRANCH   6  16
ATOM     16  O   UNL     1       2.684   6.028  20.270  0.00  0.00    +0.000 OA
BRANCH  16  17
ATOM     17  C   UNL     1       1.567   5.459  20.985  0.00  0.00    +0.000 C 
BRANCH  17  18
ATOM     18  C   UNL     1       0.926   4.235  20.313  0.00  0.00    +0.000 C 
BRANCH  18  19
ATOM     19  C   UNL     1       1.834   3.458  19.391  0.00  0.00    +0.000 A 
ATOM     20  C   UNL     1       1.726   3.635  18.004  0.00  0.00    +0.000 A 
ATOM     21  C   UNL     1       2.579   2.962  17.133  0.00  0.00    +0.000 A 
ATOM     22  C   UNL     1       3.564   2.120  17.635  0.00  0.00    +0.000 A 
ATOM     23  C   UNL     1       3.691   1.937  19.011  0.00  0.00    +0.000 A 
ATOM     24  C   UNL     1       2.826   2.605  19.892  0.00  0.00    +0.000 A 
ENDBRANCH  18  19
ENDBRANCH  17  18
ENDBRANCH  16  17
ENDBRANCH   6  16
TORSDOF 11
ENDMDL
MODEL 6
REMARK VINA RESULT:      -6.3      1.568      4.270
REMARK  Name = 
REMARK  13 active torsions:
REMARK  status: ('A' for Active; 'I' for Inactive)
REMARK    1  A    between atoms: C_1  and  C_2
REMARK    2  A    between atoms: C_2  and  C_3
REMARK    3  A    between atoms: C_3  and  N_4
REMARK    4  A    between atoms: N_4  and  C_5
REMARK    5  A    between atoms: N_4  and  C_8
REMARK    6  A    between atoms: C_5  and  C_6
REMARK    7  A    between atoms: C_6  and  C_7
REMARK    8  A    between atoms: C_8  and  C_9
REMARK    9  A    between atoms: C_9  and  C_10
REMARK   10  A    between atoms: C_15  and  O_16
REMARK   11  A    between atoms: O_16  and  C_17
REMARK   12  A    between atoms: C_17  and  C_18
REMARK   13  A    between atoms: C_18  and  C_19
REMARK                            x       y       z     vdW  Elec       q    Type
REMARK                         _______ _______ _______ _____ _____    ______ ____
ROOT
ATOM      1  C   UNL     1       4.544   3.963  18.491  0.00  0.00    +0.000 A 
ATOM      2  C   UNL     1       4.580   2.565  18.683  0.00  0.00    +0.000 A 
ATOM      3  C   UNL     1       3.576   1.733  18.187  0.00  0.00    +0.000 A 
ATOM      4  C   UNL     1       2.518   2.281  17.477  0.00  0.00    +0.000 A 
ATOM      5  C   UNL     1       2.464   3.658  17.274  0.00  0.00    +0.000 A 
ATOM      6  C   UNL     1       3.434   4.519  17.807  0.00  0.00    +0.000 A 
ENDROOT
BRANCH   1   7
ATOM      7  C   UNL     1       5.648   4.787  19.129  0.00  0.00    +0.000 C 
BRANCH   7   8
ATOM      8  C   UNL     1       6.900   5.022  18.233  0.00  0.00    +0.000 C 
BRANCH   8   9
ATOM      9  N   UNL     1       6.626   5.657  16.915  0.00  0.00    +0.000 NA
BRANCH   9  10
ATOM     10  C   UNL     1       7.138   7.046  16.895  0.00  0.00    +0.000 C 
BRANCH  10  12
ATOM     11  C   UNL     1       8.302   8.978  18.134  0.00  0.00    +0.000 C 
ATOM     12  C   UNL     1       7.976   7.491  18.109  0.00  0.00    +0.000 C 
ENDBRANCH  10  12
ENDBRANCH   9  10
BRANCH   9  13
ATOM     13  C   UNL     1       7.070   4.842  15.777  0.00  0.00    +0.000 C 
BRANCH  13  14
ATOM     14  C   UNL     1       6.020   3.903  15.170  0.00  0.00    +0.000 C 
ATOM     15  C   UNL     1       6.166   3.847  13.657  0.00  0.00    +0.000 C 
ENDBRANCH  13  14
ENDBRANCH   9  13
ENDBRANCH   8   9
ENDBRANCH   7   8
ENDBRANCH   1   7
BRANCH   6  16
ATOM     16  O   UNL     1       3.326   5.894  17.695  0.00  0.00    +0.000 OA
BRANCH  16  17
ATOM     17  C   UNL     1       3.275   6.595  18.955  0.00  0.00    +0.000 C 
BRANCH  17  18
ATOM     18  C   UNL     1       1.975   6.400  19.751  0.00  0.00    +0.000 C 
BRANCH  18  19
ATOM     19  C   UNL     1       1.776   5.021  20.329  0.00  0.00    +0.000 A 
ATOM     20  C   UNL     1       2.636   4.563  21.339  0.00  0.00    +0.000 A 
ATOM     21  C   UNL     1       2.449   3.311  21.917  0.00  0.00    +0.000 A 
ATOM     22  C   UNL     1       1.391   2.507  21.512  0.00  0.00    +0.000 A 
ATOM     23  C   UNL     1       0.521   2.947  20.515  0.00  0.00    +0.000 A 
ATOM     24  C   UNL     1       0.713   4.205  19.920  0.00  0.00    +0.000 A 
ENDBRANCH  18  19
ENDBRANCH  17  18
ENDBRANCH  16  17
ENDBRANCH   6  16
TORSDOF 11
ENDMDL
MODEL 7
REMARK VINA RESULT:      -6.3      1.303      4.924
REMARK  Name = 
REMARK  13 active torsions:
REMARK  status: ('A' for Active; 'I' for Inactive)
REMARK    1  A    between atoms: C_1  and  C_2
REMARK    2  A    between atoms: C_2  and  C_3
REMARK    3  A    between atoms: C_3  and  N_4
REMARK    4  A    between atoms: N_4  and  C_5
REMARK    5  A    between atoms: N_4  and  C_8
REMARK    6  A    between atoms: C_5  and  C_6
REMARK    7  A    between atoms: C_6  and  C_7
REMARK    8  A    between atoms: C_8  and  C_9
REMARK    9  A    between atoms: C_9  and  C_10
REMARK   10  A    between atoms: C_15  and  O_16
REMARK   11  A    between atoms: O_16  and  C_17
REMARK   12  A    between atoms: C_17  and  C_18
REMARK   13  A    between atoms: C_18  and  C_19
REMARK                            x       y       z     vdW  Elec       q    Type
REMARK                         _______ _______ _______ _____ _____    ______ ____
ROOT
ATOM      1  C   UNL     1       3.208   3.621  19.005  0.00  0.00    +0.000 A 
ATOM      2  C   UNL     1       3.484   2.797  20.117  0.00  0.00    +0.000 A 
ATOM      3  C   UNL     1       2.608   2.714  21.199  0.00  0.00    +0.000 A 
ATOM      4  C   UNL     1       1.431   3.445  21.188  0.00  0.00    +0.000 A 
ATOM      5  C   UNL     1       1.137   4.264  20.099  0.00  0.00    +0.000 A 
ATOM      6  C   UNL     1       2.027   4.403  19.024  0.00  0.00    +0.000 A 
ENDROOT
BRANCH   1   7
ATOM      7  C   UNL     1       4.258   3.694  17.910  0.00  0.00    +0.000 C 
BRANCH   7   8
ATOM      8  C   UNL     1       5.595   4.380  18.319  0.00  0.00    +0.000 C 
BRANCH   8   9
ATOM      9  N   UNL     1       6.537   4.650  17.200  0.00  0.00    +0.000 NA
BRANCH   9  10
ATOM     10  C   UNL     1       6.118   3.916  15.984  0.00  0.00    +0.000 C 
BRANCH  10  12
ATOM     11  C   UNL     1       5.845   3.919  13.425  0.00  0.00    +0.000 C 
ATOM     12  C   UNL     1       5.953   4.748  14.697  0.00  0.00    +0.000 C 
ENDBRANCH  10  12
ENDBRANCH   9  10
BRANCH   9  13
ATOM     13  C   UNL     1       6.778   6.081  16.978  0.00  0.00    +0.000 C 
BRANCH  13  14
ATOM     14  C   UNL     1       7.704   6.773  17.987  0.00  0.00    +0.000 C 
ATOM     15  C   UNL     1       7.908   8.232  17.609  0.00  0.00    +0.000 C 
ENDBRANCH  13  14
ENDBRANCH   9  13
ENDBRANCH   8   9
ENDBRANCH   7   8
ENDBRANCH   1   7
BRANCH   6  16
ATOM     16  O   UNL     1       1.786   5.294  17.992  0.00  0.00    +0.000 OA
BRANCH  16  17
ATOM     17  C   UNL     1       2.446   6.569  18.137  0.00  0.00    +0.000 C 
BRANCH  17  18
ATOM     18  C   UNL     1       2.407   7.160  19.555  0.00  0.00    +0.000 C 
BRANCH  18  19
ATOM     19  C   UNL     1       1.511   8.361  19.727  0.00  0.00    +0.000 A 
ATOM     20  C   UNL     1       1.266   9.204  18.632  0.00  0.00    +0.000 A 
ATOM     21  C   UNL     1       0.411  10.296  18.753  0.00  0.00    +0.000 A 
ATOM     22  C   UNL     1      -0.228  10.550  19.960  0.00  0.00    +0.000 A 
ATOM     23  C   UNL     1      -0.003   9.720  21.058  0.00  0.00    +0.000 A 
ATOM     24  C   UNL     1       0.868   8.624  20.943  0.00  0.00    +0.000 A 
ENDBRANCH  18  19
ENDBRANCH  17  18
ENDBRANCH  16  17
ENDBRANCH   6  16
TORSDOF 11
ENDMDL
MODEL 8
REMARK VINA RESULT:      -6.3      0.865      1.528
REMARK  Name = 
REMARK  13 active torsions:
REMARK  status: ('A' for Active; 'I' for Inactive)
REMARK    1  A    between atoms: C_1  and  C_2
REMARK    2  A    between atoms: C_2  and  C_3
REMARK    3  A    between atoms: C_3  and  N_4
REMARK    4  A    between atoms: N_4  and  C_5
REMARK    5  A    between atoms: N_4  and  C_8
REMARK    6  A    between atoms: C_5  and  C_6
REMARK    7  A    between atoms: C_6  and  C_7
REMARK    8  A    between atoms: C_8  and  C_9
REMARK    9  A    between atoms: C_9  and  C_10
REMARK   10  A    between atoms: C_15  and  O_16
REMARK   11  A    between atoms: O_16  and  C_17
REMARK   12  A    between atoms: C_17  and  C_18
REMARK   13  A    between atoms: C_18  and  C_19
REMARK                            x       y       z     vdW  Elec       q    Type
REMARK                         _______ _______ _______ _____ _____    ______ ____
ROOT
ATOM      1  C   UNL     1       2.523   7.547  18.516  0.00  0.00    +0.000 A 
ATOM      2  C   UNL     1       2.141   8.745  17.875  0.00  0.00    +0.000 A 
ATOM      3  C   UNL     1       1.350   9.698  18.518  0.00  0.00    +0.000 A 
ATOM      4  C   UNL     1       0.933   9.478  19.821  0.00  0.00    +0.000 A 
ATOM      5  C   UNL     1       1.301   8.303  20.474  0.00  0.00    +0.000 A 
ATOM      6  C   UNL     1       2.052   7.309  19.830  0.00  0.00    +0.000 A 
ENDROOT
BRANCH   1   7
ATOM      7  C   UNL     1       3.328   6.545  17.706  0.00  0.00    +0.000 C 
BRANCH   7   8
ATOM      8  C   UNL     1       4.526   7.145  16.914  0.00  0.00    +0.000 C 
BRANCH   8   9
ATOM      9  N   UNL     1       5.629   6.191  16.616  0.00  0.00    +0.000 NA
BRANCH   9  10
ATOM     10  C   UNL     1       5.671   5.886  15.168  0.00  0.00    +0.000 C 
BRANCH  10  12
ATOM     11  C   UNL     1       5.894   3.392  15.761  0.00  0.00    +0.000 C 
ATOM     12  C   UNL     1       6.217   4.501  14.770  0.00  0.00    +0.000 C 
ENDBRANCH  10  12
ENDBRANCH   9  10
BRANCH   9  13
ATOM     13  C   UNL     1       6.921   6.610  17.174  0.00  0.00    +0.000 C 
BRANCH  13  14
ATOM     14  C   UNL     1       7.487   5.731  18.297  0.00  0.00    +0.000 C 
ATOM     15  C   UNL     1       6.367   5.217  19.188  0.00  0.00    +0.000 C 
ENDBRANCH  13  14
ENDBRANCH   9  13
ENDBRANCH   8   9
ENDBRANCH   7   8
ENDBRANCH   1   7
BRANCH   6  16
ATOM     16  O   UNL     1       2.330   6.098  20.441  0.00  0.00    +0.000 OA
BRANCH  16  17
ATOM     17  C   UNL     1       1.167   5.293  20.729  0.00  0.00    +0.000 C 
BRANCH  17  18
ATOM     18  C   UNL     1       1.466   3.825  21.074  0.00  0.00    +0.000 C 
BRANCH  18  19
ATOM     19  C   UNL     1       2.228   3.060  20.020  0.00  0.00    +0.000 A 
ATOM     20  C   UNL     1       1.646   2.850  18.761  0.00  0.00    +0.000 A 
ATOM     21  C   UNL     1       2.343   2.183  17.758  0.00  0.00    +0.000 A 
ATOM     22  C   UNL     1       3.638   1.735  17.990  0.00  0.00    +0.000 A 
ATOM     23  C   UNL     1       4.236   1.940  19.232  0.00  0.00    +0.000 A 
ATOM     24  C   UNL     1       3.532   2.602  20.250  0.00  0.00    +0.000 A 
ENDBRANCH  18  19
ENDBRANCH  17  18
ENDBRANCH  16  17
ENDBRANCH   6  16
TORSDOF 11
ENDMDL
MODEL 9
REMARK VINA RESULT:      -6.3      0.921      2.372
REMARK  Name = 
REMARK  13 active torsions:
REMARK  status: ('A' for Active; 'I' for Inactive)
REMARK    1  A    between atoms: C_1  and  C_2
REMARK    2  A    between atoms: C_2  and  C_3
REMARK    3  A    between atoms: C_3  and  N_4
REMARK    4  A    between atoms: N_4  and  C_5
REMARK    5  A    between atoms: N_4  and  C_8
REMARK    6  A    between atoms: C_5  and  C_6
REMARK    7  A    between atoms: C_6  and  C_7
REMARK    8  A    between atoms: C_8  and  C_9
REMARK    9  A    between atoms: C_9  and  C_10
REMARK   10  A    between atoms: C_15  and  O_16
REMARK   11  A    between atoms: O_16  and  C_17
REMARK   12  A    between atoms: C_17  and  C_18
REMARK   13  A    between atoms: C_18  and  C_19
REMARK                            x       y       z     vdW  Elec       q    Type
REMARK                         _______ _______ _______ _____ _____    ______ ____
ROOT
ATOM      1  C   UNL     1       2.209   8.268  18.484  0.00  0.00    +0.000 A 
ATOM      2  C   UNL     1       1.692   9.555  18.225  0.00  0.00    +0.000 A 
ATOM      3  C   UNL     1       0.984  10.267  19.194  0.00  0.00    +0.000 A 
ATOM      4  C   UNL     1       0.788   9.711  20.448  0.00  0.00    +0.000 A 
ATOM      5  C   UNL     1       1.293   8.442  20.727  0.00  0.00    +0.000 A 
ATOM      6  C   UNL     1       1.961   7.687  19.752  0.00  0.00    +0.000 A 
ENDROOT
BRANCH   1   7
ATOM      7  C   UNL     1       2.904   7.549  17.341  0.00  0.00    +0.000 C 
BRANCH   7   8
ATOM      8  C   UNL     1       4.003   6.532  17.770  0.00  0.00    +0.000 C 
BRANCH   8   9
ATOM      9  N   UNL     1       5.308   6.677  17.070  0.00  0.00    +0.000 NA
BRANCH   9  10
ATOM     10  C   UNL     1       6.413   6.206  17.936  0.00  0.00    +0.000 C 
BRANCH  10  12
ATOM     11  C   UNL     1       7.765   8.380  17.684  0.00  0.00    +0.000 C 
ATOM     12  C   UNL     1       7.791   6.859  17.713  0.00  0.00    +0.000 C 
ENDBRANCH  10  12
ENDBRANCH   9  10
BRANCH   9  13
ATOM     13  C   UNL     1       5.312   6.087  15.726  0.00  0.00    +0.000 C 
BRANCH  13  14
ATOM     14  C   UNL     1       5.346   4.555  15.662  0.00  0.00    +0.000 C 
ATOM     15  C   UNL     1       6.431   4.086  14.705  0.00  0.00    +0.000 C 
ENDBRANCH  13  14
ENDBRANCH   9  13
ENDBRANCH   8   9
ENDBRANCH   7   8
ENDBRANCH   1   7
BRANCH   6  16
ATOM     16  O   UNL     1       2.371   6.387  19.995  0.00  0.00    +0.000 OA
BRANCH  16  17
ATOM     17  C   UNL     1       1.570   5.679  20.964  0.00  0.00    +0.000 C 
BRANCH  17  18
ATOM     18  C   UNL     1       1.036   4.318  20.491  0.00  0.00    +0.000 C 
BRANCH  18  19
ATOM     19  C   UNL     1       1.933   3.574  19.532  0.00  0.00    +0.000 A 
ATOM     20  C   UNL     1       2.984   2.791  20.034  0.00  0.00    +0.000 A 
ATOM     21  C   UNL     1       3.801   2.063  19.173  0.00  0.00    +0.000 A 
ATOM     22  C   UNL     1       3.568   2.088  17.804  0.00  0.00    +0.000 A 
ATOM     23  C   UNL     1       2.524   2.855  17.287  0.00  0.00    +0.000 A 
ATOM     24  C   UNL     1       1.705   3.600  18.150  0.00  0.00    +0.000 A 
ENDBRANCH  18  19
ENDBRANCH  17  18
ENDBRANCH  16  17
ENDBRANCH   6  16
TORSDOF 11
ENDMDL
