MODEL 1
REMARK VINA RESULT:      -9.0      0.000      0.000
REMARK  Name = 
REMARK  5 active torsions:
REMARK  status: ('A' for Active; 'I' for Inactive)
REMARK    1  A    between atoms: C_1  and  N_2
REMARK    2  A    between atoms: S_3  and  N_5
REMARK    3  A    between atoms: S_3  and  C_21
REMARK    4  A    between atoms: N_8  and  C_9
REMARK    5  A    between atoms: C_24  and  C_25
REMARK                            x       y       z     vdW  Elec       q    Type
REMARK                         _______ _______ _______ _____ _____    ______ ____
ROOT
ATOM      1  N   UNL     1       1.516   9.174  19.849  0.00  0.00    +0.000 N 
ATOM      2  C   UNL     1       1.760   8.153  18.965  0.00  0.00    +0.000 C 
ATOM      3  O   UNL     1       1.377   8.134  17.806  0.00  0.00    +0.000 OA
ATOM      4  N   UNL     1       2.469   7.110  19.543  0.00  0.00    +0.000 N 
ATOM      5  H   UNL     1       2.349   9.501  20.316  0.00  0.00    +0.000 HD
ATOM      6  H   UNL     1       2.205   6.954  20.509  0.00  0.00    +0.000 HD
ENDROOT
BRANCH   4   7
ATOM      7  C   UNL     1       2.795   5.939  18.808  0.00  0.00    +0.000 A 
ATOM      8  C   UNL     1       3.743   5.924  17.781  0.00  0.00    +0.000 A 
ATOM      9  C   UNL     1       4.066   4.724  17.105  0.00  0.00    +0.000 A 
ATOM     10  C   UNL     1       3.435   3.525  17.387  0.00  0.00    +0.000 A 
ATOM     11  C   UNL     1       2.476   3.546  18.384  0.00  0.00    +0.000 A 
ATOM     12  C   UNL     1       2.174   4.721  19.106  0.00  0.00    +0.000 A 
ATOM     13  C   UNL     1       1.032   4.456  20.044  0.00  0.00    +0.000 C 
ATOM     14  C   UNL     1       0.953   2.920  20.063  0.00  0.00    +0.000 C 
ATOM     15  C   UNL     1       1.586   2.406  18.769  0.00  0.00    +0.000 C 
ATOM     16  C   UNL     1       5.183   4.921  16.128  0.00  0.00    +0.000 C 
ATOM     17  C   UNL     1       5.184   6.440  15.971  0.00  0.00    +0.000 C 
ATOM     18  C   UNL     1       4.632   7.026  17.278  0.00  0.00    +0.000 C 
ENDBRANCH   4   7
BRANCH   1  21
ATOM     19  C   UNL     1       2.434  11.753  17.926  0.00  0.00    +0.000 C 
ATOM     20  N   UNL     1       1.752  11.581  19.207  0.00  0.00    +0.000 NA
ATOM     21  S   UNL     1       0.666  10.496  19.288  0.00  0.00    +0.000 S 
ATOM     22  O   UNL     1      -0.174  10.030  18.207  0.00  0.00    +0.000 OA
BRANCH  21  23
ATOM     23  C   UNL     1      -0.442  10.998  20.600  0.00  0.00    +0.000 A 
ATOM     24  C   UNL     1      -1.393  11.993  20.340  0.00  0.00    +0.000 A 
ATOM     25  C   UNL     1      -2.233  12.441  21.362  0.00  0.00    +0.000 A 
ATOM     26  C   UNL     1      -2.128  11.907  22.651  0.00  0.00    +0.000 A 
ATOM     27  C   UNL     1      -3.027  12.384  23.755  0.00  0.00    +0.000 C 
ATOM     28  C   UNL     1      -1.159  10.927  22.908  0.00  0.00    +0.000 A 
ATOM     29  C   UNL     1      -0.314  10.473  21.889  0.00  0.00    +0.000 A 
ENDBRANCH  21  23
ENDBRANCH   1  21
TORSDOF 3
ENDMDL
MODEL 2
REMARK VINA RESULT:      -8.9      0.098      2.878
REMARK  Name = 
REMARK  5 active torsions:
REMARK  status: ('A' for Active; 'I' for Inactive)
REMARK    1  A    between atoms: C_1  and  N_2
REMARK    2  A    between atoms: S_3  and  N_5
REMARK    3  A    between atoms: S_3  and  C_21
REMARK    4  A    between atoms: N_8  and  C_9
REMARK    5  A    between atoms: C_24  and  C_25
REMARK                            x       y       z     vdW  Elec       q    Type
REMARK                         _______ _______ _______ _____ _____    ______ ____
ROOT
ATOM      1  N   UNL     1       1.516   9.247  19.833  0.00  0.00    +0.000 N 
ATOM      2  C   UNL     1       1.712   8.190  18.978  0.00  0.00    +0.000 C 
ATOM      3  O   UNL     1       1.282   8.134  17.838  0.00  0.00    +0.000 OA
ATOM      4  N   UNL     1       2.432   7.160  19.566  0.00  0.00    +0.000 N 
ATOM      5  H   UNL     1       2.370   9.580  20.253  0.00  0.00    +0.000 HD
ATOM      6  H   UNL     1       2.207   7.044  20.547  0.00  0.00    +0.000 HD
ENDROOT
BRANCH   4   7
ATOM      7  C   UNL     1       2.716   5.959  18.863  0.00  0.00    +0.000 A 
ATOM      8  C   UNL     1       2.090   4.743  19.149  0.00  0.00    +0.000 A 
ATOM      9  C   UNL     1       2.373   3.582  18.392  0.00  0.00    +0.000 A 
ATOM     10  C   UNL     1       3.311   3.576  17.374  0.00  0.00    +0.000 A 
ATOM     11  C   UNL     1       3.952   4.772  17.110  0.00  0.00    +0.000 A 
ATOM     12  C   UNL     1       3.647   5.955  17.819  0.00  0.00    +0.000 A 
ATOM     13  C   UNL     1       4.569   7.056  17.380  0.00  0.00    +0.000 C 
ATOM     14  C   UNL     1       5.183   6.495  16.087  0.00  0.00    +0.000 C 
ATOM     15  C   UNL     1       5.079   4.970  16.146  0.00  0.00    +0.000 C 
ATOM     16  C   UNL     1       1.508   2.431  18.797  0.00  0.00    +0.000 C 
ATOM     17  C   UNL     1       1.001   2.897  20.161  0.00  0.00    +0.000 C 
ATOM     18  C   UNL     1       1.003   4.432  20.139  0.00  0.00    +0.000 C 
ENDBRANCH   4   7
BRANCH   1  21
ATOM     19  C   UNL     1       2.423  11.822  17.900  0.00  0.00    +0.000 C 
ATOM     20  N   UNL     1       1.734  11.652  19.178  0.00  0.00    +0.000 NA
ATOM     21  S   UNL     1       0.658  10.557  19.258  0.00  0.00    +0.000 S 
ATOM     22  O   UNL     1      -0.170  10.076  18.174  0.00  0.00    +0.000 OA
BRANCH  21  23
ATOM     23  C   UNL     1      -0.465  11.057  20.560  0.00  0.00    +0.000 A 
ATOM     24  C   UNL     1      -1.445  12.016  20.277  0.00  0.00    +0.000 A 
ATOM     25  C   UNL     1      -2.298  12.463  21.288  0.00  0.00    +0.000 A 
ATOM     26  C   UNL     1      -2.175  11.964  22.590  0.00  0.00    +0.000 A 
ATOM     27  C   UNL     1      -3.088  12.440  23.683  0.00  0.00    +0.000 C 
ATOM     28  C   UNL     1      -1.176  11.021  22.870  0.00  0.00    +0.000 A 
ATOM     29  C   UNL     1      -0.319  10.568  21.860  0.00  0.00    +0.000 A 
ENDBRANCH  21  23
ENDBRANCH   1  21
TORSDOF 3
ENDMDL
MODEL 3
REMARK VINA RESULT:      -7.9      2.401      3.393
REMARK  Name = 
REMARK  5 active torsions:
REMARK  status: ('A' for Active; 'I' for Inactive)
REMARK    1  A    between atoms: C_1  and  N_2
REMARK    2  A    between atoms: S_3  and  N_5
REMARK    3  A    between atoms: S_3  and  C_21
REMARK    4  A    between atoms: N_8  and  C_9
REMARK    5  A    between atoms: C_24  and  C_25
REMARK                            x       y       z     vdW  Elec       q    Type
REMARK                         _______ _______ _______ _____ _____    ______ ____
ROOT
ATOM      1  N   UNL     1       1.563   9.288  17.804  0.00  0.00    +0.000 N 
ATOM      2  C   UNL     1       2.212   8.186  18.304  0.00  0.00    +0.000 C 
ATOM      3  O   UNL     1       2.213   7.858  19.479  0.00  0.00    +0.000 OA
ATOM      4  N   UNL     1       2.908   7.492  17.325  0.00  0.00    +0.000 N 
ATOM      5  H   UNL     1       0.979   9.076  17.009  0.00  0.00    +0.000 HD
ATOM      6  H   UNL     1       3.317   8.108  16.633  0.00  0.00    +0.000 HD
ENDROOT
BRANCH   4   7
ATOM      7  C   UNL     1       3.675   6.338  17.639  0.00  0.00    +0.000 A 
ATOM      8  C   UNL     1       5.071   6.348  17.710  0.00  0.00    +0.000 A 
ATOM      9  C   UNL     1       5.790   5.184  18.068  0.00  0.00    +0.000 A 
ATOM     10  C   UNL     1       5.163   3.976  18.317  0.00  0.00    +0.000 A 
ATOM     11  C   UNL     1       3.783   3.959  18.219  0.00  0.00    +0.000 A 
ATOM     12  C   UNL     1       3.042   5.121  17.912  0.00  0.00    +0.000 A 
ATOM     13  C   UNL     1       1.588   4.770  17.780  0.00  0.00    +0.000 C 
ATOM     14  C   UNL     1       1.515   3.368  18.406  0.00  0.00    +0.000 C 
ATOM     15  C   UNL     1       2.910   2.748  18.324  0.00  0.00    +0.000 C 
ATOM     16  C   UNL     1       7.257   5.454  18.191  0.00  0.00    +0.000 C 
ATOM     17  C   UNL     1       7.387   6.776  17.438  0.00  0.00    +0.000 C 
ATOM     18  C   UNL     1       6.033   7.491  17.553  0.00  0.00    +0.000 C 
ENDBRANCH   4   7
BRANCH   1  21
ATOM     19  C   UNL     1      -1.726   9.802  18.130  0.00  0.00    +0.000 C 
ATOM     20  N   UNL     1      -0.531  10.637  18.035  0.00  0.00    +0.000 NA
ATOM     21  S   UNL     1       0.688  10.221  18.874  0.00  0.00    +0.000 S 
ATOM     22  O   UNL     1       0.670   9.513  20.135  0.00  0.00    +0.000 OA
BRANCH  21  23
ATOM     23  C   UNL     1       1.632  11.716  19.155  0.00  0.00    +0.000 A 
ATOM     24  C   UNL     1       1.542  12.351  20.399  0.00  0.00    +0.000 A 
ATOM     25  C   UNL     1       2.225  13.548  20.625  0.00  0.00    +0.000 A 
ATOM     26  C   UNL     1       2.998  14.125  19.611  0.00  0.00    +0.000 A 
ATOM     27  C   UNL     1       3.736  15.411  19.845  0.00  0.00    +0.000 C 
ATOM     28  C   UNL     1       3.066  13.494  18.360  0.00  0.00    +0.000 A 
ATOM     29  C   UNL     1       2.384  12.294  18.128  0.00  0.00    +0.000 A 
ENDBRANCH  21  23
ENDBRANCH   1  21
TORSDOF 3
ENDMDL
MODEL 4
REMARK VINA RESULT:      -7.9      2.402      4.333
REMARK  Name = 
REMARK  5 active torsions:
REMARK  status: ('A' for Active; 'I' for Inactive)
REMARK    1  A    between atoms: C_1  and  N_2
REMARK    2  A    between atoms: S_3  and  N_5
REMARK    3  A    between atoms: S_3  and  C_21
REMARK    4  A    between atoms: N_8  and  C_9
REMARK    5  A    between atoms: C_24  and  C_25
REMARK                            x       y       z     vdW  Elec       q    Type
REMARK                         _______ _______ _______ _____ _____    ______ ____
ROOT
ATOM      1  N   UNL     1       1.620   9.341  17.795  0.00  0.00    +0.000 N 
ATOM      2  C   UNL     1       2.236   8.211  18.274  0.00  0.00    +0.000 C 
ATOM      3  O   UNL     1       2.201   7.844  19.437  0.00  0.00    +0.000 OA
ATOM      4  N   UNL     1       2.942   7.535  17.289  0.00  0.00    +0.000 N 
ATOM      5  H   UNL     1       1.051   9.167  16.980  0.00  0.00    +0.000 HD
ATOM      6  H   UNL     1       3.379   8.166  16.628  0.00  0.00    +0.000 HD
ENDROOT
BRANCH   4   7
ATOM      7  C   UNL     1       3.679   6.357  17.582  0.00  0.00    +0.000 A 
ATOM      8  C   UNL     1       3.075   5.120  17.823  0.00  0.00    +0.000 A 
ATOM      9  C   UNL     1       3.853   3.965  18.069  0.00  0.00    +0.000 A 
ATOM     10  C   UNL     1       5.235   4.005  18.133  0.00  0.00    +0.000 A 
ATOM     11  C   UNL     1       5.832   5.236  17.924  0.00  0.00    +0.000 A 
ATOM     12  C   UNL     1       5.077   6.392  17.626  0.00  0.00    +0.000 A 
ATOM     13  C   UNL     1       5.989   7.582  17.551  0.00  0.00    +0.000 C 
ATOM     14  C   UNL     1       7.384   6.941  17.464  0.00  0.00    +0.000 C 
ATOM     15  C   UNL     1       7.290   5.539  18.066  0.00  0.00    +0.000 C 
ATOM     16  C   UNL     1       3.004   2.738  18.184  0.00  0.00    +0.000 C 
ATOM     17  C   UNL     1       1.624   3.346  18.428  0.00  0.00    +0.000 C 
ATOM     18  C   UNL     1       1.624   4.734  17.771  0.00  0.00    +0.000 C 
ENDBRANCH   4   7
BRANCH   1  21
ATOM     19  C   UNL     1      -1.675   9.806  18.140  0.00  0.00    +0.000 C 
ATOM     20  N   UNL     1      -0.492  10.659  18.044  0.00  0.00    +0.000 NA
ATOM     21  S   UNL     1       0.737  10.255  18.875  0.00  0.00    +0.000 S 
ATOM     22  O   UNL     1       0.735   9.540  20.132  0.00  0.00    +0.000 OA
BRANCH  21  23
ATOM     23  C   UNL     1       1.661  11.762  19.160  0.00  0.00    +0.000 A 
ATOM     24  C   UNL     1       1.560  12.393  20.406  0.00  0.00    +0.000 A 
ATOM     25  C   UNL     1       2.227  13.598  20.635  0.00  0.00    +0.000 A 
ATOM     26  C   UNL     1       2.995  14.186  19.624  0.00  0.00    +0.000 A 
ATOM     27  C   UNL     1       3.716  15.482  19.862  0.00  0.00    +0.000 C 
ATOM     28  C   UNL     1       3.074  13.559  18.372  0.00  0.00    +0.000 A 
ATOM     29  C   UNL     1       2.407  12.351  18.136  0.00  0.00    +0.000 A 
ENDBRANCH  21  23
ENDBRANCH   1  21
TORSDOF 3
ENDMDL
MODEL 5
REMARK VINA RESULT:      -7.8      1.799      2.434
REMARK  Name = 
REMARK  5 active torsions:
REMARK  status: ('A' for Active; 'I' for Inactive)
REMARK    1  A    between atoms: C_1  and  N_2
REMARK    2  A    between atoms: S_3  and  N_5
REMARK    3  A    between atoms: S_3  and  C_21
REMARK    4  A    between atoms: N_8  and  C_9
REMARK    5  A    between atoms: C_24  and  C_25
REMARK                            x       y       z     vdW  Elec       q    Type
REMARK                         _______ _______ _______ _____ _____    ______ ____
ROOT
ATOM      1  N   UNL     1       1.485   9.514  19.760  0.00  0.00    +0.000 N 
ATOM      2  C   UNL     1       1.854   8.489  18.924  0.00  0.00    +0.000 C 
ATOM      3  O   UNL     1       1.854   8.555  17.706  0.00  0.00    +0.000 OA
ATOM      4  N   UNL     1       2.200   7.338  19.618  0.00  0.00    +0.000 N 
ATOM      5  H   UNL     1       2.166   9.702  20.480  0.00  0.00    +0.000 HD
ATOM      6  H   UNL     1       1.629   7.200  20.444  0.00  0.00    +0.000 HD
ENDROOT
BRANCH   4   7
ATOM      7  C   UNL     1       2.580   6.150  18.939  0.00  0.00    +0.000 A 
ATOM      8  C   UNL     1       3.547   6.125  17.930  0.00  0.00    +0.000 A 
ATOM      9  C   UNL     1       3.924   4.910  17.312  0.00  0.00    +0.000 A 
ATOM     10  C   UNL     1       3.328   3.703  17.633  0.00  0.00    +0.000 A 
ATOM     11  C   UNL     1       2.350   3.732  18.610  0.00  0.00    +0.000 A 
ATOM     12  C   UNL     1       1.994   4.925  19.277  0.00  0.00    +0.000 A 
ATOM     13  C   UNL     1       0.845   4.659  20.205  0.00  0.00    +0.000 C 
ATOM     14  C   UNL     1       0.817   3.124  20.287  0.00  0.00    +0.000 C 
ATOM     15  C   UNL     1       1.492   2.579  19.028  0.00  0.00    +0.000 C 
ATOM     16  C   UNL     1       5.051   5.105  16.347  0.00  0.00    +0.000 C 
ATOM     17  C   UNL     1       5.004   6.615  16.126  0.00  0.00    +0.000 C 
ATOM     18  C   UNL     1       4.407   7.236  17.397  0.00  0.00    +0.000 C 
ENDBRANCH   4   7
BRANCH   1  21
ATOM     19  C   UNL     1       2.345  12.674  20.442  0.00  0.00    +0.000 C 
ATOM     20  N   UNL     1       1.098  11.938  20.244  0.00  0.00    +0.000 NA
ATOM     21  S   UNL     1       1.038  10.960  19.059  0.00  0.00    +0.000 S 
ATOM     22  O   UNL     1       1.762  11.066  17.811  0.00  0.00    +0.000 OA
BRANCH  21  23
ATOM     23  C   UNL     1      -0.692  10.814  18.621  0.00  0.00    +0.000 A 
ATOM     24  C   UNL     1      -1.054   9.970  17.564  0.00  0.00    +0.000 A 
ATOM     25  C   UNL     1      -2.390   9.881  17.168  0.00  0.00    +0.000 A 
ATOM     26  C   UNL     1      -3.374  10.636  17.816  0.00  0.00    +0.000 A 
ATOM     27  C   UNL     1      -4.813  10.546  17.396  0.00  0.00    +0.000 C 
ATOM     28  C   UNL     1      -2.999  11.495  18.860  0.00  0.00    +0.000 A 
ATOM     29  C   UNL     1      -1.662  11.589  19.262  0.00  0.00    +0.000 A 
ENDBRANCH  21  23
ENDBRANCH   1  21
TORSDOF 3
ENDMDL
MODEL 6
REMARK VINA RESULT:      -7.7      1.789      3.758
REMARK  Name = 
REMARK  5 active torsions:
REMARK  status: ('A' for Active; 'I' for Inactive)
REMARK    1  A    between atoms: C_1  and  N_2
REMARK    2  A    between atoms: S_3  and  N_5
REMARK    3  A    between atoms: S_3  and  C_21
REMARK    4  A    between atoms: N_8  and  C_9
REMARK    5  A    between atoms: C_24  and  C_25
REMARK                            x       y       z     vdW  Elec       q    Type
REMARK                         _______ _______ _______ _____ _____    ______ ____
ROOT
ATOM      1  N   UNL     1       1.532   9.511  19.760  0.00  0.00    +0.000 N 
ATOM      2  C   UNL     1       1.843   8.463  18.930  0.00  0.00    +0.000 C 
ATOM      3  O   UNL     1       1.781   8.501  17.712  0.00  0.00    +0.000 OA
ATOM      4  N   UNL     1       2.209   7.323  19.632  0.00  0.00    +0.000 N 
ATOM      5  H   UNL     1       2.252   9.706  20.439  0.00  0.00    +0.000 HD
ATOM      6  H   UNL     1       1.680   7.212  20.489  0.00  0.00    +0.000 HD
ENDROOT
BRANCH   4   7
ATOM      7  C   UNL     1       2.538   6.114  18.962  0.00  0.00    +0.000 A 
ATOM      8  C   UNL     1       1.929   4.891  19.255  0.00  0.00    +0.000 A 
ATOM      9  C   UNL     1       2.259   3.721  18.532  0.00  0.00    +0.000 A 
ATOM     10  C   UNL     1       3.225   3.714  17.540  0.00  0.00    +0.000 A 
ATOM     11  C   UNL     1       3.848   4.919  17.270  0.00  0.00    +0.000 A 
ATOM     12  C   UNL     1       3.498   6.109  17.945  0.00  0.00    +0.000 A 
ATOM     13  C   UNL     1       4.409   7.220  17.509  0.00  0.00    +0.000 C 
ATOM     14  C   UNL     1       5.071   6.646  16.245  0.00  0.00    +0.000 C 
ATOM     15  C   UNL     1       4.998   5.121  16.334  0.00  0.00    +0.000 C 
ATOM     16  C   UNL     1       1.406   2.560  18.937  0.00  0.00    +0.000 C 
ATOM     17  C   UNL     1       0.852   3.042  20.275  0.00  0.00    +0.000 C 
ATOM     18  C   UNL     1       0.822   4.576  20.221  0.00  0.00    +0.000 C 
ENDBRANCH   4   7
BRANCH   1  21
ATOM     19  C   UNL     1       2.379  12.684  20.401  0.00  0.00    +0.000 C 
ATOM     20  N   UNL     1       1.135  11.938  20.223  0.00  0.00    +0.000 NA
ATOM     21  S   UNL     1       1.069  10.948  19.048  0.00  0.00    +0.000 S 
ATOM     22  O   UNL     1       1.779  11.046  17.793  0.00  0.00    +0.000 OA
BRANCH  21  23
ATOM     23  C   UNL     1      -0.665  10.787  18.630  0.00  0.00    +0.000 A 
ATOM     24  C   UNL     1      -1.030   9.959  17.563  0.00  0.00    +0.000 A 
ATOM     25  C   UNL     1      -2.370   9.859  17.182  0.00  0.00    +0.000 A 
ATOM     26  C   UNL     1      -3.354  10.589  17.857  0.00  0.00    +0.000 A 
ATOM     27  C   UNL     1      -4.797  10.487  17.454  0.00  0.00    +0.000 C 
ATOM     28  C   UNL     1      -2.977  11.433  18.912  0.00  0.00    +0.000 A 
ATOM     29  C   UNL     1      -1.637  11.537  19.298  0.00  0.00    +0.000 A 
ENDBRANCH  21  23
ENDBRANCH   1  21
TORSDOF 3
ENDMDL
MODEL 7
REMARK VINA RESULT:      -7.4      2.211      4.121
REMARK  Name = 
REMARK  5 active torsions:
REMARK  status: ('A' for Active; 'I' for Inactive)
REMARK    1  A    between atoms: C_1  and  N_2
REMARK    2  A    between atoms: S_3  and  N_5
REMARK    3  A    between atoms: S_3  and  C_21
REMARK    4  A    between atoms: N_8  and  C_9
REMARK    5  A    between atoms: C_24  and  C_25
REMARK                            x       y       z     vdW  Elec       q    Type
REMARK                         _______ _______ _______ _____ _____    ______ ____
ROOT
ATOM      1  N   UNL     1       1.038   8.746  18.351  0.00  0.00    +0.000 N 
ATOM      2  C   UNL     1       1.889   7.849  18.947  0.00  0.00    +0.000 C 
ATOM      3  O   UNL     1       2.278   7.925  20.101  0.00  0.00    +0.000 OA
ATOM      4  N   UNL     1       2.297   6.848  18.077  0.00  0.00    +0.000 N 
ATOM      5  H   UNL     1       0.254   8.305  17.895  0.00  0.00    +0.000 HD
ATOM      6  H   UNL     1       2.425   7.189  17.131  0.00  0.00    +0.000 HD
ENDROOT
BRANCH   4   7
ATOM      7  C   UNL     1       3.206   5.836  18.485  0.00  0.00    +0.000 A 
ATOM      8  C   UNL     1       2.843   4.779  19.323  0.00  0.00    +0.000 A 
ATOM      9  C   UNL     1       3.774   3.771  19.669  0.00  0.00    +0.000 A 
ATOM     10  C   UNL     1       5.089   3.803  19.241  0.00  0.00    +0.000 A 
ATOM     11  C   UNL     1       5.457   4.865  18.435  0.00  0.00    +0.000 A 
ATOM     12  C   UNL     1       4.532   5.855  18.036  0.00  0.00    +0.000 A 
ATOM     13  C   UNL     1       5.242   6.922  17.254  0.00  0.00    +0.000 C 
ATOM     14  C   UNL     1       6.591   6.263  16.922  0.00  0.00    +0.000 C 
ATOM     15  C   UNL     1       6.843   5.169  17.961  0.00  0.00    +0.000 C 
ATOM     16  C   UNL     1       3.138   2.684  20.477  0.00  0.00    +0.000 C 
ATOM     17  C   UNL     1       1.858   3.367  20.953  0.00  0.00    +0.000 C 
ATOM     18  C   UNL     1       1.502   4.430  19.903  0.00  0.00    +0.000 C 
ENDBRANCH   4   7
BRANCH   1  21
ATOM     19  C   UNL     1       1.093   9.269  21.655  0.00  0.00    +0.000 C 
ATOM     20  N   UNL     1       0.086   9.307  20.597  0.00  0.00    +0.000 NA
ATOM     21  S   UNL     1       0.471  10.009  19.283  0.00  0.00    +0.000 S 
ATOM     22  O   UNL     1       1.405  11.102  19.127  0.00  0.00    +0.000 OA
BRANCH  21  23
ATOM     23  C   UNL     1      -1.065  10.555  18.543  0.00  0.00    +0.000 A 
ATOM     24  C   UNL     1      -1.850  11.492  19.225  0.00  0.00    +0.000 A 
ATOM     25  C   UNL     1      -3.078  11.893  18.696  0.00  0.00    +0.000 A 
ATOM     26  C   UNL     1      -3.537  11.358  17.486  0.00  0.00    +0.000 A 
ATOM     27  C   UNL     1      -4.856  11.784  16.910  0.00  0.00    +0.000 C 
ATOM     28  C   UNL     1      -2.754  10.404  16.820  0.00  0.00    +0.000 A 
ATOM     29  C   UNL     1      -1.522   9.998  17.345  0.00  0.00    +0.000 A 
ENDBRANCH  21  23
ENDBRANCH   1  21
TORSDOF 3
ENDMDL
MODEL 8
REMARK VINA RESULT:      -7.4      2.216      2.958
REMARK  Name = 
REMARK  5 active torsions:
REMARK  status: ('A' for Active; 'I' for Inactive)
REMARK    1  A    between atoms: C_1  and  N_2
REMARK    2  A    between atoms: S_3  and  N_5
REMARK    3  A    between atoms: S_3  and  C_21
REMARK    4  A    between atoms: N_8  and  C_9
REMARK    5  A    between atoms: C_24  and  C_25
REMARK                            x       y       z     vdW  Elec       q    Type
REMARK                         _______ _______ _______ _____ _____    ______ ____
ROOT
ATOM      1  N   UNL     1       1.077   8.730  18.323  0.00  0.00    +0.000 N 
ATOM      2  C   UNL     1       1.953   7.840  18.895  0.00  0.00    +0.000 C 
ATOM      3  O   UNL     1       2.357   7.908  20.044  0.00  0.00    +0.000 OA
ATOM      4  N   UNL     1       2.365   6.858  18.006  0.00  0.00    +0.000 N 
ATOM      5  H   UNL     1       0.294   8.281  17.873  0.00  0.00    +0.000 HD
ATOM      6  H   UNL     1       2.473   7.213  17.063  0.00  0.00    +0.000 HD
ENDROOT
BRANCH   4   7
ATOM      7  C   UNL     1       3.297   5.857  18.388  0.00  0.00    +0.000 A 
ATOM      8  C   UNL     1       4.647   5.897  18.029  0.00  0.00    +0.000 A 
ATOM      9  C   UNL     1       5.548   4.899  18.469  0.00  0.00    +0.000 A 
ATOM     10  C   UNL     1       5.138   3.817  19.228  0.00  0.00    +0.000 A 
ATOM     11  C   UNL     1       3.796   3.762  19.559  0.00  0.00    +0.000 A 
ATOM     12  C   UNL     1       2.889   4.773  19.173  0.00  0.00    +0.000 A 
ATOM     13  C   UNL     1       1.499   4.388  19.590  0.00  0.00    +0.000 C 
ATOM     14  C   UNL     1       1.743   3.238  20.580  0.00  0.00    +0.000 C 
ATOM     15  C   UNL     1       3.110   2.632  20.261  0.00  0.00    +0.000 C 
ATOM     16  C   UNL     1       6.955   5.204  18.062  0.00  0.00    +0.000 C 
ATOM     17  C   UNL     1       6.736   6.240  16.962  0.00  0.00    +0.000 C 
ATOM     18  C   UNL     1       5.409   6.947  17.271  0.00  0.00    +0.000 C 
ENDBRANCH   4   7
BRANCH   1  21
ATOM     19  C   UNL     1       1.118   9.182  21.638  0.00  0.00    +0.000 C 
ATOM     20  N   UNL     1       0.115   9.240  20.576  0.00  0.00    +0.000 NA
ATOM     21  S   UNL     1       0.503   9.971  19.280  0.00  0.00    +0.000 S 
ATOM     22  O   UNL     1       1.434  11.070  19.151  0.00  0.00    +0.000 OA
BRANCH  21  23
ATOM     23  C   UNL     1      -1.032  10.527  18.545  0.00  0.00    +0.000 A 
ATOM     24  C   UNL     1      -1.804  11.475  19.227  0.00  0.00    +0.000 A 
ATOM     25  C   UNL     1      -3.032  11.885  18.702  0.00  0.00    +0.000 A 
ATOM     26  C   UNL     1      -3.501  11.349  17.497  0.00  0.00    +0.000 A 
ATOM     27  C   UNL     1      -4.820  11.785  16.926  0.00  0.00    +0.000 C 
ATOM     28  C   UNL     1      -2.731  10.384  16.832  0.00  0.00    +0.000 A 
ATOM     29  C   UNL     1      -1.501   9.970  17.352  0.00  0.00    +0.000 A 
ENDBRANCH  21  23
ENDBRANCH   1  21
TORSDOF 3
ENDMDL
MODEL 9
REMARK VINA RESULT:      -7.4      3.645      6.803
REMARK  Name = 
REMARK  5 active torsions:
REMARK  status: ('A' for Active; 'I' for Inactive)
REMARK    1  A    between atoms: C_1  and  N_2
REMARK    2  A    between atoms: S_3  and  N_5
REMARK    3  A    between atoms: S_3  and  C_21
REMARK    4  A    between atoms: N_8  and  C_9
REMARK    5  A    between atoms: C_24  and  C_25
REMARK                            x       y       z     vdW  Elec       q    Type
REMARK                         _______ _______ _______ _____ _____    ______ ____
ROOT
ATOM      1  N   UNL     1       0.822  14.338  18.932  0.00  0.00    +0.000 N 
ATOM      2  C   UNL     1       1.108  13.204  19.653  0.00  0.00    +0.000 C 
ATOM      3  O   UNL     1       1.923  13.147  20.559  0.00  0.00    +0.000 OA
ATOM      4  N   UNL     1       0.387  12.103  19.215  0.00  0.00    +0.000 N 
ATOM      5  H   UNL     1      -0.166  14.535  18.879  0.00  0.00    +0.000 HD
ATOM      6  H   UNL     1       0.258  12.102  18.210  0.00  0.00    +0.000 HD
ENDROOT
BRANCH   4   7
ATOM      7  C   UNL     1       0.559  10.822  19.805  0.00  0.00    +0.000 A 
ATOM      8  C   UNL     1       1.278   9.792  19.193  0.00  0.00    +0.000 A 
ATOM      9  C   UNL     1       1.459   8.547  19.839  0.00  0.00    +0.000 A 
ATOM     10  C   UNL     1       0.899   8.267  21.073  0.00  0.00    +0.000 A 
ATOM     11  C   UNL     1       0.163   9.277  21.666  0.00  0.00    +0.000 A 
ATOM     12  C   UNL     1       0.012  10.545  21.062  0.00  0.00    +0.000 A 
ATOM     13  C   UNL     1      -0.914  11.389  21.889  0.00  0.00    +0.000 C 
ATOM     14  C   UNL     1      -0.986  10.619  23.218  0.00  0.00    +0.000 C 
ATOM     15  C   UNL     1      -0.628   9.160  22.931  0.00  0.00    +0.000 C 
ATOM     16  C   UNL     1       2.353   7.639  19.053  0.00  0.00    +0.000 C 
ATOM     17  C   UNL     1       2.320   8.298  17.676  0.00  0.00    +0.000 C 
ATOM     18  C   UNL     1       2.044   9.792  17.900  0.00  0.00    +0.000 C 
ENDBRANCH   4   7
BRANCH   1  21
ATOM     19  C   UNL     1       0.070  17.560  18.434  0.00  0.00    +0.000 C 
ATOM     20  N   UNL     1       1.231  16.700  18.214  0.00  0.00    +0.000 NA
ATOM     21  S   UNL     1       1.624  15.741  19.350  0.00  0.00    +0.000 S 
ATOM     22  O   UNL     1       1.411  15.943  20.766  0.00  0.00    +0.000 OA
BRANCH  21  23
ATOM     23  C   UNL     1       3.374  15.421  19.148  0.00  0.00    +0.000 A 
ATOM     24  C   UNL     1       4.240  15.702  20.212  0.00  0.00    +0.000 A 
ATOM     25  C   UNL     1       5.615  15.513  20.061  0.00  0.00    +0.000 A 
ATOM     26  C   UNL     1       6.138  15.049  18.848  0.00  0.00    +0.000 A 
ATOM     27  C   UNL     1       7.616  14.843  18.679  0.00  0.00    +0.000 C 
ATOM     28  C   UNL     1       5.266  14.791  17.782  0.00  0.00    +0.000 A 
ATOM     29  C   UNL     1       3.886  14.978  17.926  0.00  0.00    +0.000 A 
ENDBRANCH  21  23
ENDBRANCH   1  21
TORSDOF 3
ENDMDL
