MODEL 1
REMARK VINA RESULT:      -6.4      0.000      0.000
REMARK  Name = 
REMARK  18 active torsions:
REMARK  status: ('A' for Active; 'I' for Inactive)
REMARK    1  A    between atoms: C_1  and  C_2
REMARK    2  A    between atoms: C_2  and  C_3
REMARK    3  A    between atoms: C_3  and  C_4
REMARK    4  A    between atoms: C_4  and  C_5
REMARK    5  A    between atoms: C_5  and  C_6
REMARK    6  A    between atoms: C_7  and  C_8
REMARK    7  A    between atoms: C_8  and  C_9
REMARK    8  A    between atoms: C_10  and  C_11
REMARK    9  A    between atoms: C_11  and  C_12
REMARK   10  A    between atoms: C_12  and  C_13
REMARK   11  A    between atoms: C_13  and  C_14
REMARK   12  A    between atoms: C_14  and  C_15
REMARK   13  A    between atoms: C_15  and  C_16
REMARK   14  A    between atoms: C_16  and  C_17
REMARK   15  A    between atoms: C_17  and  C_18
REMARK   16  A    between atoms: N_20  and  C_21
REMARK   17  A    between atoms: C_21  and  C_22
REMARK   18  A    between atoms: C_21  and  C_23
REMARK                            x       y       z     vdW  Elec       q    Type
REMARK                         _______ _______ _______ _____ _____    ______ ____
ROOT
ATOM      1  C   UNL     1       2.495   2.445  19.398  0.00  0.00    +0.000 C 
ENDROOT
BRANCH   1   2
ATOM      2  C   UNL     1       2.814   2.247  17.927  0.00  0.00    +0.000 C 
BRANCH   2   4
ATOM      3  C   UNL     1       3.887   4.357  17.139  0.00  0.00    +0.000 C 
ATOM      4  C   UNL     1       2.824   3.538  17.158  0.00  0.00    +0.000 C 
BRANCH   3   5
ATOM      5  C   UNL     1       5.140   4.054  17.902  0.00  0.00    +0.000 C 
BRANCH   5   7
ATOM      6  C   UNL     1       6.771   4.529  16.084  0.00  0.00    +0.000 C 
ATOM      7  C   UNL     1       6.361   4.722  17.349  0.00  0.00    +0.000 C 
BRANCH   6   8
ATOM      8  C   UNL     1       6.058   3.609  15.131  0.00  0.00    +0.000 C 
BRANCH   8   9
ATOM      9  C   UNL     1       5.665   4.302  13.835  0.00  0.00    +0.000 C 
BRANCH   9  10
ATOM     10  C   UNL     1       6.463   3.725  12.668  0.00  0.00    +0.000 C 
BRANCH  10  12
ATOM     11  C   UNL     1       4.296   3.262  11.493  0.00  0.00    +0.000 C 
ATOM     12  C   UNL     1       5.639   2.691  11.910  0.00  0.00    +0.000 C 
ENDBRANCH  10  12
ENDBRANCH   9  10
ENDBRANCH   8   9
ENDBRANCH   6   8
ENDBRANCH   5   7
ENDBRANCH   3   5
ENDBRANCH   2   4
ENDBRANCH   1   2
BRANCH   1  13
ATOM     13  C   UNL     1       1.101   3.045  19.549  0.00  0.00    +0.000 C 
BRANCH  13  14
ATOM     14  C   UNL     1       1.106   4.144  20.599  0.00  0.00    +0.000 C 
BRANCH  14  15
ATOM     15  C   UNL     1       2.322   5.052  20.440  0.00  0.00    +0.000 C 
BRANCH  15  16
ATOM     16  C   UNL     1       1.874   6.443  20.021  0.00  0.00    +0.000 C 
BRANCH  16  17
ATOM     17  C   UNL     1       2.659   6.985  18.828  0.00  0.00    +0.000 C 
BRANCH  17  18
ATOM     18  C   UNL     1       2.111   8.346  18.440  0.00  0.00    +0.000 C 
ATOM     19  O   UNL     1       2.248   8.824  17.329  0.00  0.00    +0.000 OA
ATOM     20  N   UNL     1       1.426   8.988  19.457  0.00  0.00    +0.000 N 
ATOM     21  H   UNL     1       1.436   8.593  20.389  0.00  0.00    +0.000 HD
BRANCH  20  22
ATOM     22  C   UNL     1       0.848  10.306  19.235  0.00  0.00    +0.000 C 
ATOM     23  C   UNL     1      -0.537  10.199  18.600  0.00  0.00    +0.000 C 
ATOM     24  C   UNL     1       0.761  11.102  20.534  0.00  0.00    +0.000 C 
ENDBRANCH  20  22
ENDBRANCH  17  18
ENDBRANCH  16  17
ENDBRANCH  15  16
ENDBRANCH  14  15
ENDBRANCH  13  14
ENDBRANCH   1  13
TORSDOF 15
ENDMDL
MODEL 2
REMARK VINA RESULT:      -6.1      2.711      6.516
REMARK  Name = 
REMARK  18 active torsions:
REMARK  status: ('A' for Active; 'I' for Inactive)
REMARK    1  A    between atoms: C_1  and  C_2
REMARK    2  A    between atoms: C_2  and  C_3
REMARK    3  A    between atoms: C_3  and  C_4
REMARK    4  A    between atoms: C_4  and  C_5
REMARK    5  A    between atoms: C_5  and  C_6
REMARK    6  A    between atoms: C_7  and  C_8
REMARK    7  A    between atoms: C_8  and  C_9
REMARK    8  A    between atoms: C_10  and  C_11
REMARK    9  A    between atoms: C_11  and  C_12
REMARK   10  A    between atoms: C_12  and  C_13
REMARK   11  A    between atoms: C_13  and  C_14
REMARK   12  A    between atoms: C_14  and  C_15
REMARK   13  A    between atoms: C_15  and  C_16
REMARK   14  A    between atoms: C_16  and  C_17
REMARK   15  A    between atoms: C_17  and  C_18
REMARK   16  A    between atoms: N_20  and  C_21
REMARK   17  A    between atoms: C_21  and  C_22
REMARK   18  A    between atoms: C_21  and  C_23
REMARK                            x       y       z     vdW  Elec       q    Type
REMARK                         _______ _______ _______ _____ _____    ______ ____
ROOT
ATOM      1  C   UNL     1       1.050   2.447  18.595  0.00  0.00    +0.000 C 
ENDROOT
BRANCH   1   2
ATOM      2  C   UNL     1       0.578   3.123  19.870  0.00  0.00    +0.000 C 
BRANCH   2   4
ATOM      3  C   UNL     1       2.455   3.569  21.452  0.00  0.00    +0.000 C 
ATOM      4  C   UNL     1       1.438   2.787  21.056  0.00  0.00    +0.000 C 
BRANCH   3   5
ATOM      5  C   UNL     1       2.822   4.827  20.728  0.00  0.00    +0.000 C 
BRANCH   5   7
ATOM      6  C   UNL     1       1.743   6.973  20.075  0.00  0.00    +0.000 C 
ATOM      7  C   UNL     1       1.854   5.950  20.939  0.00  0.00    +0.000 C 
BRANCH   6   8
ATOM      8  C   UNL     1       2.598   7.088  18.842  0.00  0.00    +0.000 C 
BRANCH   8   9
ATOM      9  C   UNL     1       2.487   8.453  18.181  0.00  0.00    +0.000 C 
BRANCH   9  10
ATOM     10  C   UNL     1       1.061   8.683  17.686  0.00  0.00    +0.000 C 
BRANCH  10  12
ATOM     11  C   UNL     1       0.951  10.351  19.556  0.00  0.00    +0.000 C 
ATOM     12  C   UNL     1       0.552  10.052  18.123  0.00  0.00    +0.000 C 
ENDBRANCH  10  12
ENDBRANCH   9  10
ENDBRANCH   8   9
ENDBRANCH   6   8
ENDBRANCH   5   7
ENDBRANCH   3   5
ENDBRANCH   2   4
ENDBRANCH   1   2
BRANCH   1  13
ATOM     13  C   UNL     1       2.396   1.772  18.835  0.00  0.00    +0.000 C 
BRANCH  13  14
ATOM     14  C   UNL     1       3.447   2.329  17.888  0.00  0.00    +0.000 C 
BRANCH  14  15
ATOM     15  C   UNL     1       2.955   3.606  17.211  0.00  0.00    +0.000 C 
BRANCH  15  16
ATOM     16  C   UNL     1       4.132   4.531  16.944  0.00  0.00    +0.000 C 
BRANCH  16  17
ATOM     17  C   UNL     1       5.270   3.840  16.194  0.00  0.00    +0.000 C 
BRANCH  17  18
ATOM     18  C   UNL     1       6.585   4.511  16.545  0.00  0.00    +0.000 C 
ATOM     19  O   UNL     1       7.644   4.207  16.028  0.00  0.00    +0.000 OA
ATOM     20  N   UNL     1       6.470   5.512  17.494  0.00  0.00    +0.000 N 
ATOM     21  H   UNL     1       5.587   5.649  17.968  0.00  0.00    +0.000 HD
BRANCH  20  22
ATOM     22  C   UNL     1       7.650   6.243  17.936  0.00  0.00    +0.000 C 
ATOM     23  C   UNL     1       7.485   7.744  17.708  0.00  0.00    +0.000 C 
ATOM     24  C   UNL     1       7.951   5.975  19.409  0.00  0.00    +0.000 C 
ENDBRANCH  20  22
ENDBRANCH  17  18
ENDBRANCH  16  17
ENDBRANCH  15  16
ENDBRANCH  14  15
ENDBRANCH  13  14
ENDBRANCH   1  13
TORSDOF 15
ENDMDL
MODEL 3
REMARK VINA RESULT:      -6.1      2.972      7.569
REMARK  Name = 
REMARK  18 active torsions:
REMARK  status: ('A' for Active; 'I' for Inactive)
REMARK    1  A    between atoms: C_1  and  C_2
REMARK    2  A    between atoms: C_2  and  C_3
REMARK    3  A    between atoms: C_3  and  C_4
REMARK    4  A    between atoms: C_4  and  C_5
REMARK    5  A    between atoms: C_5  and  C_6
REMARK    6  A    between atoms: C_7  and  C_8
REMARK    7  A    between atoms: C_8  and  C_9
REMARK    8  A    between atoms: C_10  and  C_11
REMARK    9  A    between atoms: C_11  and  C_12
REMARK   10  A    between atoms: C_12  and  C_13
REMARK   11  A    between atoms: C_13  and  C_14
REMARK   12  A    between atoms: C_14  and  C_15
REMARK   13  A    between atoms: C_15  and  C_16
REMARK   14  A    between atoms: C_16  and  C_17
REMARK   15  A    between atoms: C_17  and  C_18
REMARK   16  A    between atoms: N_20  and  C_21
REMARK   17  A    between atoms: C_21  and  C_22
REMARK   18  A    between atoms: C_21  and  C_23
REMARK                            x       y       z     vdW  Elec       q    Type
REMARK                         _______ _______ _______ _____ _____    ______ ____
ROOT
ATOM      1  C   UNL     1       1.865   4.485  20.852  0.00  0.00    +0.000 C 
ENDROOT
BRANCH   1   2
ATOM      2  C   UNL     1       1.980   5.933  20.408  0.00  0.00    +0.000 C 
BRANCH   2   4
ATOM      3  C   UNL     1       3.199   6.932  18.474  0.00  0.00    +0.000 C 
ATOM      4  C   UNL     1       3.216   6.191  19.594  0.00  0.00    +0.000 C 
BRANCH   3   5
ATOM      5  C   UNL     1       1.938   7.539  17.940  0.00  0.00    +0.000 C 
BRANCH   5   7
ATOM      6  C   UNL     1       1.561   9.955  18.403  0.00  0.00    +0.000 C 
ATOM      7  C   UNL     1       2.062   8.995  17.609  0.00  0.00    +0.000 C 
BRANCH   6   8
ATOM      8  C   UNL     1       0.812   9.649  19.671  0.00  0.00    +0.000 C 
BRANCH   8   9
ATOM      9  C   UNL     1       0.521  10.896  20.492  0.00  0.00    +0.000 C 
BRANCH   9  10
ATOM     10  C   UNL     1      -0.964  11.240  20.417  0.00  0.00    +0.000 C 
BRANCH  10  12
ATOM     11  C   UNL     1      -1.543  12.054  18.116  0.00  0.00    +0.000 C 
ATOM     12  C   UNL     1      -1.191  12.463  19.535  0.00  0.00    +0.000 C 
ENDBRANCH  10  12
ENDBRANCH   9  10
ENDBRANCH   8   9
ENDBRANCH   6   8
ENDBRANCH   5   7
ENDBRANCH   3   5
ENDBRANCH   2   4
ENDBRANCH   1   2
BRANCH   1  13
ATOM     13  C   UNL     1       0.665   3.830  20.176  0.00  0.00    +0.000 C 
BRANCH  13  14
ATOM     14  C   UNL     1       1.073   3.216  18.846  0.00  0.00    +0.000 C 
BRANCH  14  15
ATOM     15  C   UNL     1       1.737   1.858  19.049  0.00  0.00    +0.000 C 
BRANCH  15  16
ATOM     16  C   UNL     1       3.051   1.810  18.285  0.00  0.00    +0.000 C 
BRANCH  16  17
ATOM     17  C   UNL     1       4.202   2.467  19.045  0.00  0.00    +0.000 C 
BRANCH  17  18
ATOM     18  C   UNL     1       4.826   3.548  18.181  0.00  0.00    +0.000 C 
ATOM     19  O   UNL     1       4.328   3.933  17.139  0.00  0.00    +0.000 OA
ATOM     20  N   UNL     1       6.001   4.069  18.692  0.00  0.00    +0.000 N 
ATOM     21  H   UNL     1       6.425   3.638  19.505  0.00  0.00    +0.000 HD
BRANCH  20  22
ATOM     22  C   UNL     1       6.718   5.111  17.970  0.00  0.00    +0.000 C 
ATOM     23  C   UNL     1       7.588   5.937  18.914  0.00  0.00    +0.000 C 
ATOM     24  C   UNL     1       7.579   4.523  16.855  0.00  0.00    +0.000 C 
ENDBRANCH  20  22
ENDBRANCH  17  18
ENDBRANCH  16  17
ENDBRANCH  15  16
ENDBRANCH  14  15
ENDBRANCH  13  14
ENDBRANCH   1  13
TORSDOF 15
ENDMDL
MODEL 4
REMARK VINA RESULT:      -5.9      3.335      7.943
REMARK  Name = 
REMARK  18 active torsions:
REMARK  status: ('A' for Active; 'I' for Inactive)
REMARK    1  A    between atoms: C_1  and  C_2
REMARK    2  A    between atoms: C_2  and  C_3
REMARK    3  A    between atoms: C_3  and  C_4
REMARK    4  A    between atoms: C_4  and  C_5
REMARK    5  A    between atoms: C_5  and  C_6
REMARK    6  A    between atoms: C_7  and  C_8
REMARK    7  A    between atoms: C_8  and  C_9
REMARK    8  A    between atoms: C_10  and  C_11
REMARK    9  A    between atoms: C_11  and  C_12
REMARK   10  A    between atoms: C_12  and  C_13
REMARK   11  A    between atoms: C_13  and  C_14
REMARK   12  A    between atoms: C_14  and  C_15
REMARK   13  A    between atoms: C_15  and  C_16
REMARK   14  A    between atoms: C_16  and  C_17
REMARK   15  A    between atoms: C_17  and  C_18
REMARK   16  A    between atoms: N_20  and  C_21
REMARK   17  A    between atoms: C_21  and  C_22
REMARK   18  A    between atoms: C_21  and  C_23
REMARK                            x       y       z     vdW  Elec       q    Type
REMARK                         _______ _______ _______ _____ _____    ______ ____
ROOT
ATOM      1  C   UNL     1       4.146   6.755  17.895  0.00  0.00    +0.000 C 
ENDROOT
BRANCH   1   2
ATOM      2  C   UNL     1       4.186   5.319  18.388  0.00  0.00    +0.000 C 
BRANCH   2   4
ATOM      3  C   UNL     1       2.959   3.656  16.991  0.00  0.00    +0.000 C 
ATOM      4  C   UNL     1       4.092   4.322  17.268  0.00  0.00    +0.000 C 
BRANCH   3   5
ATOM      5  C   UNL     1       1.709   3.843  17.793  0.00  0.00    +0.000 C 
BRANCH   5   7
ATOM      6  C   UNL     1       1.678   1.819  19.240  0.00  0.00    +0.000 C 
ATOM      7  C   UNL     1       1.105   2.561  18.278  0.00  0.00    +0.000 C 
BRANCH   6   8
ATOM      8  C   UNL     1       2.982   2.198  19.887  0.00  0.00    +0.000 C 
BRANCH   8   9
ATOM      9  C   UNL     1       2.805   2.672  21.322  0.00  0.00    +0.000 C 
BRANCH   9  10
ATOM     10  C   UNL     1       1.767   3.789  21.382  0.00  0.00    +0.000 C 
BRANCH  10  12
ATOM     11  C   UNL     1       1.374   6.171  20.699  0.00  0.00    +0.000 C 
ATOM     12  C   UNL     1       2.413   5.143  21.109  0.00  0.00    +0.000 C 
ENDBRANCH  10  12
ENDBRANCH   9  10
ENDBRANCH   8   9
ENDBRANCH   6   8
ENDBRANCH   5   7
ENDBRANCH   3   5
ENDBRANCH   2   4
ENDBRANCH   1   2
BRANCH   1  13
ATOM     13  C   UNL     1       5.106   6.928  16.723  0.00  0.00    +0.000 C 
BRANCH  13  14
ATOM     14  C   UNL     1       6.539   7.027  17.220  0.00  0.00    +0.000 C 
BRANCH  14  15
ATOM     15  C   UNL     1       7.353   5.809  16.794  0.00  0.00    +0.000 C 
BRANCH  15  16
ATOM     16  C   UNL     1       7.198   5.585  15.298  0.00  0.00    +0.000 C 
BRANCH  16  17
ATOM     17  C   UNL     1       6.758   4.162  14.954  0.00  0.00    +0.000 C 
BRANCH  17  18
ATOM     18  C   UNL     1       6.677   4.010  13.447  0.00  0.00    +0.000 C 
ATOM     19  O   UNL     1       7.308   4.708  12.674  0.00  0.00    +0.000 OA
ATOM     20  N   UNL     1       5.835   2.995  13.028  0.00  0.00    +0.000 N 
ATOM     21  H   UNL     1       5.254   2.519  13.707  0.00  0.00    +0.000 HD
BRANCH  20  22
ATOM     22  C   UNL     1       5.651   2.733  11.607  0.00  0.00    +0.000 C 
ATOM     23  C   UNL     1       5.943   1.271  11.274  0.00  0.00    +0.000 C 
ATOM     24  C   UNL     1       4.239   3.094  11.153  0.00  0.00    +0.000 C 
ENDBRANCH  20  22
ENDBRANCH  17  18
ENDBRANCH  16  17
ENDBRANCH  15  16
ENDBRANCH  14  15
ENDBRANCH  13  14
ENDBRANCH   1  13
TORSDOF 15
ENDMDL
MODEL 5
REMARK VINA RESULT:      -5.8      2.170      5.197
REMARK  Name = 
REMARK  18 active torsions:
REMARK  status: ('A' for Active; 'I' for Inactive)
REMARK    1  A    between atoms: C_1  and  C_2
REMARK    2  A    between atoms: C_2  and  C_3
REMARK    3  A    between atoms: C_3  and  C_4
REMARK    4  A    between atoms: C_4  and  C_5
REMARK    5  A    between atoms: C_5  and  C_6
REMARK    6  A    between atoms: C_7  and  C_8
REMARK    7  A    between atoms: C_8  and  C_9
REMARK    8  A    between atoms: C_10  and  C_11
REMARK    9  A    between atoms: C_11  and  C_12
REMARK   10  A    between atoms: C_12  and  C_13
REMARK   11  A    between atoms: C_13  and  C_14
REMARK   12  A    between atoms: C_14  and  C_15
REMARK   13  A    between atoms: C_15  and  C_16
REMARK   14  A    between atoms: C_16  and  C_17
REMARK   15  A    between atoms: C_17  and  C_18
REMARK   16  A    between atoms: N_20  and  C_21
REMARK   17  A    between atoms: C_21  and  C_22
REMARK   18  A    between atoms: C_21  and  C_23
REMARK                            x       y       z     vdW  Elec       q    Type
REMARK                         _______ _______ _______ _____ _____    ______ ____
ROOT
ATOM      1  C   UNL     1       4.473   7.015  17.735  0.00  0.00    +0.000 C 
ENDROOT
BRANCH   1   2
ATOM      2  C   UNL     1       4.690   6.887  16.238  0.00  0.00    +0.000 C 
BRANCH   2   4
ATOM      3  C   UNL     1       6.199   4.962  15.745  0.00  0.00    +0.000 C 
ATOM      4  C   UNL     1       6.024   6.284  15.896  0.00  0.00    +0.000 C 
BRANCH   3   5
ATOM      5  C   UNL     1       5.079   3.984  15.926  0.00  0.00    +0.000 C 
BRANCH   5   7
ATOM      6  C   UNL     1       3.717   3.249  17.875  0.00  0.00    +0.000 C 
ATOM      7  C   UNL     1       4.922   3.501  17.335  0.00  0.00    +0.000 C 
BRANCH   6   8
ATOM      8  C   UNL     1       2.432   3.459  17.123  0.00  0.00    +0.000 C 
BRANCH   8   9
ATOM      9  C   UNL     1       1.290   3.896  18.029  0.00  0.00    +0.000 C 
BRANCH   9  10
ATOM     10  C   UNL     1       1.335   3.120  19.342  0.00  0.00    +0.000 C 
BRANCH  10  12
ATOM     11  C   UNL     1       2.177   4.790  21.015  0.00  0.00    +0.000 C 
ATOM     12  C   UNL     1       0.966   4.022  20.515  0.00  0.00    +0.000 C 
ENDBRANCH  10  12
ENDBRANCH   9  10
ENDBRANCH   8   9
ENDBRANCH   6   8
ENDBRANCH   5   7
ENDBRANCH   3   5
ENDBRANCH   2   4
ENDBRANCH   1   2
BRANCH   1  13
ATOM     13  C   UNL     1       2.982   6.963  18.049  0.00  0.00    +0.000 C 
BRANCH  13  14
ATOM     14  C   UNL     1       2.349   8.331  17.853  0.00  0.00    +0.000 C 
BRANCH  14  15
ATOM     15  C   UNL     1       1.622   8.787  19.115  0.00  0.00    +0.000 C 
BRANCH  15  16
ATOM     16  C   UNL     1       0.484   9.723  18.742  0.00  0.00    +0.000 C 
BRANCH  16  17
ATOM     17  C   UNL     1       0.821  11.193  18.988  0.00  0.00    +0.000 C 
BRANCH  17  18
ATOM     18  C   UNL     1       0.747  11.485  20.475  0.00  0.00    +0.000 C 
ATOM     19  O   UNL     1       1.454  12.309  21.026  0.00  0.00    +0.000 OA
ATOM     20  N   UNL     1      -0.209  10.744  21.148  0.00  0.00    +0.000 N 
ATOM     21  H   UNL     1      -0.693   9.999  20.662  0.00  0.00    +0.000 HD
BRANCH  20  22
ATOM     22  C   UNL     1      -0.393  10.911  22.583  0.00  0.00    +0.000 C 
ATOM     23  C   UNL     1      -1.702  11.635  22.889  0.00  0.00    +0.000 C 
ATOM     24  C   UNL     1      -0.362   9.568  23.308  0.00  0.00    +0.000 C 
ENDBRANCH  20  22
ENDBRANCH  17  18
ENDBRANCH  16  17
ENDBRANCH  15  16
ENDBRANCH  14  15
ENDBRANCH  13  14
ENDBRANCH   1  13
TORSDOF 15
ENDMDL
MODEL 6
REMARK VINA RESULT:      -5.8      2.802      7.531
REMARK  Name = 
REMARK  18 active torsions:
REMARK  status: ('A' for Active; 'I' for Inactive)
REMARK    1  A    between atoms: C_1  and  C_2
REMARK    2  A    between atoms: C_2  and  C_3
REMARK    3  A    between atoms: C_3  and  C_4
REMARK    4  A    between atoms: C_4  and  C_5
REMARK    5  A    between atoms: C_5  and  C_6
REMARK    6  A    between atoms: C_7  and  C_8
REMARK    7  A    between atoms: C_8  and  C_9
REMARK    8  A    between atoms: C_10  and  C_11
REMARK    9  A    between atoms: C_11  and  C_12
REMARK   10  A    between atoms: C_12  and  C_13
REMARK   11  A    between atoms: C_13  and  C_14
REMARK   12  A    between atoms: C_14  and  C_15
REMARK   13  A    between atoms: C_15  and  C_16
REMARK   14  A    between atoms: C_16  and  C_17
REMARK   15  A    between atoms: C_17  and  C_18
REMARK   16  A    between atoms: N_20  and  C_21
REMARK   17  A    between atoms: C_21  and  C_22
REMARK   18  A    between atoms: C_21  and  C_23
REMARK                            x       y       z     vdW  Elec       q    Type
REMARK                         _______ _______ _______ _____ _____    ______ ____
ROOT
ATOM      1  C   UNL     1       3.990   4.867  17.382  0.00  0.00    +0.000 C 
ENDROOT
BRANCH   1   2
ATOM      2  C   UNL     1       2.735   4.018  17.477  0.00  0.00    +0.000 C 
BRANCH   2   4
ATOM      3  C   UNL     1       2.965   1.764  18.522  0.00  0.00    +0.000 C 
ATOM      4  C   UNL     1       3.028   2.545  17.431  0.00  0.00    +0.000 C 
BRANCH   3   5
ATOM      5  C   UNL     1       2.617   2.309  19.872  0.00  0.00    +0.000 C 
BRANCH   5   7
ATOM      6  C   UNL     1       0.974   4.068  20.502  0.00  0.00    +0.000 C 
ATOM      7  C   UNL     1       1.230   2.866  19.961  0.00  0.00    +0.000 C 
BRANCH   6   8
ATOM      8  C   UNL     1       2.052   4.939  21.088  0.00  0.00    +0.000 C 
BRANCH   8   9
ATOM      9  C   UNL     1       1.817   6.418  20.820  0.00  0.00    +0.000 C 
BRANCH   9  10
ATOM     10  C   UNL     1       2.101   6.738  19.354  0.00  0.00    +0.000 C 
BRANCH  10  12
ATOM     11  C   UNL     1       2.573   8.595  17.735  0.00  0.00    +0.000 C 
ATOM     12  C   UNL     1       2.026   8.241  19.106  0.00  0.00    +0.000 C 
ENDBRANCH  10  12
ENDBRANCH   9  10
ENDBRANCH   8   9
ENDBRANCH   6   8
ENDBRANCH   5   7
ENDBRANCH   3   5
ENDBRANCH   2   4
ENDBRANCH   1   2
BRANCH   1  13
ATOM     13  C   UNL     1       5.105   4.237  18.211  0.00  0.00    +0.000 C 
BRANCH  13  14
ATOM     14  C   UNL     1       6.151   5.278  18.575  0.00  0.00    +0.000 C 
BRANCH  14  15
ATOM     15  C   UNL     1       6.801   5.864  17.325  0.00  0.00    +0.000 C 
BRANCH  15  16
ATOM     16  C   UNL     1       7.314   4.740  16.438  0.00  0.00    +0.000 C 
BRANCH  16  17
ATOM     17  C   UNL     1       7.100   5.014  14.951  0.00  0.00    +0.000 C 
BRANCH  17  18
ATOM     18  C   UNL     1       6.300   3.879  14.339  0.00  0.00    +0.000 C 
ATOM     19  O   UNL     1       5.647   3.094  15.003  0.00  0.00    +0.000 OA
ATOM     20  N   UNL     1       6.363   3.825  12.958  0.00  0.00    +0.000 N 
ATOM     21  H   UNL     1       7.004   4.434  12.465  0.00  0.00    +0.000 HD
BRANCH  20  22
ATOM     22  C   UNL     1       5.650   2.785  12.230  0.00  0.00    +0.000 C 
ATOM     23  C   UNL     1       4.465   3.365  11.460  0.00  0.00    +0.000 C 
ATOM     24  C   UNL     1       6.576   2.043  11.270  0.00  0.00    +0.000 C 
ENDBRANCH  20  22
ENDBRANCH  17  18
ENDBRANCH  16  17
ENDBRANCH  15  16
ENDBRANCH  14  15
ENDBRANCH  13  14
ENDBRANCH   1  13
TORSDOF 15
ENDMDL
MODEL 7
REMARK VINA RESULT:      -5.8      3.029      7.530
REMARK  Name = 
REMARK  18 active torsions:
REMARK  status: ('A' for Active; 'I' for Inactive)
REMARK    1  A    between atoms: C_1  and  C_2
REMARK    2  A    between atoms: C_2  and  C_3
REMARK    3  A    between atoms: C_3  and  C_4
REMARK    4  A    between atoms: C_4  and  C_5
REMARK    5  A    between atoms: C_5  and  C_6
REMARK    6  A    between atoms: C_7  and  C_8
REMARK    7  A    between atoms: C_8  and  C_9
REMARK    8  A    between atoms: C_10  and  C_11
REMARK    9  A    between atoms: C_11  and  C_12
REMARK   10  A    between atoms: C_12  and  C_13
REMARK   11  A    between atoms: C_13  and  C_14
REMARK   12  A    between atoms: C_14  and  C_15
REMARK   13  A    between atoms: C_15  and  C_16
REMARK   14  A    between atoms: C_16  and  C_17
REMARK   15  A    between atoms: C_17  and  C_18
REMARK   16  A    between atoms: N_20  and  C_21
REMARK   17  A    between atoms: C_21  and  C_22
REMARK   18  A    between atoms: C_21  and  C_23
REMARK                            x       y       z     vdW  Elec       q    Type
REMARK                         _______ _______ _______ _____ _____    ______ ____
ROOT
ATOM      1  C   UNL     1       5.158   4.567  18.792  0.00  0.00    +0.000 C 
ENDROOT
BRANCH   1   2
ATOM      2  C   UNL     1       5.056   3.567  19.930  0.00  0.00    +0.000 C 
BRANCH   2   4
ATOM      3  C   UNL     1       3.256   1.848  20.098  0.00  0.00    +0.000 C 
ATOM      4  C   UNL     1       4.384   2.288  19.517  0.00  0.00    +0.000 C 
BRANCH   3   5
ATOM      5  C   UNL     1       2.595   2.590  21.218  0.00  0.00    +0.000 C 
BRANCH   5   7
ATOM      6  C   UNL     1       0.704   3.933  20.316  0.00  0.00    +0.000 C 
ATOM      7  C   UNL     1       1.138   2.855  20.990  0.00  0.00    +0.000 C 
BRANCH   6   8
ATOM      8  C   UNL     1       1.638   4.973  19.762  0.00  0.00    +0.000 C 
BRANCH   8   9
ATOM      9  C   UNL     1       1.848   6.138  20.717  0.00  0.00    +0.000 C 
BRANCH   9  10
ATOM     10  C   UNL     1       2.257   7.387  19.942  0.00  0.00    +0.000 C 
BRANCH  10  12
ATOM     11  C   UNL     1       2.374   8.418  17.658  0.00  0.00    +0.000 C 
ATOM     12  C   UNL     1       2.223   7.126  18.440  0.00  0.00    +0.000 C 
ENDBRANCH  10  12
ENDBRANCH   9  10
ENDBRANCH   8   9
ENDBRANCH   6   8
ENDBRANCH   5   7
ENDBRANCH   3   5
ENDBRANCH   2   4
ENDBRANCH   1   2
BRANCH   1  13
ATOM     13  C   UNL     1       6.388   5.449  18.986  0.00  0.00    +0.000 C 
BRANCH  13  14
ATOM     14  C   UNL     1       6.653   6.274  17.736  0.00  0.00    +0.000 C 
BRANCH  14  15
ATOM     15  C   UNL     1       5.358   6.563  16.983  0.00  0.00    +0.000 C 
BRANCH  15  16
ATOM     16  C   UNL     1       5.517   6.178  15.521  0.00  0.00    +0.000 C 
BRANCH  16  17
ATOM     17  C   UNL     1       6.498   5.024  15.316  0.00  0.00    +0.000 C 
BRANCH  17  18
ATOM     18  C   UNL     1       6.603   4.709  13.835  0.00  0.00    +0.000 C 
ATOM     19  O   UNL     1       7.404   5.251  13.097  0.00  0.00    +0.000 OA
ATOM     20  N   UNL     1       5.718   3.736  13.403  0.00  0.00    +0.000 N 
ATOM     21  H   UNL     1       5.004   3.397  14.034  0.00  0.00    +0.000 HD
BRANCH  20  22
ATOM     22  C   UNL     1       5.698   3.332  12.004  0.00  0.00    +0.000 C 
ATOM     23  C   UNL     1       6.448   2.017  11.799  0.00  0.00    +0.000 C 
ATOM     24  C   UNL     1       4.269   3.198  11.484  0.00  0.00    +0.000 C 
ENDBRANCH  20  22
ENDBRANCH  17  18
ENDBRANCH  16  17
ENDBRANCH  15  16
ENDBRANCH  14  15
ENDBRANCH  13  14
ENDBRANCH   1  13
TORSDOF 15
ENDMDL
MODEL 8
REMARK VINA RESULT:      -5.8      6.292      8.356
REMARK  Name = 
REMARK  18 active torsions:
REMARK  status: ('A' for Active; 'I' for Inactive)
REMARK    1  A    between atoms: C_1  and  C_2
REMARK    2  A    between atoms: C_2  and  C_3
REMARK    3  A    between atoms: C_3  and  C_4
REMARK    4  A    between atoms: C_4  and  C_5
REMARK    5  A    between atoms: C_5  and  C_6
REMARK    6  A    between atoms: C_7  and  C_8
REMARK    7  A    between atoms: C_8  and  C_9
REMARK    8  A    between atoms: C_10  and  C_11
REMARK    9  A    between atoms: C_11  and  C_12
REMARK   10  A    between atoms: C_12  and  C_13
REMARK   11  A    between atoms: C_13  and  C_14
REMARK   12  A    between atoms: C_14  and  C_15
REMARK   13  A    between atoms: C_15  and  C_16
REMARK   14  A    between atoms: C_16  and  C_17
REMARK   15  A    between atoms: C_17  and  C_18
REMARK   16  A    between atoms: N_20  and  C_21
REMARK   17  A    between atoms: C_21  and  C_22
REMARK   18  A    between atoms: C_21  and  C_23
REMARK                            x       y       z     vdW  Elec       q    Type
REMARK                         _______ _______ _______ _____ _____    ______ ____
ROOT
ATOM      1  C   UNL     1       8.125   7.136  18.243  0.00  0.00    +0.000 C 
ENDROOT
BRANCH   1   2
ATOM      2  C   UNL     1       6.842   6.345  18.057  0.00  0.00    +0.000 C 
BRANCH   2   4
ATOM      3  C   UNL     1       4.594   6.920  17.139  0.00  0.00    +0.000 C 
ATOM      4  C   UNL     1       5.932   6.953  17.028  0.00  0.00    +0.000 C 
BRANCH   3   5
ATOM      5  C   UNL     1       3.907   6.255  18.292  0.00  0.00    +0.000 C 
BRANCH   5   7
ATOM      6  C   UNL     1       2.294   4.471  17.655  0.00  0.00    +0.000 C 
ATOM      7  C   UNL     1       2.533   5.755  17.969  0.00  0.00    +0.000 C 
BRANCH   6   8
ATOM      8  C   UNL     1       3.386   3.439  17.574  0.00  0.00    +0.000 C 
BRANCH   8   9
ATOM      9  C   UNL     1       3.279   2.389  18.670  0.00  0.00    +0.000 C 
BRANCH   9  10
ATOM     10  C   UNL     1       3.582   3.015  20.029  0.00  0.00    +0.000 C 
BRANCH  10  12
ATOM     11  C   UNL     1       1.295   3.470  20.953  0.00  0.00    +0.000 C 
ATOM     12  C   UNL     1       2.536   2.602  21.058  0.00  0.00    +0.000 C 
ENDBRANCH  10  12
ENDBRANCH   9  10
ENDBRANCH   8   9
ENDBRANCH   6   8
ENDBRANCH   5   7
ENDBRANCH   3   5
ENDBRANCH   2   4
ENDBRANCH   1   2
BRANCH   1  13
ATOM     13  C   UNL     1       7.892   8.596  17.867  0.00  0.00    +0.000 C 
BRANCH  13  14
ATOM     14  C   UNL     1       8.758   9.509  18.720  0.00  0.00    +0.000 C 
BRANCH  14  15
ATOM     15  C   UNL     1       8.911  10.883  18.073  0.00  0.00    +0.000 C 
BRANCH  15  16
ATOM     16  C   UNL     1      10.385  11.191  17.865  0.00  0.00    +0.000 C 
BRANCH  16  17
ATOM     17  C   UNL     1      11.118  11.493  19.171  0.00  0.00    +0.000 C 
BRANCH  17  18
ATOM     18  C   UNL     1      10.608  12.803  19.743  0.00  0.00    +0.000 C 
ATOM     19  O   UNL     1      10.097  12.892  20.844  0.00  0.00    +0.000 OA
ATOM     20  N   UNL     1      10.792  13.891  18.908  0.00  0.00    +0.000 N 
ATOM     21  H   UNL     1      11.124  13.743  17.963  0.00  0.00    +0.000 HD
BRANCH  20  22
ATOM     22  C   UNL     1      10.348  15.216  19.319  0.00  0.00    +0.000 C 
ATOM     23  C   UNL     1      11.530  16.085  19.745  0.00  0.00    +0.000 C 
ATOM     24  C   UNL     1       9.569  15.912  18.206  0.00  0.00    +0.000 C 
ENDBRANCH  20  22
ENDBRANCH  17  18
ENDBRANCH  16  17
ENDBRANCH  15  16
ENDBRANCH  14  15
ENDBRANCH  13  14
ENDBRANCH   1  13
TORSDOF 15
ENDMDL
MODEL 9
REMARK VINA RESULT:      -5.8      2.471      8.093
REMARK  Name = 
REMARK  18 active torsions:
REMARK  status: ('A' for Active; 'I' for Inactive)
REMARK    1  A    between atoms: C_1  and  C_2
REMARK    2  A    between atoms: C_2  and  C_3
REMARK    3  A    between atoms: C_3  and  C_4
REMARK    4  A    between atoms: C_4  and  C_5
REMARK    5  A    between atoms: C_5  and  C_6
REMARK    6  A    between atoms: C_7  and  C_8
REMARK    7  A    between atoms: C_8  and  C_9
REMARK    8  A    between atoms: C_10  and  C_11
REMARK    9  A    between atoms: C_11  and  C_12
REMARK   10  A    between atoms: C_12  and  C_13
REMARK   11  A    between atoms: C_13  and  C_14
REMARK   12  A    between atoms: C_14  and  C_15
REMARK   13  A    between atoms: C_15  and  C_16
REMARK   14  A    between atoms: C_16  and  C_17
REMARK   15  A    between atoms: C_17  and  C_18
REMARK   16  A    between atoms: N_20  and  C_21
REMARK   17  A    between atoms: C_21  and  C_22
REMARK   18  A    between atoms: C_21  and  C_23
REMARK                            x       y       z     vdW  Elec       q    Type
REMARK                         _______ _______ _______ _____ _____    ______ ____
ROOT
ATOM      1  C   UNL     1       1.663   5.810  20.240  0.00  0.00    +0.000 C 
ENDROOT
BRANCH   1   2
ATOM      2  C   UNL     1       2.096   5.832  18.785  0.00  0.00    +0.000 C 
BRANCH   2   4
ATOM      3  C   UNL     1       3.006   8.039  18.062  0.00  0.00    +0.000 C 
ATOM      4  C   UNL     1       3.218   6.799  18.530  0.00  0.00    +0.000 C 
BRANCH   3   5
ATOM      5  C   UNL     1       1.635   8.546  17.738  0.00  0.00    +0.000 C 
BRANCH   5   7
ATOM      6  C   UNL     1       0.902  10.238  19.409  0.00  0.00    +0.000 C 
ATOM      7  C   UNL     1       1.388   9.952  18.190  0.00  0.00    +0.000 C 
BRANCH   6   8
ATOM      8  C   UNL     1       0.539   9.172  20.407  0.00  0.00    +0.000 C 
BRANCH   8   9
ATOM      9  C   UNL     1      -0.237   9.723  21.594  0.00  0.00    +0.000 C 
BRANCH   9  10
ATOM     10  C   UNL     1      -0.845  11.077  21.240  0.00  0.00    +0.000 C 
BRANCH  10  12
ATOM     11  C   UNL     1      -1.966  12.340  23.096  0.00  0.00    +0.000 C 
ATOM     12  C   UNL     1      -0.654  12.070  22.382  0.00  0.00    +0.000 C 
ENDBRANCH  10  12
ENDBRANCH   9  10
ENDBRANCH   8   9
ENDBRANCH   6   8
ENDBRANCH   5   7
ENDBRANCH   3   5
ENDBRANCH   2   4
ENDBRANCH   1   2
BRANCH   1  13
ATOM     13  C   UNL     1       1.823   4.402  20.806  0.00  0.00    +0.000 C 
BRANCH  13  14
ATOM     14  C   UNL     1       1.054   3.399  19.962  0.00  0.00    +0.000 C 
BRANCH  14  15
ATOM     15  C   UNL     1       1.919   2.188  19.624  0.00  0.00    +0.000 C 
BRANCH  15  16
ATOM     16  C   UNL     1       3.069   2.613  18.724  0.00  0.00    +0.000 C 
BRANCH  16  17
ATOM     17  C   UNL     1       4.361   2.871  19.497  0.00  0.00    +0.000 C 
BRANCH  17  18
ATOM     18  C   UNL     1       5.281   3.743  18.662  0.00  0.00    +0.000 C 
ATOM     19  O   UNL     1       6.182   4.407  19.141  0.00  0.00    +0.000 OA
ATOM     20  N   UNL     1       5.016   3.702  17.304  0.00  0.00    +0.000 N 
ATOM     21  H   UNL     1       4.190   3.219  16.973  0.00  0.00    +0.000 HD
BRANCH  20  22
ATOM     22  C   UNL     1       5.814   4.492  16.376  0.00  0.00    +0.000 C 
ATOM     23  C   UNL     1       6.140   3.696  15.114  0.00  0.00    +0.000 C 
ATOM     24  C   UNL     1       5.105   5.791  15.999  0.00  0.00    +0.000 C 
ENDBRANCH  20  22
ENDBRANCH  17  18
ENDBRANCH  16  17
ENDBRANCH  15  16
ENDBRANCH  14  15
ENDBRANCH  13  14
ENDBRANCH   1  13
TORSDOF 15
ENDMDL
