MODEL 1
REMARK VINA RESULT:      -8.4      0.000      0.000
REMARK  Name = 
REMARK  9 active torsions:
REMARK  status: ('A' for Active; 'I' for Inactive)
REMARK    1  A    between atoms: C_1  and  O_2
REMARK    2  A    between atoms: O_2  and  C_3
REMARK    3  A    between atoms: C_8  and  O_9
REMARK    4  A    between atoms: O_9  and  C_10
REMARK    5  A    between atoms: N_12  and  C_13
REMARK    6  A    between atoms: C_15  and  C_16
REMARK    7  A    between atoms: C_16  and  N_17
REMARK    8  A    between atoms: C_25  and  C_26
REMARK    9  A    between atoms: C_27  and  C_28
REMARK                            x       y       z     vdW  Elec       q    Type
REMARK                         _______ _______ _______ _____ _____    ______ ____
ROOT
ATOM      1  C   UNL     1       2.929   6.471  18.320  0.00  0.00    +0.000 A 
ATOM      2  N   UNL     1       3.963   6.832  17.495  0.00  0.00    +0.000 NA
ATOM      3  C   UNL     1       4.656   5.911  16.792  0.00  0.00    +0.000 A 
ATOM      4  N   UNL     1       4.447   4.599  16.841  0.00  0.00    +0.000 NA
ATOM      5  C   UNL     1       3.455   4.243  17.662  0.00  0.00    +0.000 A 
ATOM      6  S   UNL     1       3.133   2.585  17.833  0.00  0.00    +0.000 S 
ATOM      7  C   UNL     1       1.874   2.876  18.930  0.00  0.00    +0.000 A 
ATOM      8  C   UNL     1       1.105   1.720  19.482  0.00  0.00    +0.000 C 
ATOM      9  C   UNL     1       1.712   4.230  19.204  0.00  0.00    +0.000 A 
ATOM     10  C   UNL     1       0.687   4.692  20.186  0.00  0.00    +0.000 C 
ATOM     11  C   UNL     1       2.643   5.069  18.428  0.00  0.00    +0.000 A 
ENDROOT
BRANCH   1  19
ATOM     12  C   UNL     1       1.159  11.967  20.598  0.00  0.00    +0.000 A 
ATOM     13  C   UNL     1       0.956  10.715  21.198  0.00  0.00    +0.000 A 
ATOM     14  C   UNL     1       0.962   9.555  20.428  0.00  0.00    +0.000 A 
ATOM     15  C   UNL     1       1.171   9.629  19.042  0.00  0.00    +0.000 A 
ATOM     16  C   UNL     1       1.337  10.879  18.435  0.00  0.00    +0.000 A 
ATOM     17  C   UNL     1       1.352  12.055  19.205  0.00  0.00    +0.000 A 
ATOM     18  C   UNL     1       1.328   8.320  18.286  0.00  0.00    +0.000 C 
ATOM     19  N   UNL     1       2.294   7.494  19.022  0.00  0.00    +0.000 N 
ATOM     20  C   UNL     1       2.104   7.382  20.478  0.00  0.00    +0.000 C 
ATOM     21  C   UNL     1       0.897   8.169  21.017  0.00  0.00    +0.000 C 
BRANCH  12  23
ATOM     22  C   UNL     1       0.022  13.621  21.890  0.00  0.00    +0.000 C 
ATOM     23  O   UNL     1       1.235  12.987  21.517  0.00  0.00    +0.000 OA
ENDBRANCH  12  23
BRANCH  17  24
ATOM     24  O   UNL     1       1.606  13.292  18.672  0.00  0.00    +0.000 OA
ATOM     25  C   UNL     1       2.945  13.607  18.314  0.00  0.00    +0.000 C 
ENDBRANCH  17  24
ENDBRANCH   1  19
BRANCH   3  26
ATOM     26  C   UNL     1       5.764   6.369  15.847  0.00  0.00    +0.000 C 
BRANCH  26  27
ATOM     27  N   UNL     1       7.179   6.237  16.264  0.00  0.00    +0.000 NA
ATOM     28  C   UNL     1       7.573   4.877  16.639  0.00  0.00    +0.000 C 
ATOM     29  C   UNL     1       7.409   4.796  18.146  0.00  0.00    +0.000 C 
ATOM     30  C   UNL     1       7.628   6.220  18.627  0.00  0.00    +0.000 C 
ATOM     31  C   UNL     1       7.533   7.101  17.388  0.00  0.00    +0.000 C 
ENDBRANCH  26  27
ENDBRANCH   3  26
TORSDOF 5
ENDMDL
MODEL 2
REMARK VINA RESULT:      -7.9      1.793      2.594
REMARK  Name = 
REMARK  9 active torsions:
REMARK  status: ('A' for Active; 'I' for Inactive)
REMARK    1  A    between atoms: C_1  and  O_2
REMARK    2  A    between atoms: O_2  and  C_3
REMARK    3  A    between atoms: C_8  and  O_9
REMARK    4  A    between atoms: O_9  and  C_10
REMARK    5  A    between atoms: N_12  and  C_13
REMARK    6  A    between atoms: C_15  and  C_16
REMARK    7  A    between atoms: C_16  and  N_17
REMARK    8  A    between atoms: C_25  and  C_26
REMARK    9  A    between atoms: C_27  and  C_28
REMARK                            x       y       z     vdW  Elec       q    Type
REMARK                         _______ _______ _______ _____ _____    ______ ____
ROOT
ATOM      1  C   UNL     1       3.078   6.051  18.325  0.00  0.00    +0.000 A 
ATOM      2  N   UNL     1       4.062   5.984  17.373  0.00  0.00    +0.000 NA
ATOM      3  C   UNL     1       4.738   4.838  17.139  0.00  0.00    +0.000 A 
ATOM      4  N   UNL     1       4.557   3.699  17.800  0.00  0.00    +0.000 NA
ATOM      5  C   UNL     1       3.614   3.769  18.744  0.00  0.00    +0.000 A 
ATOM      6  S   UNL     1       3.334   2.379  19.679  0.00  0.00    +0.000 S 
ATOM      7  C   UNL     1       2.125   3.152  20.582  0.00  0.00    +0.000 A 
ATOM      8  C   UNL     1       1.408   2.386  21.646  0.00  0.00    +0.000 C 
ATOM      9  C   UNL     1       1.951   4.479  20.208  0.00  0.00    +0.000 A 
ATOM     10  C   UNL     1       0.967   5.349  20.918  0.00  0.00    +0.000 C 
ATOM     11  C   UNL     1       2.825   4.859  19.084  0.00  0.00    +0.000 A 
ENDROOT
BRANCH   1  19
ATOM     12  C   UNL     1      -0.669  10.664  20.116  0.00  0.00    +0.000 A 
ATOM     13  C   UNL     1       0.131  10.644  18.963  0.00  0.00    +0.000 A 
ATOM     14  C   UNL     1       1.244   9.811  18.892  0.00  0.00    +0.000 A 
ATOM     15  C   UNL     1       1.578   8.984  19.977  0.00  0.00    +0.000 A 
ATOM     16  C   UNL     1       0.803   9.029  21.142  0.00  0.00    +0.000 A 
ATOM     17  C   UNL     1      -0.334   9.851  21.218  0.00  0.00    +0.000 A 
ATOM     18  C   UNL     1       2.704   7.984  19.775  0.00  0.00    +0.000 C 
ATOM     19  N   UNL     1       2.458   7.286  18.507  0.00  0.00    +0.000 N 
ATOM     20  C   UNL     1       2.116   8.118  17.342  0.00  0.00    +0.000 C 
ATOM     21  C   UNL     1       2.063   9.626  17.641  0.00  0.00    +0.000 C 
BRANCH  12  23
ATOM     22  C   UNL     1      -2.374  11.521  18.682  0.00  0.00    +0.000 C 
ATOM     23  O   UNL     1      -1.786  11.453  19.971  0.00  0.00    +0.000 OA
ENDBRANCH  12  23
BRANCH  17  24
ATOM     24  O   UNL     1      -1.178   9.860  22.297  0.00  0.00    +0.000 OA
ATOM     25  C   UNL     1      -1.115  10.964  23.190  0.00  0.00    +0.000 C 
ENDBRANCH  17  24
ENDBRANCH   1  19
BRANCH   3  26
ATOM     26  C   UNL     1       5.789   4.800  16.033  0.00  0.00    +0.000 C 
BRANCH  26  27
ATOM     27  N   UNL     1       7.185   5.185  16.339  0.00  0.00    +0.000 NA
ATOM     28  C   UNL     1       7.743   4.535  17.527  0.00  0.00    +0.000 C 
ATOM     29  C   UNL     1       7.517   5.498  18.677  0.00  0.00    +0.000 C 
ATOM     30  C   UNL     1       7.513   6.871  18.025  0.00  0.00    +0.000 C 
ATOM     31  C   UNL     1       7.360   6.624  16.529  0.00  0.00    +0.000 C 
ENDBRANCH  26  27
ENDBRANCH   3  26
TORSDOF 5
ENDMDL
MODEL 3
REMARK VINA RESULT:      -7.4      0.952      1.542
REMARK  Name = 
REMARK  9 active torsions:
REMARK  status: ('A' for Active; 'I' for Inactive)
REMARK    1  A    between atoms: C_1  and  O_2
REMARK    2  A    between atoms: O_2  and  C_3
REMARK    3  A    between atoms: C_8  and  O_9
REMARK    4  A    between atoms: O_9  and  C_10
REMARK    5  A    between atoms: N_12  and  C_13
REMARK    6  A    between atoms: C_15  and  C_16
REMARK    7  A    between atoms: C_16  and  N_17
REMARK    8  A    between atoms: C_25  and  C_26
REMARK    9  A    between atoms: C_27  and  C_28
REMARK                            x       y       z     vdW  Elec       q    Type
REMARK                         _______ _______ _______ _____ _____    ______ ____
ROOT
ATOM      1  C   UNL     1       3.315   6.210  18.872  0.00  0.00    +0.000 A 
ATOM      2  N   UNL     1       4.523   6.527  18.306  0.00  0.00    +0.000 NA
ATOM      3  C   UNL     1       5.354   5.570  17.841  0.00  0.00    +0.000 A 
ATOM      4  N   UNL     1       5.123   4.262  17.905  0.00  0.00    +0.000 NA
ATOM      5  C   UNL     1       3.956   3.951  18.478  0.00  0.00    +0.000 A 
ATOM      6  S   UNL     1       3.581   2.303  18.650  0.00  0.00    +0.000 S 
ATOM      7  C   UNL     1       2.097   2.653  19.391  0.00  0.00    +0.000 A 
ATOM      8  C   UNL     1       1.203   1.527  19.799  0.00  0.00    +0.000 C 
ATOM      9  C   UNL     1       1.892   4.019  19.548  0.00  0.00    +0.000 A 
ATOM     10  C   UNL     1       0.664   4.533  20.226  0.00  0.00    +0.000 C 
ATOM     11  C   UNL     1       2.993   4.815  18.979  0.00  0.00    +0.000 A 
ENDROOT
BRANCH   1  19
ATOM     12  C   UNL     1       1.018  11.821  20.199  0.00  0.00    +0.000 A 
ATOM     13  C   UNL     1       0.766  10.634  20.902  0.00  0.00    +0.000 A 
ATOM     14  C   UNL     1       0.934   9.399  20.282  0.00  0.00    +0.000 A 
ATOM     15  C   UNL     1       1.357   9.331  18.945  0.00  0.00    +0.000 A 
ATOM     16  C   UNL     1       1.574  10.515  18.230  0.00  0.00    +0.000 A 
ATOM     17  C   UNL     1       1.426  11.767  18.851  0.00  0.00    +0.000 A 
ATOM     18  C   UNL     1       1.677   7.957  18.380  0.00  0.00    +0.000 C 
ATOM     19  N   UNL     1       2.542   7.269  19.345  0.00  0.00    +0.000 N 
ATOM     20  C   UNL     1       2.128   7.306  20.758  0.00  0.00    +0.000 C 
ATOM     21  C   UNL     1       0.825   8.084  21.010  0.00  0.00    +0.000 C 
BRANCH  12  23
ATOM     22  C   UNL     1      -0.208  13.020  21.860  0.00  0.00    +0.000 C 
ATOM     23  O   UNL     1       0.913  12.939  20.994  0.00  0.00    +0.000 OA
ENDBRANCH  12  23
BRANCH  17  24
ATOM     24  O   UNL     1       1.718  12.950  18.224  0.00  0.00    +0.000 OA
ATOM     25  C   UNL     1       3.033  13.472  18.353  0.00  0.00    +0.000 C 
ENDBRANCH  17  24
ENDBRANCH   1  19
BRANCH   3  26
ATOM     26  C   UNL     1       6.665   5.976  17.172  0.00  0.00    +0.000 C 
BRANCH  26  27
ATOM     27  N   UNL     1       6.740   6.043  15.694  0.00  0.00    +0.000 NA
ATOM     28  C   UNL     1       5.438   6.092  15.026  0.00  0.00    +0.000 C 
ATOM     29  C   UNL     1       5.097   4.657  14.668  0.00  0.00    +0.000 C 
ATOM     30  C   UNL     1       6.446   3.982  14.488  0.00  0.00    +0.000 C 
ATOM     31  C   UNL     1       7.472   4.925  15.102  0.00  0.00    +0.000 C 
ENDBRANCH  26  27
ENDBRANCH   3  26
TORSDOF 5
ENDMDL
MODEL 4
REMARK VINA RESULT:      -7.2      4.079      6.916
REMARK  Name = 
REMARK  9 active torsions:
REMARK  status: ('A' for Active; 'I' for Inactive)
REMARK    1  A    between atoms: C_1  and  O_2
REMARK    2  A    between atoms: O_2  and  C_3
REMARK    3  A    between atoms: C_8  and  O_9
REMARK    4  A    between atoms: O_9  and  C_10
REMARK    5  A    between atoms: N_12  and  C_13
REMARK    6  A    between atoms: C_15  and  C_16
REMARK    7  A    between atoms: C_16  and  N_17
REMARK    8  A    between atoms: C_25  and  C_26
REMARK    9  A    between atoms: C_27  and  C_28
REMARK                            x       y       z     vdW  Elec       q    Type
REMARK                         _______ _______ _______ _____ _____    ______ ____
ROOT
ATOM      1  C   UNL     1      -0.604  11.150  19.744  0.00  0.00    +0.000 A 
ATOM      2  N   UNL     1       0.565  10.435  19.715  0.00  0.00    +0.000 NA
ATOM      3  C   UNL     1       0.859   9.609  18.688  0.00  0.00    +0.000 A 
ATOM      4  N   UNL     1       0.067   9.377  17.645  0.00  0.00    +0.000 NA
ATOM      5  C   UNL     1      -1.084  10.056  17.684  0.00  0.00    +0.000 A 
ATOM      6  S   UNL     1      -2.189   9.799  16.420  0.00  0.00    +0.000 S 
ATOM      7  C   UNL     1      -3.304  10.889  17.088  0.00  0.00    +0.000 A 
ATOM      8  C   UNL     1      -4.589  11.147  16.372  0.00  0.00    +0.000 C 
ATOM      9  C   UNL     1      -2.863  11.426  18.292  0.00  0.00    +0.000 A 
ATOM     10  C   UNL     1      -3.723  12.370  19.066  0.00  0.00    +0.000 C 
ATOM     11  C   UNL     1      -1.515  10.952  18.652  0.00  0.00    +0.000 A 
ENDROOT
BRANCH   1  19
ATOM     12  C   UNL     1      -3.153  14.272  24.465  0.00  0.00    +0.000 A 
ATOM     13  C   UNL     1      -1.922  14.552  23.853  0.00  0.00    +0.000 A 
ATOM     14  C   UNL     1      -1.242  13.560  23.151  0.00  0.00    +0.000 A 
ATOM     15  C   UNL     1      -1.783  12.268  23.052  0.00  0.00    +0.000 A 
ATOM     16  C   UNL     1      -2.992  11.976  23.692  0.00  0.00    +0.000 A 
ATOM     17  C   UNL     1      -3.697  12.974  24.387  0.00  0.00    +0.000 A 
ATOM     18  C   UNL     1      -1.074  11.280  22.140  0.00  0.00    +0.000 C 
ATOM     19  N   UNL     1      -0.825  11.954  20.860  0.00  0.00    +0.000 N 
ATOM     20  C   UNL     1      -0.248  13.308  20.920  0.00  0.00    +0.000 C 
ATOM     21  C   UNL     1       0.006  13.820  22.348  0.00  0.00    +0.000 C 
BRANCH  12  23
ATOM     22  C   UNL     1      -4.432  16.260  24.134  0.00  0.00    +0.000 C 
ATOM     23  O   UNL     1      -3.737  15.389  25.013  0.00  0.00    +0.000 OA
ENDBRANCH  12  23
BRANCH  17  24
ATOM     24  O   UNL     1      -4.929  12.764  24.949  0.00  0.00    +0.000 OA
ATOM     25  C   UNL     1      -6.069  12.793  24.100  0.00  0.00    +0.000 C 
ENDBRANCH  17  24
ENDBRANCH   1  19
BRANCH   3  26
ATOM     26  C   UNL     1       2.197   8.875  18.676  0.00  0.00    +0.000 C 
BRANCH  26  27
ATOM     27  N   UNL     1       2.307   7.568  17.989  0.00  0.00    +0.000 NA
ATOM     28  C   UNL     1       2.174   6.408  18.873  0.00  0.00    +0.000 C 
ATOM     29  C   UNL     1       3.588   6.012  19.257  0.00  0.00    +0.000 C 
ATOM     30  C   UNL     1       4.439   6.457  18.080  0.00  0.00    +0.000 C 
ATOM     31  C   UNL     1       3.564   7.400  17.263  0.00  0.00    +0.000 C 
ENDBRANCH  26  27
ENDBRANCH   3  26
TORSDOF 5
ENDMDL
MODEL 5
REMARK VINA RESULT:      -7.1      2.057      3.106
REMARK  Name = 
REMARK  9 active torsions:
REMARK  status: ('A' for Active; 'I' for Inactive)
REMARK    1  A    between atoms: C_1  and  O_2
REMARK    2  A    between atoms: O_2  and  C_3
REMARK    3  A    between atoms: C_8  and  O_9
REMARK    4  A    between atoms: O_9  and  C_10
REMARK    5  A    between atoms: N_12  and  C_13
REMARK    6  A    between atoms: C_15  and  C_16
REMARK    7  A    between atoms: C_16  and  N_17
REMARK    8  A    between atoms: C_25  and  C_26
REMARK    9  A    between atoms: C_27  and  C_28
REMARK                            x       y       z     vdW  Elec       q    Type
REMARK                         _______ _______ _______ _____ _____    ______ ____
ROOT
ATOM      1  C   UNL     1       3.519   6.066  18.591  0.00  0.00    +0.000 A 
ATOM      2  N   UNL     1       4.644   6.089  17.808  0.00  0.00    +0.000 NA
ATOM      3  C   UNL     1       5.449   5.009  17.702  0.00  0.00    +0.000 A 
ATOM      4  N   UNL     1       5.269   3.859  18.344  0.00  0.00    +0.000 NA
ATOM      5  C   UNL     1       4.185   3.844  19.126  0.00  0.00    +0.000 A 
ATOM      6  S   UNL     1       3.887   2.435  20.027  0.00  0.00    +0.000 S 
ATOM      7  C   UNL     1       2.485   3.096  20.715  0.00  0.00    +0.000 A 
ATOM      8  C   UNL     1       1.679   2.269  21.664  0.00  0.00    +0.000 C 
ATOM      9  C   UNL     1       2.253   4.401  20.296  0.00  0.00    +0.000 A 
ATOM     10  C   UNL     1       1.094   5.179  20.828  0.00  0.00    +0.000 C 
ATOM     11  C   UNL     1       3.257   4.858  19.319  0.00  0.00    +0.000 A 
ENDROOT
BRANCH   1  19
ATOM     12  C   UNL     1      -0.721  10.400  19.921  0.00  0.00    +0.000 A 
ATOM     13  C   UNL     1       0.093  10.358  18.779  0.00  0.00    +0.000 A 
ATOM     14  C   UNL     1       1.289   9.646  18.793  0.00  0.00    +0.000 A 
ATOM     15  C   UNL     1       1.692   8.963  19.952  0.00  0.00    +0.000 A 
ATOM     16  C   UNL     1       0.900   9.034  21.103  0.00  0.00    +0.000 A 
ATOM     17  C   UNL     1      -0.319   9.733  21.096  0.00  0.00    +0.000 A 
ATOM     18  C   UNL     1       2.921   8.076  19.850  0.00  0.00    +0.000 C 
ATOM     19  N   UNL     1       2.770   7.240  18.653  0.00  0.00    +0.000 N 
ATOM     20  C   UNL     1       2.358   7.919  17.413  0.00  0.00    +0.000 C 
ATOM     21  C   UNL     1       2.141   9.434  17.568  0.00  0.00    +0.000 C 
BRANCH  12  23
ATOM     22  C   UNL     1      -2.359  11.150  18.354  0.00  0.00    +0.000 C 
ATOM     23  O   UNL     1      -1.913  11.048  19.697  0.00  0.00    +0.000 OA
ENDBRANCH  12  23
BRANCH  17  24
ATOM     24  O   UNL     1      -1.175   9.753  22.166  0.00  0.00    +0.000 OA
ATOM     25  C   UNL     1      -1.090  10.842  23.075  0.00  0.00    +0.000 C 
ENDBRANCH  17  24
ENDBRANCH   1  19
BRANCH   3  26
ATOM     26  C   UNL     1       6.661   5.066  16.777  0.00  0.00    +0.000 C 
BRANCH  26  27
ATOM     27  N   UNL     1       6.506   5.595  15.403  0.00  0.00    +0.000 NA
ATOM     28  C   UNL     1       5.175   5.394  14.825  0.00  0.00    +0.000 C 
ATOM     29  C   UNL     1       5.257   4.108  14.024  0.00  0.00    +0.000 C 
ATOM     30  C   UNL     1       6.711   4.023  13.593  0.00  0.00    +0.000 C 
ATOM     31  C   UNL     1       7.463   5.030  14.454  0.00  0.00    +0.000 C 
ENDBRANCH  26  27
ENDBRANCH   3  26
TORSDOF 5
ENDMDL
MODEL 6
REMARK VINA RESULT:      -7.1      1.107      1.619
REMARK  Name = 
REMARK  9 active torsions:
REMARK  status: ('A' for Active; 'I' for Inactive)
REMARK    1  A    between atoms: C_1  and  O_2
REMARK    2  A    between atoms: O_2  and  C_3
REMARK    3  A    between atoms: C_8  and  O_9
REMARK    4  A    between atoms: O_9  and  C_10
REMARK    5  A    between atoms: N_12  and  C_13
REMARK    6  A    between atoms: C_15  and  C_16
REMARK    7  A    between atoms: C_16  and  N_17
REMARK    8  A    between atoms: C_25  and  C_26
REMARK    9  A    between atoms: C_27  and  C_28
REMARK                            x       y       z     vdW  Elec       q    Type
REMARK                         _______ _______ _______ _____ _____    ______ ____
ROOT
ATOM      1  C   UNL     1       3.468   5.948  19.451  0.00  0.00    +0.000 A 
ATOM      2  N   UNL     1       4.805   6.217  19.309  0.00  0.00    +0.000 NA
ATOM      3  C   UNL     1       5.699   5.231  19.079  0.00  0.00    +0.000 A 
ATOM      4  N   UNL     1       5.404   3.937  19.002  0.00  0.00    +0.000 NA
ATOM      5  C   UNL     1       4.105   3.672  19.163  0.00  0.00    +0.000 A 
ATOM      6  S   UNL     1       3.625   2.043  19.126  0.00  0.00    +0.000 S 
ATOM      7  C   UNL     1       1.999   2.449  19.381  0.00  0.00    +0.000 A 
ATOM      8  C   UNL     1       0.975   1.362  19.431  0.00  0.00    +0.000 C 
ATOM      9  C   UNL     1       1.813   3.819  19.535  0.00  0.00    +0.000 A 
ATOM     10  C   UNL     1       0.457   4.377  19.819  0.00  0.00    +0.000 C 
ATOM     11  C   UNL     1       3.070   4.571  19.381  0.00  0.00    +0.000 A 
ENDROOT
BRANCH   1  19
ATOM     12  C   UNL     1       0.986  11.617  19.931  0.00  0.00    +0.000 A 
ATOM     13  C   UNL     1       0.635  10.491  20.690  0.00  0.00    +0.000 A 
ATOM     14  C   UNL     1       0.897   9.209  20.212  0.00  0.00    +0.000 A 
ATOM     15  C   UNL     1       1.513   9.034  18.962  0.00  0.00    +0.000 A 
ATOM     16  C   UNL     1       1.830  10.155  18.187  0.00  0.00    +0.000 A 
ATOM     17  C   UNL     1       1.589  11.454  18.668  0.00  0.00    +0.000 A 
ATOM     18  C   UNL     1       1.916   7.622  18.572  0.00  0.00    +0.000 C 
ATOM     19  N   UNL     1       2.631   7.032  19.711  0.00  0.00    +0.000 N 
ATOM     20  C   UNL     1       2.012   7.184  21.038  0.00  0.00    +0.000 C 
ATOM     21  C   UNL     1       0.684   7.960  21.027  0.00  0.00    +0.000 C 
BRANCH  12  23
ATOM     22  C   UNL     1      -0.173  12.773  21.668  0.00  0.00    +0.000 C 
ATOM     23  O   UNL     1       0.761  12.797  20.601  0.00  0.00    +0.000 OA
ENDBRANCH  12  23
BRANCH  17  24
ATOM     24  O   UNL     1       1.968  12.583  17.990  0.00  0.00    +0.000 OA
ATOM     25  C   UNL     1       3.113  13.289  18.447  0.00  0.00    +0.000 C 
ENDBRANCH  17  24
ENDBRANCH   1  19
BRANCH   3  26
ATOM     26  C   UNL     1       7.170   5.586  18.876  0.00  0.00    +0.000 C 
BRANCH  26  27
ATOM     27  N   UNL     1       7.702   5.736  17.502  0.00  0.00    +0.000 NA
ATOM     28  C   UNL     1       7.106   6.836  16.742  0.00  0.00    +0.000 C 
ATOM     29  C   UNL     1       5.972   6.225  15.940  0.00  0.00    +0.000 C 
ATOM     30  C   UNL     1       6.402   4.785  15.714  0.00  0.00    +0.000 C 
ATOM     31  C   UNL     1       7.546   4.532  16.688  0.00  0.00    +0.000 C 
ENDBRANCH  26  27
ENDBRANCH   3  26
TORSDOF 5
ENDMDL
MODEL 7
REMARK VINA RESULT:      -6.9      1.545      2.041
REMARK  Name = 
REMARK  9 active torsions:
REMARK  status: ('A' for Active; 'I' for Inactive)
REMARK    1  A    between atoms: C_1  and  O_2
REMARK    2  A    between atoms: O_2  and  C_3
REMARK    3  A    between atoms: C_8  and  O_9
REMARK    4  A    between atoms: O_9  and  C_10
REMARK    5  A    between atoms: N_12  and  C_13
REMARK    6  A    between atoms: C_15  and  C_16
REMARK    7  A    between atoms: C_16  and  N_17
REMARK    8  A    between atoms: C_25  and  C_26
REMARK    9  A    between atoms: C_27  and  C_28
REMARK                            x       y       z     vdW  Elec       q    Type
REMARK                         _______ _______ _______ _____ _____    ______ ____
ROOT
ATOM      1  C   UNL     1       3.073   6.706  18.397  0.00  0.00    +0.000 A 
ATOM      2  N   UNL     1       3.933   6.811  17.334  0.00  0.00    +0.000 NA
ATOM      3  C   UNL     1       4.617   5.741  16.876  0.00  0.00    +0.000 A 
ATOM      4  N   UNL     1       4.565   4.521  17.401  0.00  0.00    +0.000 NA
ATOM      5  C   UNL     1       3.746   4.423  18.452  0.00  0.00    +0.000 A 
ATOM      6  S   UNL     1       3.638   2.915  19.226  0.00  0.00    +0.000 S 
ATOM      7  C   UNL     1       2.523   3.504  20.360  0.00  0.00    +0.000 A 
ATOM      8  C   UNL     1       1.975   2.576  21.394  0.00  0.00    +0.000 C 
ATOM      9  C   UNL     1       2.252   4.857  20.183  0.00  0.00    +0.000 A 
ATOM     10  C   UNL     1       1.332   5.578  21.111  0.00  0.00    +0.000 C 
ATOM     11  C   UNL     1       2.964   5.418  19.021  0.00  0.00    +0.000 A 
ENDROOT
BRANCH   1  19
ATOM     12  C   UNL     1       1.610  12.604  19.664  0.00  0.00    +0.000 A 
ATOM     13  C   UNL     1       1.059  11.465  20.268  0.00  0.00    +0.000 A 
ATOM     14  C   UNL     1       1.100  10.233  19.618  0.00  0.00    +0.000 A 
ATOM     15  C   UNL     1       1.692  10.123  18.350  0.00  0.00    +0.000 A 
ATOM     16  C   UNL     1       2.211  11.266  17.730  0.00  0.00    +0.000 A 
ATOM     17  C   UNL     1       2.193  12.510  18.384  0.00  0.00    +0.000 A 
ATOM     18  C   UNL     1       1.849   8.728  17.769  0.00  0.00    +0.000 C 
ATOM     19  N   UNL     1       2.434   7.874  18.810  0.00  0.00    +0.000 N 
ATOM     20  C   UNL     1       1.834   7.952  20.152  0.00  0.00    +0.000 C 
ATOM     21  C   UNL     1       0.662   8.942  20.260  0.00  0.00    +0.000 C 
BRANCH  12  23
ATOM     22  C   UNL     1       0.469  14.572  20.386  0.00  0.00    +0.000 C 
ATOM     23  O   UNL     1       1.586  13.704  20.489  0.00  0.00    +0.000 OA
ENDBRANCH  12  23
BRANCH  17  24
ATOM     24  O   UNL     1       2.772  13.636  17.861  0.00  0.00    +0.000 OA
ATOM     25  C   UNL     1       4.046  14.028  18.354  0.00  0.00    +0.000 C 
ENDBRANCH  17  24
ENDBRANCH   1  19
BRANCH   3  26
ATOM     26  C   UNL     1       5.522   5.897  15.656  0.00  0.00    +0.000 C 
BRANCH  26  27
ATOM     27  N   UNL     1       6.471   4.815  15.309  0.00  0.00    +0.000 NA
ATOM     28  C   UNL     1       7.638   5.259  14.543  0.00  0.00    +0.000 C 
ATOM     29  C   UNL     1       7.286   5.043  13.083  0.00  0.00    +0.000 C 
ATOM     30  C   UNL     1       6.307   3.881  13.097  0.00  0.00    +0.000 C 
ATOM     31  C   UNL     1       5.858   3.730  14.545  0.00  0.00    +0.000 C 
ENDBRANCH  26  27
ENDBRANCH   3  26
TORSDOF 5
ENDMDL
MODEL 8
REMARK VINA RESULT:      -6.8      3.621      6.598
REMARK  Name = 
REMARK  9 active torsions:
REMARK  status: ('A' for Active; 'I' for Inactive)
REMARK    1  A    between atoms: C_1  and  O_2
REMARK    2  A    between atoms: O_2  and  C_3
REMARK    3  A    between atoms: C_8  and  O_9
REMARK    4  A    between atoms: O_9  and  C_10
REMARK    5  A    between atoms: N_12  and  C_13
REMARK    6  A    between atoms: C_15  and  C_16
REMARK    7  A    between atoms: C_16  and  N_17
REMARK    8  A    between atoms: C_25  and  C_26
REMARK    9  A    between atoms: C_27  and  C_28
REMARK                            x       y       z     vdW  Elec       q    Type
REMARK                         _______ _______ _______ _____ _____    ______ ____
ROOT
ATOM      1  C   UNL     1       1.411  11.660  18.797  0.00  0.00    +0.000 A 
ATOM      2  N   UNL     1       2.115  10.559  18.383  0.00  0.00    +0.000 NA
ATOM      3  C   UNL     1       1.488   9.448  17.940  0.00  0.00    +0.000 A 
ATOM      4  N   UNL     1       0.169   9.287  17.889  0.00  0.00    +0.000 NA
ATOM      5  C   UNL     1      -0.519  10.351  18.315  0.00  0.00    +0.000 A 
ATOM      6  S   UNL     1      -2.213  10.234  18.333  0.00  0.00    +0.000 S 
ATOM      7  C   UNL     1      -2.379  11.809  18.940  0.00  0.00    +0.000 A 
ATOM      8  C   UNL     1      -3.748  12.360  19.173  0.00  0.00    +0.000 C 
ATOM      9  C   UNL     1      -1.151  12.420  19.169  0.00  0.00    +0.000 A 
ATOM     10  C   UNL     1      -1.081  13.794  19.751  0.00  0.00    +0.000 C 
ATOM     11  C   UNL     1      -0.021  11.562  18.773  0.00  0.00    +0.000 A 
ENDROOT
BRANCH   1  19
ATOM     12  C   UNL     1       5.914  15.755  20.010  0.00  0.00    +0.000 A 
ATOM     13  C   UNL     1       4.747  15.559  20.762  0.00  0.00    +0.000 A 
ATOM     14  C   UNL     1       3.622  14.980  20.179  0.00  0.00    +0.000 A 
ATOM     15  C   UNL     1       3.648  14.588  18.831  0.00  0.00    +0.000 A 
ATOM     16  C   UNL     1       4.799  14.816  18.069  0.00  0.00    +0.000 A 
ATOM     17  C   UNL     1       5.947  15.382  18.651  0.00  0.00    +0.000 A 
ATOM     18  C   UNL     1       2.449  13.818  18.303  0.00  0.00    +0.000 C 
ATOM     19  N   UNL     1       2.151  12.746  19.260  0.00  0.00    +0.000 N 
ATOM     20  C   UNL     1       2.105  13.117  20.685  0.00  0.00    +0.000 C 
ATOM     21  C   UNL     1       2.386  14.604  20.956  0.00  0.00    +0.000 C 
BRANCH  12  23
ATOM     22  C   UNL     1       7.179  17.632  20.770  0.00  0.00    +0.000 C 
ATOM     23  O   UNL     1       6.958  16.230  20.769  0.00  0.00    +0.000 OA
ENDBRANCH  12  23
BRANCH  17  24
ATOM     24  O   UNL     1       7.128  15.538  17.974  0.00  0.00    +0.000 OA
ATOM     25  C   UNL     1       8.037  14.446  17.948  0.00  0.00    +0.000 C 
ENDBRANCH  17  24
ENDBRANCH   1  19
BRANCH   3  26
ATOM     26  C   UNL     1       2.317   8.268  17.440  0.00  0.00    +0.000 C 
BRANCH  26  27
ATOM     27  N   UNL     1       3.157   7.510  18.394  0.00  0.00    +0.000 NA
ATOM     28  C   UNL     1       3.922   6.418  17.788  0.00  0.00    +0.000 C 
ATOM     29  C   UNL     1       3.079   5.168  17.964  0.00  0.00    +0.000 C 
ATOM     30  C   UNL     1       2.271   5.432  19.224  0.00  0.00    +0.000 C 
ATOM     31  C   UNL     1       2.397   6.926  19.497  0.00  0.00    +0.000 C 
ENDBRANCH  26  27
ENDBRANCH   3  26
TORSDOF 5
ENDMDL
MODEL 9
REMARK VINA RESULT:      -6.8      4.722      9.082
REMARK  Name = 
REMARK  9 active torsions:
REMARK  status: ('A' for Active; 'I' for Inactive)
REMARK    1  A    between atoms: C_1  and  O_2
REMARK    2  A    between atoms: O_2  and  C_3
REMARK    3  A    between atoms: C_8  and  O_9
REMARK    4  A    between atoms: O_9  and  C_10
REMARK    5  A    between atoms: N_12  and  C_13
REMARK    6  A    between atoms: C_15  and  C_16
REMARK    7  A    between atoms: C_16  and  N_17
REMARK    8  A    between atoms: C_25  and  C_26
REMARK    9  A    between atoms: C_27  and  C_28
REMARK                            x       y       z     vdW  Elec       q    Type
REMARK                         _______ _______ _______ _____ _____    ______ ____
ROOT
ATOM      1  C   UNL     1      -0.145  10.561  18.811  0.00  0.00    +0.000 A 
ATOM      2  N   UNL     1      -1.186  10.318  17.952  0.00  0.00    +0.000 NA
ATOM      3  C   UNL     1      -1.913  11.326  17.424  0.00  0.00    +0.000 A 
ATOM      4  N   UNL     1      -1.732  12.616  17.691  0.00  0.00    +0.000 NA
ATOM      5  C   UNL     1      -0.733  12.853  18.546  0.00  0.00    +0.000 A 
ATOM      6  S   UNL     1      -0.446  14.467  18.990  0.00  0.00    +0.000 S 
ATOM      7  C   UNL     1       0.840  14.027  20.003  0.00  0.00    +0.000 A 
ATOM      8  C   UNL     1       1.592  15.093  20.732  0.00  0.00    +0.000 C 
ATOM      9  C   UNL     1       1.037  12.651  20.043  0.00  0.00    +0.000 A 
ATOM     10  C   UNL     1       2.090  12.056  20.918  0.00  0.00    +0.000 C 
ATOM     11  C   UNL     1       0.111  11.932  19.150  0.00  0.00    +0.000 A 
ENDROOT
BRANCH   1  19
ATOM     12  C   UNL     1       2.368   4.948  19.649  0.00  0.00    +0.000 A 
ATOM     13  C   UNL     1       2.039   5.869  20.655  0.00  0.00    +0.000 A 
ATOM     14  C   UNL     1       1.927   7.225  20.359  0.00  0.00    +0.000 A 
ATOM     15  C   UNL     1       2.144   7.683  19.050  0.00  0.00    +0.000 A 
ATOM     16  C   UNL     1       2.508   6.771  18.052  0.00  0.00    +0.000 A 
ATOM     17  C   UNL     1       2.605   5.397  18.335  0.00  0.00    +0.000 A 
ATOM     18  C   UNL     1       1.848   9.145  18.761  0.00  0.00    +0.000 C 
ATOM     19  N   UNL     1       0.526   9.451  19.320  0.00  0.00    +0.000 N 
ATOM     20  C   UNL     1       0.262   8.997  20.696  0.00  0.00    +0.000 C 
ATOM     21  C   UNL     1       1.438   8.251  21.349  0.00  0.00    +0.000 C 
BRANCH  12  23
ATOM     22  C   UNL     1       1.718   3.403  21.350  0.00  0.00    +0.000 C 
ATOM     23  O   UNL     1       2.323   3.646  20.089  0.00  0.00    +0.000 OA
ENDBRANCH  12  23
BRANCH  17  24
ATOM     24  O   UNL     1       2.863   4.455  17.374  0.00  0.00    +0.000 OA
ATOM     25  C   UNL     1       4.216   4.081  17.146  0.00  0.00    +0.000 C 
ENDBRANCH  17  24
ENDBRANCH   1  19
BRANCH   3  26
ATOM     26  C   UNL     1      -3.028  11.007  16.432  0.00  0.00    +0.000 C 
BRANCH  26  27
ATOM     27  N   UNL     1      -4.393  10.730  16.933  0.00  0.00    +0.000 NA
ATOM     28  C   UNL     1      -5.349  11.818  16.710  0.00  0.00    +0.000 C 
ATOM     29  C   UNL     1      -5.347  12.643  17.984  0.00  0.00    +0.000 C 
ATOM     30  C   UNL     1      -4.982  11.652  19.076  0.00  0.00    +0.000 C 
ATOM     31  C   UNL     1      -4.434  10.423  18.361  0.00  0.00    +0.000 C 
ENDBRANCH  26  27
ENDBRANCH   3  26
TORSDOF 5
ENDMDL
