MODEL 1
REMARK VINA RESULT:      -8.7      0.000      0.000
REMARK  Name = 
REMARK  4 active torsions:
REMARK  status: ('A' for Active; 'I' for Inactive)
REMARK    1  A    between atoms: C_1  and  C_2
REMARK    2  A    between atoms: N_5  and  S_6
REMARK    3  A    between atoms: S_6  and  C_9
REMARK    4  A    between atoms: C_13  and  C_14
REMARK                            x       y       z     vdW  Elec       q    Type
REMARK                         _______ _______ _______ _____ _____    ______ ____
ROOT
ATOM      1  C   UNL     1       5.188   5.235  17.883  0.00  0.00    +0.000 A 
ATOM      2  C   UNL     1       6.181   5.134  18.840  0.00  0.00    +0.000 A 
ATOM      3  C   UNL     1       7.470   4.910  18.386  0.00  0.00    +0.000 A 
ATOM      4  C   UNL     1       7.705   4.770  17.015  0.00  0.00    +0.000 A 
ATOM      5  C   UNL     1       6.641   4.868  16.110  0.00  0.00    +0.000 A 
ATOM      6  N   UNL     1       5.381   5.116  16.540  0.00  0.00    +0.000 NA
ENDROOT
BRANCH   5   7
ATOM      7  C   UNL     1       6.797   4.647  14.655  0.00  0.00    +0.000 A 
ATOM      8  C   UNL     1       7.731   5.399  13.912  0.00  0.00    +0.000 A 
ATOM      9  C   UNL     1       7.858   5.253  12.527  0.00  0.00    +0.000 A 
ATOM     10  C   UNL     1       7.056   4.342  11.847  0.00  0.00    +0.000 A 
ATOM     11  C   UNL     1       6.141   3.574  12.561  0.00  0.00    +0.000 A 
ATOM     12 CL   UNL     1       5.146   2.443  11.727  0.00  0.00    +0.000 Cl
ATOM     13  C   UNL     1       6.014   3.717  13.946  0.00  0.00    +0.000 A 
ENDBRANCH   5   7
BRANCH   1  14
ATOM     14  S   UNL     1       3.479   5.449  18.377  0.00  0.00    +0.000 S 
ATOM     15  O   UNL     1       2.902   6.469  17.521  0.00  0.00    +0.000 OA
ATOM     16  O   UNL     1       3.430   5.610  19.815  0.00  0.00    +0.000 OA
BRANCH  14  21
ATOM     17  C   UNL     1       1.594   2.529  21.810  0.00  0.00    +0.000 C 
ATOM     18  C   UNL     1       1.699   2.515  20.285  0.00  0.00    +0.000 C 
ATOM     19  C   UNL     1       3.176   2.450  19.867  0.00  0.00    +0.000 C 
ATOM     20  C   UNL     1       3.368   2.702  18.381  0.00  0.00    +0.000 C 
ATOM     21  N   UNL     1       2.724   3.965  17.949  0.00  0.00    +0.000 NA
ATOM     22  C   UNL     1       1.258   3.922  18.203  0.00  0.00    +0.000 C 
ATOM     23  C   UNL     1       0.960   3.725  19.688  0.00  0.00    +0.000 C 
ENDBRANCH  14  21
ENDBRANCH   1  14
TORSDOF 3
ENDMDL
MODEL 2
REMARK VINA RESULT:      -8.5      1.480      1.766
REMARK  Name = 
REMARK  4 active torsions:
REMARK  status: ('A' for Active; 'I' for Inactive)
REMARK    1  A    between atoms: C_1  and  C_2
REMARK    2  A    between atoms: N_5  and  S_6
REMARK    3  A    between atoms: S_6  and  C_9
REMARK    4  A    between atoms: C_13  and  C_14
REMARK                            x       y       z     vdW  Elec       q    Type
REMARK                         _______ _______ _______ _____ _____    ______ ____
ROOT
ATOM      1  C   UNL     1       5.420   4.414  17.838  0.00  0.00    +0.000 A 
ATOM      2  C   UNL     1       6.119   5.310  18.625  0.00  0.00    +0.000 A 
ATOM      3  C   UNL     1       7.062   6.102  17.989  0.00  0.00    +0.000 A 
ATOM      4  C   UNL     1       7.283   5.946  16.618  0.00  0.00    +0.000 A 
ATOM      5  C   UNL     1       6.545   5.001  15.894  0.00  0.00    +0.000 A 
ATOM      6  N   UNL     1       5.600   4.243  16.499  0.00  0.00    +0.000 NA
ENDROOT
BRANCH   5   7
ATOM      7  C   UNL     1       6.781   4.720  14.461  0.00  0.00    +0.000 A 
ATOM      8  C   UNL     1       7.700   5.492  13.720  0.00  0.00    +0.000 A 
ATOM      9  C   UNL     1       7.900   5.287  12.351  0.00  0.00    +0.000 A 
ATOM     10  C   UNL     1       7.187   4.296  11.686  0.00  0.00    +0.000 A 
ATOM     11  C   UNL     1       6.289   3.507  12.398  0.00  0.00    +0.000 A 
ATOM     12 CL   UNL     1       5.404   2.276  11.582  0.00  0.00    +0.000 Cl
ATOM     13  C   UNL     1       6.090   3.709  13.767  0.00  0.00    +0.000 A 
ENDBRANCH   5   7
BRANCH   1  14
ATOM     14  S   UNL     1       4.235   3.295  18.582  0.00  0.00    +0.000 S 
ATOM     15  O   UNL     1       4.709   2.984  19.919  0.00  0.00    +0.000 OA
ATOM     16  O   UNL     1       3.965   2.220  17.650  0.00  0.00    +0.000 OA
BRANCH  14  21
ATOM     17  C   UNL     1       1.095   2.385  22.213  0.00  0.00    +0.000 C 
ATOM     18  C   UNL     1       1.206   3.403  21.078  0.00  0.00    +0.000 C 
ATOM     19  C   UNL     1       1.133   2.682  19.724  0.00  0.00    +0.000 C 
ATOM     20  C   UNL     1       1.502   3.591  18.564  0.00  0.00    +0.000 C 
ATOM     21  N   UNL     1       2.815   4.245  18.774  0.00  0.00    +0.000 NA
ATOM     22  C   UNL     1       2.794   5.084  20.002  0.00  0.00    +0.000 C 
ATOM     23  C   UNL     1       2.483   4.246  21.240  0.00  0.00    +0.000 C 
ENDBRANCH  14  21
ENDBRANCH   1  14
TORSDOF 3
ENDMDL
MODEL 3
REMARK VINA RESULT:      -7.9      5.685      8.350
REMARK  Name = 
REMARK  4 active torsions:
REMARK  status: ('A' for Active; 'I' for Inactive)
REMARK    1  A    between atoms: C_1  and  C_2
REMARK    2  A    between atoms: N_5  and  S_6
REMARK    3  A    between atoms: S_6  and  C_9
REMARK    4  A    between atoms: C_13  and  C_14
REMARK                            x       y       z     vdW  Elec       q    Type
REMARK                         _______ _______ _______ _____ _____    ______ ____
ROOT
ATOM      1  C   UNL     1       2.284   7.331  19.186  0.00  0.00    +0.000 A 
ATOM      2  C   UNL     1       2.545   7.872  17.941  0.00  0.00    +0.000 A 
ATOM      3  C   UNL     1       2.110   9.169  17.716  0.00  0.00    +0.000 A 
ATOM      4  C   UNL     1       1.417   9.849  18.722  0.00  0.00    +0.000 A 
ATOM      5  C   UNL     1       1.176   9.223  19.951  0.00  0.00    +0.000 A 
ATOM      6  N   UNL     1       1.622   7.967  20.192  0.00  0.00    +0.000 NA
ENDROOT
BRANCH   5   7
ATOM      7  C   UNL     1       0.378   9.845  21.029  0.00  0.00    +0.000 A 
ATOM      8  C   UNL     1       0.302   9.245  22.304  0.00  0.00    +0.000 A 
ATOM      9  C   UNL     1      -0.491   9.779  23.324  0.00  0.00    +0.000 A 
ATOM     10  C   UNL     1      -1.228  10.937  23.097  0.00  0.00    +0.000 A 
ATOM     11  C   UNL     1      -1.155  11.560  21.855  0.00  0.00    +0.000 A 
ATOM     12 CL   UNL     1      -2.062  12.994  21.567  0.00  0.00    +0.000 Cl
ATOM     13  C   UNL     1      -0.360  11.028  20.835  0.00  0.00    +0.000 A 
ENDBRANCH   5   7
BRANCH   1  14
ATOM     14  S   UNL     1       2.741   5.636  19.545  0.00  0.00    +0.000 S 
ATOM     15  O   UNL     1       1.947   5.202  20.680  0.00  0.00    +0.000 OA
ATOM     16  O   UNL     1       4.185   5.550  19.606  0.00  0.00    +0.000 OA
BRANCH  14  21
ATOM     17  C   UNL     1       4.037   0.970  18.908  0.00  0.00    +0.000 C 
ATOM     18  C   UNL     1       3.155   1.980  18.175  0.00  0.00    +0.000 C 
ATOM     19  C   UNL     1       4.014   3.151  17.673  0.00  0.00    +0.000 C 
ATOM     20  C   UNL     1       3.172   4.313  17.174  0.00  0.00    +0.000 C 
ATOM     21  N   UNL     1       2.179   4.747  18.186  0.00  0.00    +0.000 NA
ATOM     22  C   UNL     1       1.246   3.637  18.516  0.00  0.00    +0.000 C 
ATOM     23  C   UNL     1       1.996   2.432  19.080  0.00  0.00    +0.000 C 
ENDBRANCH  14  21
ENDBRANCH   1  14
TORSDOF 3
ENDMDL
MODEL 4
REMARK VINA RESULT:      -7.8      1.115      1.494
REMARK  Name = 
REMARK  4 active torsions:
REMARK  status: ('A' for Active; 'I' for Inactive)
REMARK    1  A    between atoms: C_1  and  C_2
REMARK    2  A    between atoms: N_5  and  S_6
REMARK    3  A    between atoms: S_6  and  C_9
REMARK    4  A    between atoms: C_13  and  C_14
REMARK                            x       y       z     vdW  Elec       q    Type
REMARK                         _______ _______ _______ _____ _____    ______ ____
ROOT
ATOM      1  C   UNL     1       5.061   5.307  18.097  0.00  0.00    +0.000 A 
ATOM      2  C   UNL     1       6.068   5.223  19.041  0.00  0.00    +0.000 A 
ATOM      3  C   UNL     1       7.355   5.021  18.569  0.00  0.00    +0.000 A 
ATOM      4  C   UNL     1       7.574   4.885  17.195  0.00  0.00    +0.000 A 
ATOM      5  C   UNL     1       6.496   4.964  16.305  0.00  0.00    +0.000 A 
ATOM      6  N   UNL     1       5.238   5.191  16.752  0.00  0.00    +0.000 NA
ENDROOT
BRANCH   5   7
ATOM      7  C   UNL     1       6.636   4.746  14.848  0.00  0.00    +0.000 A 
ATOM      8  C   UNL     1       5.998   3.655  14.222  0.00  0.00    +0.000 A 
ATOM      9  C   UNL     1       6.161   3.391  12.858  0.00  0.00    +0.000 A 
ATOM     10  C   UNL     1       6.964   4.218  12.080  0.00  0.00    +0.000 A 
ATOM     11  C   UNL     1       7.588   5.313  12.671  0.00  0.00    +0.000 A 
ATOM     12 CL   UNL     1       8.583   6.343  11.715  0.00  0.00    +0.000 Cl
ATOM     13  C   UNL     1       7.425   5.579  14.034  0.00  0.00    +0.000 A 
ENDBRANCH   5   7
BRANCH   1  14
ATOM     14  S   UNL     1       3.355   5.492  18.614  0.00  0.00    +0.000 S 
ATOM     15  O   UNL     1       2.757   6.520  17.782  0.00  0.00    +0.000 OA
ATOM     16  O   UNL     1       3.322   5.628  20.055  0.00  0.00    +0.000 OA
BRANCH  14  21
ATOM     17  C   UNL     1       1.555   2.487  22.019  0.00  0.00    +0.000 C 
ATOM     18  C   UNL     1       1.639   2.502  20.493  0.00  0.00    +0.000 C 
ATOM     19  C   UNL     1       3.111   2.464  20.053  0.00  0.00    +0.000 C 
ATOM     20  C   UNL     1       3.279   2.745  18.570  0.00  0.00    +0.000 C 
ATOM     21  N   UNL     1       2.613   4.007  18.170  0.00  0.00    +0.000 NA
ATOM     22  C   UNL     1       1.152   3.940  18.443  0.00  0.00    +0.000 C 
ATOM     23  C   UNL     1       0.877   3.713  19.928  0.00  0.00    +0.000 C 
ENDBRANCH  14  21
ENDBRANCH   1  14
TORSDOF 3
ENDMDL
MODEL 5
REMARK VINA RESULT:      -7.7      1.766      2.198
REMARK  Name = 
REMARK  4 active torsions:
REMARK  status: ('A' for Active; 'I' for Inactive)
REMARK    1  A    between atoms: C_1  and  C_2
REMARK    2  A    between atoms: N_5  and  S_6
REMARK    3  A    between atoms: S_6  and  C_9
REMARK    4  A    between atoms: C_13  and  C_14
REMARK                            x       y       z     vdW  Elec       q    Type
REMARK                         _______ _______ _______ _____ _____    ______ ____
ROOT
ATOM      1  C   UNL     1       4.743   3.680  18.070  0.00  0.00    +0.000 A 
ATOM      2  C   UNL     1       5.260   4.591  18.973  0.00  0.00    +0.000 A 
ATOM      3  C   UNL     1       6.138   5.540  18.474  0.00  0.00    +0.000 A 
ATOM      4  C   UNL     1       6.479   5.520  17.118  0.00  0.00    +0.000 A 
ATOM      5  C   UNL     1       5.926   4.552  16.272  0.00  0.00    +0.000 A 
ATOM      6  N   UNL     1       5.044   3.638  16.742  0.00  0.00    +0.000 NA
ENDROOT
BRANCH   5   7
ATOM      7  C   UNL     1       6.303   4.415  14.849  0.00  0.00    +0.000 A 
ATOM      8  C   UNL     1       7.408   5.120  14.328  0.00  0.00    +0.000 A 
ATOM      9  C   UNL     1       7.752   5.055  12.974  0.00  0.00    +0.000 A 
ATOM     10  C   UNL     1       7.000   4.275  12.102  0.00  0.00    +0.000 A 
ATOM     11  C   UNL     1       5.917   3.554  12.595  0.00  0.00    +0.000 A 
ATOM     12 CL   UNL     1       4.982   2.583  11.523  0.00  0.00    +0.000 Cl
ATOM     13  C   UNL     1       5.573   3.615  13.949  0.00  0.00    +0.000 A 
ENDBRANCH   5   7
BRANCH   1  14
ATOM     14  S   UNL     1       3.659   2.369  18.634  0.00  0.00    +0.000 S 
ATOM     15  O   UNL     1       3.711   2.355  20.085  0.00  0.00    +0.000 OA
ATOM     16  O   UNL     1       3.969   1.164  17.894  0.00  0.00    +0.000 OA
BRANCH  14  21
ATOM     17  C   UNL     1       1.563   6.095  20.998  0.00  0.00    +0.000 C 
ATOM     18  C   UNL     1       1.190   5.174  19.836  0.00  0.00    +0.000 C 
ATOM     19  C   UNL     1       1.094   3.724  20.333  0.00  0.00    +0.000 C 
ATOM     20  C   UNL     1       0.991   2.727  19.190  0.00  0.00    +0.000 C 
ATOM     21  N   UNL     1       2.084   2.906  18.205  0.00  0.00    +0.000 NA
ATOM     22  C   UNL     1       2.036   4.267  17.607  0.00  0.00    +0.000 C 
ATOM     23  C   UNL     1       2.186   5.346  18.677  0.00  0.00    +0.000 C 
ENDBRANCH  14  21
ENDBRANCH   1  14
TORSDOF 3
ENDMDL
MODEL 6
REMARK VINA RESULT:      -7.7      0.977      1.578
REMARK  Name = 
REMARK  4 active torsions:
REMARK  status: ('A' for Active; 'I' for Inactive)
REMARK    1  A    between atoms: C_1  and  C_2
REMARK    2  A    between atoms: N_5  and  S_6
REMARK    3  A    between atoms: S_6  and  C_9
REMARK    4  A    between atoms: C_13  and  C_14
REMARK                            x       y       z     vdW  Elec       q    Type
REMARK                         _______ _______ _______ _____ _____    ______ ____
ROOT
ATOM      1  C   UNL     1       5.124   5.517  17.989  0.00  0.00    +0.000 A 
ATOM      2  C   UNL     1       6.131   5.491  18.936  0.00  0.00    +0.000 A 
ATOM      3  C   UNL     1       7.420   5.272  18.476  0.00  0.00    +0.000 A 
ATOM      4  C   UNL     1       7.640   5.062  17.112  0.00  0.00    +0.000 A 
ATOM      5  C   UNL     1       6.562   5.086  16.218  0.00  0.00    +0.000 A 
ATOM      6  N   UNL     1       5.302   5.328  16.652  0.00  0.00    +0.000 NA
ENDROOT
BRANCH   5   7
ATOM      7  C   UNL     1       6.705   4.789  14.776  0.00  0.00    +0.000 A 
ATOM      8  C   UNL     1       7.772   5.335  14.033  0.00  0.00    +0.000 A 
ATOM      9  C   UNL     1       7.898   5.120  12.657  0.00  0.00    +0.000 A 
ATOM     10  C   UNL     1       6.959   4.342  11.986  0.00  0.00    +0.000 A 
ATOM     11  C   UNL     1       5.908   3.775  12.701  0.00  0.00    +0.000 A 
ATOM     12 CL   UNL     1       4.743   2.810  11.878  0.00  0.00    +0.000 Cl
ATOM     13  C   UNL     1       5.782   3.988  14.077  0.00  0.00    +0.000 A 
ENDBRANCH   5   7
BRANCH   1  14
ATOM     14  S   UNL     1       3.417   5.719  18.495  0.00  0.00    +0.000 S 
ATOM     15  O   UNL     1       2.591   5.012  17.533  0.00  0.00    +0.000 OA
ATOM     16  O   UNL     1       3.174   7.123  18.752  0.00  0.00    +0.000 OA
BRANCH  14  21
ATOM     17  C   UNL     1       0.367   1.928  18.927  0.00  0.00    +0.000 C 
ATOM     18  C   UNL     1       1.387   2.632  19.822  0.00  0.00    +0.000 C 
ATOM     19  C   UNL     1       0.942   4.081  20.075  0.00  0.00    +0.000 C 
ATOM     20  C   UNL     1       2.032   4.914  20.729  0.00  0.00    +0.000 C 
ATOM     21  N   UNL     1       3.304   4.847  19.972  0.00  0.00    +0.000 NA
ATOM     22  C   UNL     1       3.802   3.447  19.903  0.00  0.00    +0.000 C 
ATOM     23  C   UNL     1       2.793   2.535  19.208  0.00  0.00    +0.000 C 
ENDBRANCH  14  21
ENDBRANCH   1  14
TORSDOF 3
ENDMDL
MODEL 7
REMARK VINA RESULT:      -7.6      1.501      1.996
REMARK  Name = 
REMARK  4 active torsions:
REMARK  status: ('A' for Active; 'I' for Inactive)
REMARK    1  A    between atoms: C_1  and  C_2
REMARK    2  A    between atoms: N_5  and  S_6
REMARK    3  A    between atoms: S_6  and  C_9
REMARK    4  A    between atoms: C_13  and  C_14
REMARK                            x       y       z     vdW  Elec       q    Type
REMARK                         _______ _______ _______ _____ _____    ______ ____
ROOT
ATOM      1  C   UNL     1       5.774   4.698  18.054  0.00  0.00    +0.000 A 
ATOM      2  C   UNL     1       6.480   5.660  18.752  0.00  0.00    +0.000 A 
ATOM      3  C   UNL     1       7.348   6.455  18.020  0.00  0.00    +0.000 A 
ATOM      4  C   UNL     1       7.491   6.239  16.647  0.00  0.00    +0.000 A 
ATOM      5  C   UNL     1       6.752   5.230  16.017  0.00  0.00    +0.000 A 
ATOM      6  N   UNL     1       5.879   4.466  16.716  0.00  0.00    +0.000 NA
ENDROOT
BRANCH   5   7
ATOM      7  C   UNL     1       6.912   4.887  14.587  0.00  0.00    +0.000 A 
ATOM      8  C   UNL     1       7.834   5.585  13.780  0.00  0.00    +0.000 A 
ATOM      9  C   UNL     1       7.964   5.322  12.413  0.00  0.00    +0.000 A 
ATOM     10  C   UNL     1       7.177   4.342  11.816  0.00  0.00    +0.000 A 
ATOM     11  C   UNL     1       6.275   3.625  12.595  0.00  0.00    +0.000 A 
ATOM     12 CL   UNL     1       5.298   2.409  11.864  0.00  0.00    +0.000 Cl
ATOM     13  C   UNL     1       6.145   3.886  13.962  0.00  0.00    +0.000 A 
ENDBRANCH   5   7
BRANCH   1  14
ATOM     14  S   UNL     1       4.685   3.572  18.925  0.00  0.00    +0.000 S 
ATOM     15  O   UNL     1       5.398   3.095  20.096  0.00  0.00    +0.000 OA
ATOM     16  O   UNL     1       4.150   2.619  17.975  0.00  0.00    +0.000 OA
BRANCH  14  21
ATOM     17  C   UNL     1       0.060   2.000  18.863  0.00  0.00    +0.000 C 
ATOM     18  C   UNL     1       0.791   3.262  19.320  0.00  0.00    +0.000 C 
ATOM     19  C   UNL     1       1.445   3.950  18.112  0.00  0.00    +0.000 C 
ATOM     20  C   UNL     1       2.405   5.053  18.524  0.00  0.00    +0.000 C 
ATOM     21  N   UNL     1       3.411   4.571  19.500  0.00  0.00    +0.000 NA
ATOM     22  C   UNL     1       2.749   4.079  20.738  0.00  0.00    +0.000 C 
ATOM     23  C   UNL     1       1.797   2.923  20.434  0.00  0.00    +0.000 C 
ENDBRANCH  14  21
ENDBRANCH   1  14
TORSDOF 3
ENDMDL
MODEL 8
REMARK VINA RESULT:      -7.5      4.434      7.479
REMARK  Name = 
REMARK  4 active torsions:
REMARK  status: ('A' for Active; 'I' for Inactive)
REMARK    1  A    between atoms: C_1  and  C_2
REMARK    2  A    between atoms: N_5  and  S_6
REMARK    3  A    between atoms: S_6  and  C_9
REMARK    4  A    between atoms: C_13  and  C_14
REMARK                            x       y       z     vdW  Elec       q    Type
REMARK                         _______ _______ _______ _____ _____    ______ ____
ROOT
ATOM      1  C   UNL     1       4.175   4.998  19.472  0.00  0.00    +0.000 A 
ATOM      2  C   UNL     1       3.610   3.821  19.928  0.00  0.00    +0.000 A 
ATOM      3  C   UNL     1       2.317   3.895  20.420  0.00  0.00    +0.000 A 
ATOM      4  C   UNL     1       1.663   5.130  20.461  0.00  0.00    +0.000 A 
ATOM      5  C   UNL     1       2.312   6.280  19.997  0.00  0.00    +0.000 A 
ATOM      6  N   UNL     1       3.565   6.216  19.487  0.00  0.00    +0.000 NA
ENDROOT
BRANCH   5   7
ATOM      7  C   UNL     1       1.719   7.633  20.086  0.00  0.00    +0.000 A 
ATOM      8  C   UNL     1       1.762   8.510  18.983  0.00  0.00    +0.000 A 
ATOM      9  C   UNL     1       1.262   9.814  19.058  0.00  0.00    +0.000 A 
ATOM     10  C   UNL     1       0.696  10.274  20.242  0.00  0.00    +0.000 A 
ATOM     11  C   UNL     1       0.622   9.421  21.339  0.00  0.00    +0.000 A 
ATOM     12 CL   UNL     1      -0.079   9.982  22.808  0.00  0.00    +0.000 Cl
ATOM     13  C   UNL     1       1.120   8.116  21.265  0.00  0.00    +0.000 A 
ENDBRANCH   5   7
BRANCH   1  14
ATOM     14  S   UNL     1       5.869   5.017  18.888  0.00  0.00    +0.000 S 
ATOM     15  O   UNL     1       6.112   3.755  18.213  0.00  0.00    +0.000 OA
ATOM     16  O   UNL     1       6.730   5.421  19.981  0.00  0.00    +0.000 OA
BRANCH  14  21
ATOM     17  C   UNL     1       6.286   3.829  14.168  0.00  0.00    +0.000 C 
ATOM     18  C   UNL     1       6.125   5.120  14.972  0.00  0.00    +0.000 C 
ATOM     19  C   UNL     1       7.346   5.319  15.883  0.00  0.00    +0.000 C 
ATOM     20  C   UNL     1       7.135   6.429  16.898  0.00  0.00    +0.000 C 
ATOM     21  N   UNL     1       5.888   6.235  17.675  0.00  0.00    +0.000 NA
ATOM     22  C   UNL     1       4.703   6.229  16.776  0.00  0.00    +0.000 C 
ATOM     23  C   UNL     1       4.796   5.105  15.746  0.00  0.00    +0.000 C 
ENDBRANCH  14  21
ENDBRANCH   1  14
TORSDOF 3
ENDMDL
MODEL 9
REMARK VINA RESULT:      -7.5      4.397      7.224
REMARK  Name = 
REMARK  4 active torsions:
REMARK  status: ('A' for Active; 'I' for Inactive)
REMARK    1  A    between atoms: C_1  and  C_2
REMARK    2  A    between atoms: N_5  and  S_6
REMARK    3  A    between atoms: S_6  and  C_9
REMARK    4  A    between atoms: C_13  and  C_14
REMARK                            x       y       z     vdW  Elec       q    Type
REMARK                         _______ _______ _______ _____ _____    ______ ____
ROOT
ATOM      1  C   UNL     1       3.398   4.728  19.378  0.00  0.00    +0.000 A 
ATOM      2  C   UNL     1       2.861   4.003  20.425  0.00  0.00    +0.000 A 
ATOM      3  C   UNL     1       1.863   4.615  21.166  0.00  0.00    +0.000 A 
ATOM      4  C   UNL     1       1.469   5.919  20.850  0.00  0.00    +0.000 A 
ATOM      5  C   UNL     1       2.076   6.593  19.784  0.00  0.00    +0.000 A 
ATOM      6  N   UNL     1       3.032   5.995  19.034  0.00  0.00    +0.000 NA
ENDROOT
BRANCH   5   7
ATOM      7  C   UNL     1       1.773   8.001  19.444  0.00  0.00    +0.000 A 
ATOM      8  C   UNL     1       2.162   8.538  18.198  0.00  0.00    +0.000 A 
ATOM      9  C   UNL     1       1.941   9.880  17.874  0.00  0.00    +0.000 A 
ATOM     10  C   UNL     1       1.317  10.723  18.787  0.00  0.00    +0.000 A 
ATOM     11  C   UNL     1       0.906  10.212  20.015  0.00  0.00    +0.000 A 
ATOM     12 CL   UNL     1       0.130  11.248  21.151  0.00  0.00    +0.000 Cl
ATOM     13  C   UNL     1       1.124   8.870  20.340  0.00  0.00    +0.000 A 
ENDBRANCH   5   7
BRANCH   1  14
ATOM     14  S   UNL     1       4.745   4.051  18.410  0.00  0.00    +0.000 S 
ATOM     15  O   UNL     1       4.174   3.494  17.197  0.00  0.00    +0.000 OA
ATOM     16  O   UNL     1       5.556   3.214  19.269  0.00  0.00    +0.000 OA
BRANCH  14  21
ATOM     17  C   UNL     1       6.736   4.302  13.956  0.00  0.00    +0.000 C 
ATOM     18  C   UNL     1       6.663   5.207  15.185  0.00  0.00    +0.000 C 
ATOM     19  C   UNL     1       7.374   4.533  16.369  0.00  0.00    +0.000 C 
ATOM     20  C   UNL     1       7.111   5.248  17.684  0.00  0.00    +0.000 C 
ATOM     21  N   UNL     1       5.661   5.426  17.934  0.00  0.00    +0.000 NA
ATOM     22  C   UNL     1       5.037   6.241  16.857  0.00  0.00    +0.000 C 
ATOM     23  C   UNL     1       5.202   5.574  15.493  0.00  0.00    +0.000 C 
ENDBRANCH  14  21
ENDBRANCH   1  14
TORSDOF 3
ENDMDL
