MODEL 1
REMARK VINA RESULT:      -7.6      0.000      0.000
REMARK  Name = 
REMARK  5 active torsions:
REMARK  status: ('A' for Active; 'I' for Inactive)
REMARK    1  A    between atoms: C_2  and  C_13
REMARK    2  A    between atoms: N_3  and  C_4
REMARK    3  A    between atoms: C_4  and  C_5
REMARK    4  A    between atoms: C_5  and  N_6
REMARK    5  A    between atoms: C_17  and  C_19
REMARK                            x       y       z     vdW  Elec       q    Type
REMARK                         _______ _______ _______ _____ _____    ______ ____
ROOT
ATOM      1  O   UNL     1       7.671   5.402  17.271  0.00  0.00    +0.000 OA
ATOM      2  C   UNL     1       6.805   6.238  17.048  0.00  0.00    +0.000 C 
ATOM      3  N   UNL     1       6.986   7.585  17.292  0.00  0.00    +0.000 N 
ATOM      4  H   UNL     1       6.162   8.171  17.343  0.00  0.00    +0.000 HD
ENDROOT
BRANCH   2   5
ATOM      5  C   UNL     1       5.418   5.886  16.504  0.00  0.00    +0.000 C 
ATOM      6  C   UNL     1       4.324   6.789  17.095  0.00  0.00    +0.000 C 
ATOM      7  C   UNL     1       3.950   6.413  18.530  0.00  0.00    +0.000 C 
ATOM      8  N   UNL     1       3.650   4.987  18.648  0.00  0.00    +0.000 N 
ATOM      9  C   UNL     1       2.541   4.603  19.407  0.00  0.00    +0.000 C 
ATOM     10  O   UNL     1       1.768   5.417  19.908  0.00  0.00    +0.000 OA
ATOM     11  C   UNL     1       4.701   4.098  18.164  0.00  0.00    +0.000 C 
ATOM     12  C   UNL     1       5.061   4.410  16.714  0.00  0.00    +0.000 C 
BRANCH   9  13
ATOM     13  C   UNL     1       2.238   3.143  19.556  0.00  0.00    +0.000 C 
ATOM     14  C   UNL     1       0.927   2.663  20.139  0.00  0.00    +0.000 C 
ATOM     15  C   UNL     1       1.169   2.542  18.666  0.00  0.00    +0.000 C 
ENDBRANCH   9  13
ENDBRANCH   2   5
BRANCH   3  16
ATOM     16  C   UNL     1       8.200   8.091  17.921  0.00  0.00    +0.000 C 
BRANCH  16  17
ATOM     17  C   UNL     1       8.173   9.618  18.048  0.00  0.00    +0.000 C 
BRANCH  17  18
ATOM     18  N   UNL     1       9.105  10.083  19.062  0.00  0.00    +0.000 N 
ATOM     19  C   UNL     1       9.855  11.179  18.646  0.00  0.00    +0.000 A 
ATOM     20  N   UNL     1       9.321  12.084  17.812  0.00  0.00    +0.000 NA
ATOM     21  C   UNL     1      10.102  13.112  17.436  0.00  0.00    +0.000 A 
ATOM     22  C   UNL     1      11.397  13.270  17.857  0.00  0.00    +0.000 A 
ATOM     23  C   UNL     1      11.855  12.294  18.706  0.00  0.00    +0.000 A 
ATOM     24  N   UNL     1      11.111  11.242  19.105  0.00  0.00    +0.000 NA
ATOM     25  H   UNL     1       9.785   9.399  19.386  0.00  0.00    +0.000 HD
ENDBRANCH  17  18
ENDBRANCH  16  17
ENDBRANCH   3  16
TORSDOF 5
ENDMDL
MODEL 2
REMARK VINA RESULT:      -7.5      1.634      2.228
REMARK  Name = 
REMARK  5 active torsions:
REMARK  status: ('A' for Active; 'I' for Inactive)
REMARK    1  A    between atoms: C_2  and  C_13
REMARK    2  A    between atoms: N_3  and  C_4
REMARK    3  A    between atoms: C_4  and  C_5
REMARK    4  A    between atoms: C_5  and  N_6
REMARK    5  A    between atoms: C_17  and  C_19
REMARK                            x       y       z     vdW  Elec       q    Type
REMARK                         _______ _______ _______ _____ _____    ______ ____
ROOT
ATOM      1  O   UNL     1       7.299   6.324  15.967  0.00  0.00    +0.000 OA
ATOM      2  C   UNL     1       7.207   6.203  17.182  0.00  0.00    +0.000 C 
ATOM      3  N   UNL     1       7.522   7.222  18.060  0.00  0.00    +0.000 N 
ATOM      4  H   UNL     1       7.683   6.977  19.030  0.00  0.00    +0.000 HD
ENDROOT
BRANCH   2   5
ATOM      5  C   UNL     1       6.762   4.908  17.867  0.00  0.00    +0.000 C 
ATOM      6  C   UNL     1       5.911   4.030  16.937  0.00  0.00    +0.000 C 
ATOM      7  C   UNL     1       4.477   4.541  16.781  0.00  0.00    +0.000 C 
ATOM      8  N   UNL     1       3.853   4.782  18.081  0.00  0.00    +0.000 N 
ATOM      9  C   UNL     1       2.533   4.362  18.271  0.00  0.00    +0.000 C 
ATOM     10  O   UNL     1       1.911   3.731  17.420  0.00  0.00    +0.000 OA
ATOM     11  C   UNL     1       4.600   5.674  18.963  0.00  0.00    +0.000 C 
ATOM     12  C   UNL     1       6.021   5.164  19.184  0.00  0.00    +0.000 C 
BRANCH   9  13
ATOM     13  C   UNL     1       1.874   4.627  19.591  0.00  0.00    +0.000 C 
ATOM     14  C   UNL     1       0.774   3.733  20.120  0.00  0.00    +0.000 C 
ATOM     15  C   UNL     1       2.142   3.663  20.728  0.00  0.00    +0.000 C 
ENDBRANCH   9  13
ENDBRANCH   2   5
BRANCH   3  16
ATOM     16  C   UNL     1       8.077   8.487  17.594  0.00  0.00    +0.000 C 
BRANCH  16  17
ATOM     17  C   UNL     1       8.656   9.307  18.752  0.00  0.00    +0.000 C 
BRANCH  17  18
ATOM     18  N   UNL     1       9.297  10.521  18.274  0.00  0.00    +0.000 N 
ATOM     19  C   UNL     1       9.411  11.497  19.259  0.00  0.00    +0.000 A 
ATOM     20  N   UNL     1       9.596  11.143  20.541  0.00  0.00    +0.000 NA
ATOM     21  C   UNL     1       9.684  12.134  21.447  0.00  0.00    +0.000 A 
ATOM     22  C   UNL     1       9.591  13.462  21.125  0.00  0.00    +0.000 A 
ATOM     23  C   UNL     1       9.400  13.725  19.791  0.00  0.00    +0.000 A 
ATOM     24  N   UNL     1       9.299  12.766  18.848  0.00  0.00    +0.000 NA
ATOM     25  H   UNL     1       8.843  10.983  17.490  0.00  0.00    +0.000 HD
ENDBRANCH  17  18
ENDBRANCH  16  17
ENDBRANCH   3  16
TORSDOF 5
ENDMDL
MODEL 3
REMARK VINA RESULT:      -7.3      1.365      1.758
REMARK  Name = 
REMARK  5 active torsions:
REMARK  status: ('A' for Active; 'I' for Inactive)
REMARK    1  A    between atoms: C_2  and  C_13
REMARK    2  A    between atoms: N_3  and  C_4
REMARK    3  A    between atoms: C_4  and  C_5
REMARK    4  A    between atoms: C_5  and  N_6
REMARK    5  A    between atoms: C_17  and  C_19
REMARK                            x       y       z     vdW  Elec       q    Type
REMARK                         _______ _______ _______ _____ _____    ______ ____
ROOT
ATOM      1  O   UNL     1       7.497   6.306  15.988  0.00  0.00    +0.000 OA
ATOM      2  C   UNL     1       7.154   6.192  17.157  0.00  0.00    +0.000 C 
ATOM      3  N   UNL     1       7.144   7.254  18.040  0.00  0.00    +0.000 N 
ATOM      4  H   UNL     1       7.114   7.045  19.031  0.00  0.00    +0.000 HD
ENDROOT
BRANCH   2   5
ATOM      5  C   UNL     1       6.728   4.861  17.782  0.00  0.00    +0.000 C 
ATOM      6  C   UNL     1       5.880   4.019  16.815  0.00  0.00    +0.000 C 
ATOM      7  C   UNL     1       4.440   4.521  16.693  0.00  0.00    +0.000 C 
ATOM      8  N   UNL     1       3.821   4.692  18.007  0.00  0.00    +0.000 N 
ATOM      9  C   UNL     1       2.508   4.249  18.184  0.00  0.00    +0.000 C 
ATOM     10  O   UNL     1       1.887   3.652  17.308  0.00  0.00    +0.000 OA
ATOM     11  C   UNL     1       4.564   5.549  18.926  0.00  0.00    +0.000 C 
ATOM     12  C   UNL     1       5.992   5.045  19.114  0.00  0.00    +0.000 C 
BRANCH   9  13
ATOM     13  C   UNL     1       1.854   4.443  19.519  0.00  0.00    +0.000 C 
ATOM     14  C   UNL     1       0.793   3.492  20.026  0.00  0.00    +0.000 C 
ATOM     15  C   UNL     1       2.168   3.449  20.618  0.00  0.00    +0.000 C 
ENDBRANCH   9  13
ENDBRANCH   2   5
BRANCH   3  16
ATOM     16  C   UNL     1       7.631   8.573  17.655  0.00  0.00    +0.000 C 
BRANCH  16  17
ATOM     17  C   UNL     1       8.932   8.926  18.384  0.00  0.00    +0.000 C 
BRANCH  17  18
ATOM     18  N   UNL     1       8.759  10.085  19.245  0.00  0.00    +0.000 N 
ATOM     19  C   UNL     1       9.828  10.973  19.179  0.00  0.00    +0.000 A 
ATOM     20  N   UNL     1      10.503  11.131  18.029  0.00  0.00    +0.000 NA
ATOM     21  C   UNL     1      11.535  11.993  18.034  0.00  0.00    +0.000 A 
ATOM     22  C   UNL     1      11.922  12.702  19.142  0.00  0.00    +0.000 A 
ATOM     23  C   UNL     1      11.173  12.472  20.269  0.00  0.00    +0.000 A 
ATOM     24  N   UNL     1      10.135  11.613  20.314  0.00  0.00    +0.000 NA
ATOM     25  H   UNL     1       8.635   9.887  20.235  0.00  0.00    +0.000 HD
ENDBRANCH  17  18
ENDBRANCH  16  17
ENDBRANCH   3  16
TORSDOF 5
ENDMDL
MODEL 4
REMARK VINA RESULT:      -7.2      1.653      2.181
REMARK  Name = 
REMARK  5 active torsions:
REMARK  status: ('A' for Active; 'I' for Inactive)
REMARK    1  A    between atoms: C_2  and  C_13
REMARK    2  A    between atoms: N_3  and  C_4
REMARK    3  A    between atoms: C_4  and  C_5
REMARK    4  A    between atoms: C_5  and  N_6
REMARK    5  A    between atoms: C_17  and  C_19
REMARK                            x       y       z     vdW  Elec       q    Type
REMARK                         _______ _______ _______ _____ _____    ______ ____
ROOT
ATOM      1  O   UNL     1       6.823   7.402  16.633  0.00  0.00    +0.000 OA
ATOM      2  C   UNL     1       7.492   7.082  17.608  0.00  0.00    +0.000 C 
ATOM      3  N   UNL     1       8.218   7.995  18.347  0.00  0.00    +0.000 N 
ATOM      4  H   UNL     1       8.945   7.639  18.956  0.00  0.00    +0.000 HD
ENDROOT
BRANCH   2   5
ATOM      5  C   UNL     1       7.623   5.639  18.100  0.00  0.00    +0.000 C 
ATOM      6  C   UNL     1       7.119   4.629  17.057  0.00  0.00    +0.000 C 
ATOM      7  C   UNL     1       5.592   4.557  16.986  0.00  0.00    +0.000 C 
ATOM      8  N   UNL     1       5.005   4.362  18.311  0.00  0.00    +0.000 N 
ATOM      9  C   UNL     1       3.963   3.440  18.445  0.00  0.00    +0.000 C 
ATOM     10  O   UNL     1       3.580   2.734  17.516  0.00  0.00    +0.000 OA
ATOM     11  C   UNL     1       5.405   5.350  19.308  0.00  0.00    +0.000 C 
ATOM     12  C   UNL     1       6.923   5.410  19.445  0.00  0.00    +0.000 C 
BRANCH   9  13
ATOM     13  C   UNL     1       3.336   3.252  19.794  0.00  0.00    +0.000 C 
ATOM     14  C   UNL     1       2.044   3.944  20.168  0.00  0.00    +0.000 C 
ATOM     15  C   UNL     1       2.037   2.476  19.873  0.00  0.00    +0.000 C 
ENDBRANCH   9  13
ENDBRANCH   2   5
BRANCH   3  16
ATOM     16  C   UNL     1       8.308   9.397  17.956  0.00  0.00    +0.000 C 
BRANCH  16  17
ATOM     17  C   UNL     1       9.221  10.186  18.901  0.00  0.00    +0.000 C 
BRANCH  17  18
ATOM     18  N   UNL     1       8.911  11.607  18.874  0.00  0.00    +0.000 N 
ATOM     19  C   UNL     1      10.017  12.397  18.577  0.00  0.00    +0.000 A 
ATOM     20  N   UNL     1      10.970  11.939  17.749  0.00  0.00    +0.000 NA
ATOM     21  C   UNL     1      12.020  12.746  17.514  0.00  0.00    +0.000 A 
ATOM     22  C   UNL     1      12.159  13.989  18.074  0.00  0.00    +0.000 A 
ATOM     23  C   UNL     1      11.135  14.368  18.906  0.00  0.00    +0.000 A 
ATOM     24  N   UNL     1      10.067  13.592  19.178  0.00  0.00    +0.000 NA
ATOM     25  H   UNL     1       8.528  11.992  19.734  0.00  0.00    +0.000 HD
ENDBRANCH  17  18
ENDBRANCH  16  17
ENDBRANCH   3  16
TORSDOF 5
ENDMDL
MODEL 5
REMARK VINA RESULT:      -7.1      1.099      1.404
REMARK  Name = 
REMARK  5 active torsions:
REMARK  status: ('A' for Active; 'I' for Inactive)
REMARK    1  A    between atoms: C_2  and  C_13
REMARK    2  A    between atoms: N_3  and  C_4
REMARK    3  A    between atoms: C_4  and  C_5
REMARK    4  A    between atoms: C_5  and  N_6
REMARK    5  A    between atoms: C_17  and  C_19
REMARK                            x       y       z     vdW  Elec       q    Type
REMARK                         _______ _______ _______ _____ _____    ______ ____
ROOT
ATOM      1  O   UNL     1       7.749   5.467  17.387  0.00  0.00    +0.000 OA
ATOM      2  C   UNL     1       6.934   6.298  17.007  0.00  0.00    +0.000 C 
ATOM      3  N   UNL     1       7.127   7.657  17.158  0.00  0.00    +0.000 N 
ATOM      4  H   UNL     1       6.319   8.261  17.075  0.00  0.00    +0.000 HD
ENDROOT
BRANCH   2   5
ATOM      5  C   UNL     1       5.600   5.928  16.353  0.00  0.00    +0.000 C 
ATOM      6  C   UNL     1       4.437   6.766  16.908  0.00  0.00    +0.000 C 
ATOM      7  C   UNL     1       3.981   6.310  18.295  0.00  0.00    +0.000 C 
ATOM      8  N   UNL     1       3.723   4.871  18.325  0.00  0.00    +0.000 N 
ATOM      9  C   UNL     1       2.579   4.416  18.987  0.00  0.00    +0.000 C 
ATOM     10  O   UNL     1       1.747   5.179  19.471  0.00  0.00    +0.000 OA
ATOM     11  C   UNL     1       4.836   4.040  17.875  0.00  0.00    +0.000 C 
ATOM     12  C   UNL     1       5.282   4.433  16.469  0.00  0.00    +0.000 C 
BRANCH   9  13
ATOM     13  C   UNL     1       2.319   2.941  19.047  0.00  0.00    +0.000 C 
ATOM     14  C   UNL     1       1.503   2.327  20.164  0.00  0.00    +0.000 C 
ATOM     15  C   UNL     1       0.905   2.456  18.796  0.00  0.00    +0.000 C 
ENDBRANCH   9  13
ENDBRANCH   2   5
BRANCH   3  16
ATOM     16  C   UNL     1       8.285   8.190  17.866  0.00  0.00    +0.000 C 
BRANCH  16  17
ATOM     17  C   UNL     1       8.125   9.686  18.156  0.00  0.00    +0.000 C 
BRANCH  17  18
ATOM     18  N   UNL     1       9.388  10.393  18.007  0.00  0.00    +0.000 N 
ATOM     19  C   UNL     1       9.652  11.258  19.065  0.00  0.00    +0.000 A 
ATOM     20  N   UNL     1       9.236  10.954  20.305  0.00  0.00    +0.000 NA
ATOM     21  C   UNL     1       9.510  11.838  21.280  0.00  0.00    +0.000 A 
ATOM     22  C   UNL     1      10.180  13.015  21.067  0.00  0.00    +0.000 A 
ATOM     23  C   UNL     1      10.562  13.238  19.768  0.00  0.00    +0.000 A 
ATOM     24  N   UNL     1      10.305  12.385  18.756  0.00  0.00    +0.000 NA
ATOM     25  H   UNL     1       9.483  10.958  17.167  0.00  0.00    +0.000 HD
ENDBRANCH  17  18
ENDBRANCH  16  17
ENDBRANCH   3  16
TORSDOF 5
ENDMDL
MODEL 6
REMARK VINA RESULT:      -7.1      4.784      8.134
REMARK  Name = 
REMARK  5 active torsions:
REMARK  status: ('A' for Active; 'I' for Inactive)
REMARK    1  A    between atoms: C_2  and  C_13
REMARK    2  A    between atoms: N_3  and  C_4
REMARK    3  A    between atoms: C_4  and  C_5
REMARK    4  A    between atoms: C_5  and  N_6
REMARK    5  A    between atoms: C_17  and  C_19
REMARK                            x       y       z     vdW  Elec       q    Type
REMARK                         _______ _______ _______ _____ _____    ______ ____
ROOT
ATOM      1  O   UNL     1       6.522   7.078  17.677  0.00  0.00    +0.000 OA
ATOM      2  C   UNL     1       5.759   6.155  17.422  0.00  0.00    +0.000 C 
ATOM      3  N   UNL     1       4.385   6.286  17.470  0.00  0.00    +0.000 N 
ATOM      4  H   UNL     1       3.830   5.440  17.515  0.00  0.00    +0.000 HD
ENDROOT
BRANCH   2   5
ATOM      5  C   UNL     1       6.236   4.748  17.052  0.00  0.00    +0.000 C 
ATOM      6  C   UNL     1       7.452   4.784  16.112  0.00  0.00    +0.000 C 
ATOM      7  C   UNL     1       7.080   5.131  14.669  0.00  0.00    +0.000 C 
ATOM      8  N   UNL     1       5.994   4.283  14.179  0.00  0.00    +0.000 N 
ATOM      9  C   UNL     1       6.092   3.761  12.886  0.00  0.00    +0.000 C 
ATOM     10  O   UNL     1       7.086   3.920  12.182  0.00  0.00    +0.000 OA
ATOM     11  C   UNL     1       4.794   4.285  15.010  0.00  0.00    +0.000 C 
ATOM     12  C   UNL     1       5.120   3.889  16.447  0.00  0.00    +0.000 C 
BRANCH   9  13
ATOM     13  C   UNL     1       4.973   2.912  12.364  0.00  0.00    +0.000 C 
ATOM     14  C   UNL     1       4.292   3.223  11.049  0.00  0.00    +0.000 C 
ATOM     15  C   UNL     1       5.235   2.063  11.137  0.00  0.00    +0.000 C 
ENDBRANCH   9  13
ENDBRANCH   2   5
BRANCH   3  16
ATOM     16  C   UNL     1       3.750   7.519  17.920  0.00  0.00    +0.000 C 
BRANCH  16  17
ATOM     17  C   UNL     1       2.476   7.235  18.721  0.00  0.00    +0.000 C 
BRANCH  17  18
ATOM     18  N   UNL     1       2.745   6.365  19.855  0.00  0.00    +0.000 N 
ATOM     19  C   UNL     1       2.136   5.119  19.738  0.00  0.00    +0.000 A 
ATOM     20  N   UNL     1       1.978   4.557  18.529  0.00  0.00    +0.000 NA
ATOM     21  C   UNL     1       1.369   3.359  18.482  0.00  0.00    +0.000 A 
ATOM     22  C   UNL     1       0.909   2.701  19.593  0.00  0.00    +0.000 A 
ATOM     23  C   UNL     1       1.115   3.355  20.782  0.00  0.00    +0.000 A 
ATOM     24  N   UNL     1       1.714   4.559  20.878  0.00  0.00    +0.000 NA
ATOM     25  H   UNL     1       2.458   6.720  20.764  0.00  0.00    +0.000 HD
ENDBRANCH  17  18
ENDBRANCH  16  17
ENDBRANCH   3  16
TORSDOF 5
ENDMDL
MODEL 7
REMARK VINA RESULT:      -7.1      5.235      7.187
REMARK  Name = 
REMARK  5 active torsions:
REMARK  status: ('A' for Active; 'I' for Inactive)
REMARK    1  A    between atoms: C_2  and  C_13
REMARK    2  A    between atoms: N_3  and  C_4
REMARK    3  A    between atoms: C_4  and  C_5
REMARK    4  A    between atoms: C_5  and  N_6
REMARK    5  A    between atoms: C_17  and  C_19
REMARK                            x       y       z     vdW  Elec       q    Type
REMARK                         _______ _______ _______ _____ _____    ______ ____
ROOT
ATOM      1  O   UNL     1       0.261   2.329  18.884  0.00  0.00    +0.000 OA
ATOM      2  C   UNL     1       1.441   2.627  19.018  0.00  0.00    +0.000 C 
ATOM      3  N   UNL     1       1.867   3.617  19.882  0.00  0.00    +0.000 N 
ATOM      4  H   UNL     1       2.799   3.991  19.748  0.00  0.00    +0.000 HD
ENDROOT
BRANCH   2   5
ATOM      5  C   UNL     1       2.571   1.964  18.227  0.00  0.00    +0.000 C 
ATOM      6  C   UNL     1       3.887   1.936  19.019  0.00  0.00    +0.000 C 
ATOM      7  C   UNL     1       4.592   3.294  19.052  0.00  0.00    +0.000 C 
ATOM      8  N   UNL     1       4.737   3.853  17.708  0.00  0.00    +0.000 N 
ATOM      9  C   UNL     1       5.956   4.441  17.363  0.00  0.00    +0.000 C 
ATOM     10  O   UNL     1       6.930   4.435  18.112  0.00  0.00    +0.000 OA
ATOM     11  C   UNL     1       3.492   3.963  16.954  0.00  0.00    +0.000 C 
ATOM     12  C   UNL     1       2.788   2.613  16.855  0.00  0.00    +0.000 C 
BRANCH   9  13
ATOM     13  C   UNL     1       6.108   5.041  15.998  0.00  0.00    +0.000 C 
ATOM     14  C   UNL     1       7.390   4.896  15.208  0.00  0.00    +0.000 C 
ATOM     15  C   UNL     1       6.184   4.102  14.811  0.00  0.00    +0.000 C 
ENDBRANCH   9  13
ENDBRANCH   2   5
BRANCH   3  16
ATOM     16  C   UNL     1       0.923   4.438  20.630  0.00  0.00    +0.000 C 
BRANCH  16  17
ATOM     17  C   UNL     1       1.563   5.751  21.092  0.00  0.00    +0.000 C 
BRANCH  17  18
ATOM     18  N   UNL     1       2.565   6.214  20.146  0.00  0.00    +0.000 N 
ATOM     19  C   UNL     1       2.208   7.404  19.519  0.00  0.00    +0.000 A 
ATOM     20  N   UNL     1       1.483   8.322  20.178  0.00  0.00    +0.000 NA
ATOM     21  C   UNL     1       1.159   9.445  19.512  0.00  0.00    +0.000 A 
ATOM     22  C   UNL     1       1.526   9.685  18.214  0.00  0.00    +0.000 A 
ATOM     23  C   UNL     1       2.263   8.689  17.624  0.00  0.00    +0.000 A 
ATOM     24  N   UNL     1       2.606   7.544  18.249  0.00  0.00    +0.000 NA
ATOM     25  H   UNL     1       2.794   5.571  19.392  0.00  0.00    +0.000 HD
ENDBRANCH  17  18
ENDBRANCH  16  17
ENDBRANCH   3  16
TORSDOF 5
ENDMDL
MODEL 8
REMARK VINA RESULT:      -7.1      1.296      1.534
REMARK  Name = 
REMARK  5 active torsions:
REMARK  status: ('A' for Active; 'I' for Inactive)
REMARK    1  A    between atoms: C_2  and  C_13
REMARK    2  A    between atoms: N_3  and  C_4
REMARK    3  A    between atoms: C_4  and  C_5
REMARK    4  A    between atoms: C_5  and  N_6
REMARK    5  A    between atoms: C_17  and  C_19
REMARK                            x       y       z     vdW  Elec       q    Type
REMARK                         _______ _______ _______ _____ _____    ______ ____
ROOT
ATOM      1  O   UNL     1       7.706   6.238  18.788  0.00  0.00    +0.000 OA
ATOM      2  C   UNL     1       7.419   6.775  17.725  0.00  0.00    +0.000 C 
ATOM      3  N   UNL     1       7.773   8.076  17.427  0.00  0.00    +0.000 N 
ATOM      4  H   UNL     1       7.285   8.536  16.668  0.00  0.00    +0.000 HD
ENDROOT
BRANCH   2   5
ATOM      5  C   UNL     1       6.616   6.080  16.623  0.00  0.00    +0.000 C 
ATOM      6  C   UNL     1       5.253   6.754  16.395  0.00  0.00    +0.000 C 
ATOM      7  C   UNL     1       4.229   6.408  17.477  0.00  0.00    +0.000 C 
ATOM      8  N   UNL     1       4.134   4.963  17.681  0.00  0.00    +0.000 N 
ATOM      9  C   UNL     1       2.864   4.396  17.820  0.00  0.00    +0.000 C 
ATOM     10  O   UNL     1       1.830   5.048  17.698  0.00  0.00    +0.000 OA
ATOM     11  C   UNL     1       5.401   4.302  17.974  0.00  0.00    +0.000 C 
ATOM     12  C   UNL     1       6.432   4.581  16.884  0.00  0.00    +0.000 C 
BRANCH   9  13
ATOM     13  C   UNL     1       2.755   2.919  18.055  0.00  0.00    +0.000 C 
ATOM     14  C   UNL     1       2.654   2.346  19.452  0.00  0.00    +0.000 C 
ATOM     15  C   UNL     1       1.440   2.375  18.574  0.00  0.00    +0.000 C 
ENDBRANCH   9  13
ENDBRANCH   2   5
BRANCH   3  16
ATOM     16  C   UNL     1       8.437   8.931  18.404  0.00  0.00    +0.000 C 
BRANCH  16  17
ATOM     17  C   UNL     1       8.511  10.383  17.921  0.00  0.00    +0.000 C 
BRANCH  17  18
ATOM     18  N   UNL     1       9.876  10.883  17.951  0.00  0.00    +0.000 N 
ATOM     19  C   UNL     1       9.945  12.272  17.899  0.00  0.00    +0.000 A 
ATOM     20  N   UNL     1       8.982  13.017  18.467  0.00  0.00    +0.000 NA
ATOM     21  C   UNL     1       9.100  14.353  18.370  0.00  0.00    +0.000 A 
ATOM     22  C   UNL     1      10.137  14.975  17.726  0.00  0.00    +0.000 A 
ATOM     23  C   UNL     1      11.069  14.131  17.176  0.00  0.00    +0.000 A 
ATOM     24  N   UNL     1      10.991  12.787  17.242  0.00  0.00    +0.000 NA
ATOM     25  H   UNL     1      10.484  10.556  17.204  0.00  0.00    +0.000 HD
ENDBRANCH  17  18
ENDBRANCH  16  17
ENDBRANCH   3  16
TORSDOF 5
ENDMDL
MODEL 9
REMARK VINA RESULT:      -7.0      4.727      6.366
REMARK  Name = 
REMARK  5 active torsions:
REMARK  status: ('A' for Active; 'I' for Inactive)
REMARK    1  A    between atoms: C_2  and  C_13
REMARK    2  A    between atoms: N_3  and  C_4
REMARK    3  A    between atoms: C_4  and  C_5
REMARK    4  A    between atoms: C_5  and  N_6
REMARK    5  A    between atoms: C_17  and  C_19
REMARK                            x       y       z     vdW  Elec       q    Type
REMARK                         _______ _______ _______ _____ _____    ______ ____
ROOT
ATOM      1  O   UNL     1       4.417   3.658  19.956  0.00  0.00    +0.000 OA
ATOM      2  C   UNL     1       4.129   4.620  19.256  0.00  0.00    +0.000 C 
ATOM      3  N   UNL     1       5.071   5.525  18.806  0.00  0.00    +0.000 N 
ATOM      4  H   UNL     1       4.741   6.422  18.471  0.00  0.00    +0.000 HD
ENDROOT
BRANCH   2   5
ATOM      5  C   UNL     1       2.698   4.946  18.823  0.00  0.00    +0.000 C 
ATOM      6  C   UNL     1       2.633   6.220  17.967  0.00  0.00    +0.000 C 
ATOM      7  C   UNL     1       2.766   7.501  18.792  0.00  0.00    +0.000 C 
ATOM      8  N   UNL     1       1.832   7.511  19.917  0.00  0.00    +0.000 N 
ATOM      9  C   UNL     1       1.138   8.693  20.191  0.00  0.00    +0.000 C 
ATOM     10  O   UNL     1       1.222   9.691  19.480  0.00  0.00    +0.000 OA
ATOM     11  C   UNL     1       1.919   6.349  20.795  0.00  0.00    +0.000 C 
ATOM     12  C   UNL     1       1.735   5.053  20.011  0.00  0.00    +0.000 C 
BRANCH   9  13
ATOM     13  C   UNL     1       0.197   8.723  21.358  0.00  0.00    +0.000 C 
ATOM     14  C   UNL     1       0.619   9.278  22.700  0.00  0.00    +0.000 C 
ATOM     15  C   UNL     1      -0.309  10.071  21.831  0.00  0.00    +0.000 C 
ENDBRANCH   9  13
ENDBRANCH   2   5
BRANCH   3  16
ATOM     16  C   UNL     1       6.467   5.442  19.217  0.00  0.00    +0.000 C 
BRANCH  16  17
ATOM     17  C   UNL     1       7.333   4.788  18.135  0.00  0.00    +0.000 C 
BRANCH  17  18
ATOM     18  N   UNL     1       7.462   5.647  16.968  0.00  0.00    +0.000 N 
ATOM     19  C   UNL     1       6.957   5.066  15.809  0.00  0.00    +0.000 A 
ATOM     20  N   UNL     1       5.901   4.238  15.875  0.00  0.00    +0.000 NA
ATOM     21  C   UNL     1       5.469   3.698  14.722  0.00  0.00    +0.000 A 
ATOM     22  C   UNL     1       6.051   3.948  13.506  0.00  0.00    +0.000 A 
ATOM     23  C   UNL     1       7.123   4.804  13.540  0.00  0.00    +0.000 A 
ATOM     24  N   UNL     1       7.596   5.364  14.672  0.00  0.00    +0.000 NA
ATOM     25  H   UNL     1       8.409   5.935  16.733  0.00  0.00    +0.000 HD
ENDBRANCH  17  18
ENDBRANCH  16  17
ENDBRANCH   3  16
TORSDOF 5
ENDMDL
