MODEL 1
REMARK VINA RESULT:      -8.5      0.000      0.000
REMARK  Name = 
REMARK  8 active torsions:
REMARK  status: ('A' for Active; 'I' for Inactive)
REMARK    1  A    between atoms: C_1  and  C_2
REMARK    2  A    between atoms: C_4  and  C_5
REMARK    3  A    between atoms: C_4  and  C_6
REMARK    4  A    between atoms: C_11  and  C_12
REMARK    5  A    between atoms: C_12  and  C_13
REMARK    6  A    between atoms: C_19  and  N_20
REMARK    7  A    between atoms: C_22  and  S_23
REMARK    8  A    between atoms: S_23  and  C_24
REMARK                            x       y       z     vdW  Elec       q    Type
REMARK                         _______ _______ _______ _____ _____    ______ ____
ROOT
ATOM      1  C   UNL     1       0.731   4.024  20.326  0.00  0.00    +0.000 C 
ATOM      2  C   UNL     1       2.102   3.767  19.760  0.00  0.00    +0.000 C 
ATOM      3  C   UNL     1       2.704   2.584  19.913  0.00  0.00    +0.000 C 
ATOM      4  C   UNL     1       4.058   2.211  19.375  0.00  0.00    +0.000 C 
ATOM      5  C   UNL     1       3.886   1.070  18.365  0.00  0.00    +0.000 C 
ATOM      6  C   UNL     1       4.967   1.788  20.539  0.00  0.00    +0.000 C 
ATOM      7  N   UNL     1       4.708   3.303  18.659  0.00  0.00    +0.000 N 
ATOM      8  C   UNL     1       4.148   4.574  18.552  0.00  0.00    +0.000 A 
ATOM      9  C   UNL     1       2.832   4.825  19.023  0.00  0.00    +0.000 A 
ATOM     10  C   UNL     1       2.240   6.077  18.806  0.00  0.00    +0.000 A 
ATOM     11  C   UNL     1       2.923   7.105  18.152  0.00  0.00    +0.000 A 
ATOM     12  C   UNL     1       4.233   6.869  17.723  0.00  0.00    +0.000 A 
ATOM     13  C   UNL     1       4.833   5.615  17.864  0.00  0.00    +0.000 A 
ATOM     14  H   UNL     1       5.722   3.262  18.664  0.00  0.00    +0.000 HD
ENDROOT
BRANCH  13  15
ATOM     15  S   UNL     1       6.529   5.377  17.226  0.00  0.00    +0.000 S 
ATOM     16  C   UNL     1       7.170   7.060  17.437  0.00  0.00    +0.000 C 
ATOM     17  O   UNL     1       7.285   4.471  18.264  0.00  0.00    +0.000 OA
ENDBRANCH  13  15
BRANCH  11  18
ATOM     18  C   UNL     1       2.231   8.423  17.918  0.00  0.00    +0.000 C 
BRANCH  18  19
ATOM     19  C   UNL     1       1.414   8.934  19.070  0.00  0.00    +0.000 A 
ATOM     20  C   UNL     1       1.664   8.525  20.364  0.00  0.00    +0.000 A 
ATOM     21  N   UNL     1       1.033   9.019  21.446  0.00  0.00    +0.000 NA
ATOM     22  C   UNL     1       0.094   9.933  21.212  0.00  0.00    +0.000 A 
ATOM     23  N   UNL     1      -0.524  10.495  22.308  0.00  0.00    +0.000 N 
ATOM     24  N   UNL     1      -0.230  10.402  20.004  0.00  0.00    +0.000 NA
ATOM     25  C   UNL     1       0.427   9.889  18.949  0.00  0.00    +0.000 A 
ATOM     26  H   UNL     1       0.057  10.364  23.123  0.00  0.00    +0.000 HD
ATOM     27  H   UNL     1      -0.812  11.439  22.089  0.00  0.00    +0.000 HD
BRANCH  25  28
ATOM     28  N   UNL     1       0.015  10.364  17.705  0.00  0.00    +0.000 N 
ATOM     29  H   UNL     1      -0.994  10.267  17.651  0.00  0.00    +0.000 HD
ATOM     30  H   UNL     1       0.319  11.307  17.505  0.00  0.00    +0.000 HD
ENDBRANCH  25  28
ENDBRANCH  18  19
ENDBRANCH  11  18
TORSDOF 4
ENDMDL
MODEL 2
REMARK VINA RESULT:      -7.6      5.864      9.770
REMARK  Name = 
REMARK  8 active torsions:
REMARK  status: ('A' for Active; 'I' for Inactive)
REMARK    1  A    between atoms: C_1  and  C_2
REMARK    2  A    between atoms: C_4  and  C_5
REMARK    3  A    between atoms: C_4  and  C_6
REMARK    4  A    between atoms: C_11  and  C_12
REMARK    5  A    between atoms: C_12  and  C_13
REMARK    6  A    between atoms: C_19  and  N_20
REMARK    7  A    between atoms: C_22  and  S_23
REMARK    8  A    between atoms: S_23  and  C_24
REMARK                            x       y       z     vdW  Elec       q    Type
REMARK                         _______ _______ _______ _____ _____    ______ ____
ROOT
ATOM      1  C   UNL     1      -2.870  10.849  15.893  0.00  0.00    +0.000 C 
ATOM      2  C   UNL     1      -3.684  11.323  17.067  0.00  0.00    +0.000 C 
ATOM      3  C   UNL     1      -5.015  11.416  16.994  0.00  0.00    +0.000 C 
ATOM      4  C   UNL     1      -5.927  11.856  18.107  0.00  0.00    +0.000 C 
ATOM      5  C   UNL     1      -6.849  10.688  18.475  0.00  0.00    +0.000 C 
ATOM      6  C   UNL     1      -6.737  13.077  17.645  0.00  0.00    +0.000 C 
ATOM      7  N   UNL     1      -5.209  12.216  19.325  0.00  0.00    +0.000 N 
ATOM      8  C   UNL     1      -3.819  12.212  19.409  0.00  0.00    +0.000 A 
ATOM      9  C   UNL     1      -3.031  11.711  18.339  0.00  0.00    +0.000 A 
ATOM     10  C   UNL     1      -1.640  11.608  18.484  0.00  0.00    +0.000 A 
ATOM     11  C   UNL     1      -0.996  12.008  19.657  0.00  0.00    +0.000 A 
ATOM     12  C   UNL     1      -1.768  12.537  20.696  0.00  0.00    +0.000 A 
ATOM     13  C   UNL     1      -3.162  12.595  20.613  0.00  0.00    +0.000 A 
ATOM     14  H   UNL     1      -5.689  12.892  19.909  0.00  0.00    +0.000 HD
ENDROOT
BRANCH  13  15
ATOM     15  S   UNL     1      -4.099  13.250  22.039  0.00  0.00    +0.000 S 
ATOM     16  C   UNL     1      -4.587  14.862  21.366  0.00  0.00    +0.000 C 
ATOM     17  O   UNL     1      -5.411  12.393  22.157  0.00  0.00    +0.000 OA
ENDBRANCH  13  15
BRANCH  11  18
ATOM     18  C   UNL     1       0.498  11.849  19.773  0.00  0.00    +0.000 C 
BRANCH  18  19
ATOM     19  C   UNL     1       0.977  10.449  20.025  0.00  0.00    +0.000 A 
ATOM     20  C   UNL     1       0.900   9.878  21.279  0.00  0.00    +0.000 A 
ATOM     21  N   UNL     1       1.222   8.599  21.548  0.00  0.00    +0.000 NA
ATOM     22  C   UNL     1       1.667   7.878  20.521  0.00  0.00    +0.000 A 
ATOM     23  N   UNL     1       1.947   6.550  20.759  0.00  0.00    +0.000 N 
ATOM     24  N   UNL     1       1.782   8.326  19.267  0.00  0.00    +0.000 NA
ATOM     25  C   UNL     1       1.446   9.607  19.039  0.00  0.00    +0.000 A 
ATOM     26  H   UNL     1       1.463   6.250  21.592  0.00  0.00    +0.000 HD
ATOM     27  H   UNL     1       1.796   6.014  19.915  0.00  0.00    +0.000 HD
BRANCH  25  28
ATOM     28  N   UNL     1       1.638  10.046  17.730  0.00  0.00    +0.000 N 
ATOM     29  H   UNL     1       2.420   9.532  17.338  0.00  0.00    +0.000 HD
ATOM     30  H   UNL     1       0.812   9.984  17.151  0.00  0.00    +0.000 HD
ENDBRANCH  25  28
ENDBRANCH  18  19
ENDBRANCH  11  18
TORSDOF 4
ENDMDL
MODEL 3
REMARK VINA RESULT:      -7.5      5.678      9.647
REMARK  Name = 
REMARK  8 active torsions:
REMARK  status: ('A' for Active; 'I' for Inactive)
REMARK    1  A    between atoms: C_1  and  C_2
REMARK    2  A    between atoms: C_4  and  C_5
REMARK    3  A    between atoms: C_4  and  C_6
REMARK    4  A    between atoms: C_11  and  C_12
REMARK    5  A    between atoms: C_12  and  C_13
REMARK    6  A    between atoms: C_19  and  N_20
REMARK    7  A    between atoms: C_22  and  S_23
REMARK    8  A    between atoms: S_23  and  C_24
REMARK                            x       y       z     vdW  Elec       q    Type
REMARK                         _______ _______ _______ _____ _____    ______ ____
ROOT
ATOM      1  C   UNL     1      -2.694  10.622  15.736  0.00  0.00    +0.000 C 
ATOM      2  C   UNL     1      -3.448  11.150  16.927  0.00  0.00    +0.000 C 
ATOM      3  C   UNL     1      -4.775  11.299  16.895  0.00  0.00    +0.000 C 
ATOM      4  C   UNL     1      -5.632  11.796  18.028  0.00  0.00    +0.000 C 
ATOM      5  C   UNL     1      -6.590  10.675  18.445  0.00  0.00    +0.000 C 
ATOM      6  C   UNL     1      -6.403  13.043  17.570  0.00  0.00    +0.000 C 
ATOM      7  N   UNL     1      -4.859  12.144  19.216  0.00  0.00    +0.000 N 
ATOM      8  C   UNL     1      -3.468  12.082  19.257  0.00  0.00    +0.000 A 
ATOM      9  C   UNL     1      -2.738  11.530  18.171  0.00  0.00    +0.000 A 
ATOM     10  C   UNL     1      -1.349  11.369  18.274  0.00  0.00    +0.000 A 
ATOM     11  C   UNL     1      -0.651  11.760  19.418  0.00  0.00    +0.000 A 
ATOM     12  C   UNL     1      -1.366  12.337  20.472  0.00  0.00    +0.000 A 
ATOM     13  C   UNL     1      -2.757  12.455  20.432  0.00  0.00    +0.000 A 
ATOM     14  H   UNL     1      -5.291  12.850  19.803  0.00  0.00    +0.000 HD
ENDROOT
BRANCH  13  15
ATOM     15  S   UNL     1      -3.619  13.173  21.876  0.00  0.00    +0.000 S 
ATOM     16  C   UNL     1      -4.010  14.813  21.210  0.00  0.00    +0.000 C 
ATOM     17  O   UNL     1      -4.984  12.406  22.021  0.00  0.00    +0.000 OA
ENDBRANCH  13  15
BRANCH  11  18
ATOM     18  C   UNL     1       0.838  11.537  19.490  0.00  0.00    +0.000 C 
BRANCH  18  19
ATOM     19  C   UNL     1       1.300  10.158  19.122  0.00  0.00    +0.000 A 
ATOM     20  C   UNL     1       1.847   9.890  17.883  0.00  0.00    +0.000 A 
ATOM     21  N   UNL     1       2.368   8.700  17.529  0.00  0.00    +0.000 NA
ATOM     22  C   UNL     1       2.305   7.736  18.445  0.00  0.00    +0.000 A 
ATOM     23  N   UNL     1       2.883   6.527  18.126  0.00  0.00    +0.000 N 
ATOM     24  N   UNL     1       1.799   7.882  19.672  0.00  0.00    +0.000 NA
ATOM     25  C   UNL     1       1.294   9.087  19.990  0.00  0.00    +0.000 A 
ATOM     26  H   UNL     1       3.549   6.662  17.379  0.00  0.00    +0.000 HD
ATOM     27  H   UNL     1       3.214   6.076  18.968  0.00  0.00    +0.000 HD
BRANCH  25  28
ATOM     28  N   UNL     1       0.724   9.175  21.259  0.00  0.00    +0.000 N 
ATOM     29  H   UNL     1       0.993  10.066  21.663  0.00  0.00    +0.000 HD
ATOM     30  H   UNL     1      -0.278   9.039  21.268  0.00  0.00    +0.000 HD
ENDBRANCH  25  28
ENDBRANCH  18  19
ENDBRANCH  11  18
TORSDOF 4
ENDMDL
MODEL 4
REMARK VINA RESULT:      -7.2      5.664      9.608
REMARK  Name = 
REMARK  8 active torsions:
REMARK  status: ('A' for Active; 'I' for Inactive)
REMARK    1  A    between atoms: C_1  and  C_2
REMARK    2  A    between atoms: C_4  and  C_5
REMARK    3  A    between atoms: C_4  and  C_6
REMARK    4  A    between atoms: C_11  and  C_12
REMARK    5  A    between atoms: C_12  and  C_13
REMARK    6  A    between atoms: C_19  and  N_20
REMARK    7  A    between atoms: C_22  and  S_23
REMARK    8  A    between atoms: S_23  and  C_24
REMARK                            x       y       z     vdW  Elec       q    Type
REMARK                         _______ _______ _______ _____ _____    ______ ____
ROOT
ATOM      1  C   UNL     1      -2.659  10.302  15.917  0.00  0.00    +0.000 C 
ATOM      2  C   UNL     1      -3.458  11.000  16.984  0.00  0.00    +0.000 C 
ATOM      3  C   UNL     1      -4.770  11.205  16.843  0.00  0.00    +0.000 C 
ATOM      4  C   UNL     1      -5.670  11.871  17.849  0.00  0.00    +0.000 C 
ATOM      5  C   UNL     1      -6.712  10.852  18.323  0.00  0.00    +0.000 C 
ATOM      6  C   UNL     1      -6.342  13.090  17.199  0.00  0.00    +0.000 C 
ATOM      7  N   UNL     1      -4.958  12.321  19.040  0.00  0.00    +0.000 N 
ATOM      8  C   UNL     1      -3.578  12.199  19.185  0.00  0.00    +0.000 A 
ATOM      9  C   UNL     1      -2.810  11.491  18.223  0.00  0.00    +0.000 A 
ATOM     10  C   UNL     1      -1.441  11.279  18.440  0.00  0.00    +0.000 A 
ATOM     11  C   UNL     1      -0.798  11.769  19.579  0.00  0.00    +0.000 A 
ATOM     12  C   UNL     1      -1.546  12.498  20.507  0.00  0.00    +0.000 A 
ATOM     13  C   UNL     1      -2.924  12.675  20.357  0.00  0.00    +0.000 A 
ATOM     14  H   UNL     1      -5.387  13.109  19.512  0.00  0.00    +0.000 HD
ENDROOT
BRANCH  13  15
ATOM     15  S   UNL     1      -3.837  13.596  21.645  0.00  0.00    +0.000 S 
ATOM     16  C   UNL     1      -3.468  12.554  23.082  0.00  0.00    +0.000 C 
ATOM     17  O   UNL     1      -3.075  14.954  21.863  0.00  0.00    +0.000 OA
ENDBRANCH  13  15
BRANCH  11  18
ATOM     18  C   UNL     1       0.669  11.488  19.780  0.00  0.00    +0.000 C 
BRANCH  18  19
ATOM     19  C   UNL     1       1.031  10.039  19.931  0.00  0.00    +0.000 A 
ATOM     20  C   UNL     1       1.581   9.323  18.888  0.00  0.00    +0.000 A 
ATOM     21  N   UNL     1       2.016   8.053  18.990  0.00  0.00    +0.000 NA
ATOM     22  C   UNL     1       1.861   7.474  20.179  0.00  0.00    +0.000 A 
ATOM     23  N   UNL     1       2.351   6.194  20.323  0.00  0.00    +0.000 N 
ATOM     24  N   UNL     1       1.342   8.070  21.256  0.00  0.00    +0.000 NA
ATOM     25  C   UNL     1       0.926   9.340  21.115  0.00  0.00    +0.000 A 
ATOM     26  H   UNL     1       3.039   6.017  19.607  0.00  0.00    +0.000 HD
ATOM     27  H   UNL     1       2.629   6.043  21.284  0.00  0.00    +0.000 HD
BRANCH  25  28
ATOM     28  N   UNL     1       0.338   9.901  22.248  0.00  0.00    +0.000 N 
ATOM     29  H   UNL     1      -0.402  10.523  21.942  0.00  0.00    +0.000 HD
ATOM     30  H   UNL     1       0.011   9.219  22.920  0.00  0.00    +0.000 HD
ENDBRANCH  25  28
ENDBRANCH  18  19
ENDBRANCH  11  18
TORSDOF 4
ENDMDL
MODEL 5
REMARK VINA RESULT:      -7.1      5.960      9.886
REMARK  Name = 
REMARK  8 active torsions:
REMARK  status: ('A' for Active; 'I' for Inactive)
REMARK    1  A    between atoms: C_1  and  C_2
REMARK    2  A    between atoms: C_4  and  C_5
REMARK    3  A    between atoms: C_4  and  C_6
REMARK    4  A    between atoms: C_11  and  C_12
REMARK    5  A    between atoms: C_12  and  C_13
REMARK    6  A    between atoms: C_19  and  N_20
REMARK    7  A    between atoms: C_22  and  S_23
REMARK    8  A    between atoms: S_23  and  C_24
REMARK                            x       y       z     vdW  Elec       q    Type
REMARK                         _______ _______ _______ _____ _____    ______ ____
ROOT
ATOM      1  C   UNL     1      -3.605  10.715  16.385  0.00  0.00    +0.000 C 
ATOM      2  C   UNL     1      -4.267  11.283  17.612  0.00  0.00    +0.000 C 
ATOM      3  C   UNL     1      -5.597  11.358  17.709  0.00  0.00    +0.000 C 
ATOM      4  C   UNL     1      -6.364  11.885  18.891  0.00  0.00    +0.000 C 
ATOM      5  C   UNL     1      -7.205  10.746  19.477  0.00  0.00    +0.000 C 
ATOM      6  C   UNL     1      -7.252  13.054  18.438  0.00  0.00    +0.000 C 
ATOM      7  N   UNL     1      -5.499  12.357  19.968  0.00  0.00    +0.000 N 
ATOM      8  C   UNL     1      -4.110  12.373  19.867  0.00  0.00    +0.000 A 
ATOM      9  C   UNL     1      -3.460  11.787  18.748  0.00  0.00    +0.000 A 
ATOM     10  C   UNL     1      -2.061  11.709  18.715  0.00  0.00    +0.000 A 
ATOM     11  C   UNL     1      -1.276  12.216  19.753  0.00  0.00    +0.000 A 
ATOM     12  C   UNL     1      -1.915  12.827  20.837  0.00  0.00    +0.000 A 
ATOM     13  C   UNL     1      -3.308  12.866  20.935  0.00  0.00    +0.000 A 
ATOM     14  H   UNL     1      -5.911  13.077  20.550  0.00  0.00    +0.000 HD
ENDROOT
BRANCH  13  15
ATOM     15  S   UNL     1      -4.063  13.635  22.412  0.00  0.00    +0.000 S 
ATOM     16  C   UNL     1      -3.504  12.466  23.680  0.00  0.00    +0.000 C 
ATOM     17  O   UNL     1      -3.295  14.983  22.668  0.00  0.00    +0.000 OA
ENDBRANCH  13  15
BRANCH  11  18
ATOM     18  C   UNL     1       0.224  12.081  19.683  0.00  0.00    +0.000 C 
BRANCH  18  19
ATOM     19  C   UNL     1       0.760  10.713  19.989  0.00  0.00    +0.000 A 
ATOM     20  C   UNL     1       0.777  10.219  21.277  0.00  0.00    +0.000 A 
ATOM     21  N   UNL     1       1.154   8.968  21.602  0.00  0.00    +0.000 NA
ATOM     22  C   UNL     1       1.558   8.197  20.594  0.00  0.00    +0.000 A 
ATOM     23  N   UNL     1       1.893   6.895  20.894  0.00  0.00    +0.000 N 
ATOM     24  N   UNL     1       1.584   8.570  19.311  0.00  0.00    +0.000 NA
ATOM     25  C   UNL     1       1.194   9.824  19.028  0.00  0.00    +0.000 A 
ATOM     26  H   UNL     1       1.470   6.635  21.773  0.00  0.00    +0.000 HD
ATOM     27  H   UNL     1       1.708   6.304  20.095  0.00  0.00    +0.000 HD
BRANCH  25  28
ATOM     28  N   UNL     1       1.293  10.187  17.686  0.00  0.00    +0.000 N 
ATOM     29  H   UNL     1       0.570   9.694  17.173  0.00  0.00    +0.000 HD
ATOM     30  H   UNL     1       1.262  11.185  17.527  0.00  0.00    +0.000 HD
ENDBRANCH  25  28
ENDBRANCH  18  19
ENDBRANCH  11  18
TORSDOF 4
ENDMDL
MODEL 6
REMARK VINA RESULT:      -7.0      6.019      9.874
REMARK  Name = 
REMARK  8 active torsions:
REMARK  status: ('A' for Active; 'I' for Inactive)
REMARK    1  A    between atoms: C_1  and  C_2
REMARK    2  A    between atoms: C_4  and  C_5
REMARK    3  A    between atoms: C_4  and  C_6
REMARK    4  A    between atoms: C_11  and  C_12
REMARK    5  A    between atoms: C_12  and  C_13
REMARK    6  A    between atoms: C_19  and  N_20
REMARK    7  A    between atoms: C_22  and  S_23
REMARK    8  A    between atoms: S_23  and  C_24
REMARK                            x       y       z     vdW  Elec       q    Type
REMARK                         _______ _______ _______ _____ _____    ______ ____
ROOT
ATOM      1  C   UNL     1      -2.834  10.896  15.993  0.00  0.00    +0.000 C 
ATOM      2  C   UNL     1      -3.678  11.336  17.158  0.00  0.00    +0.000 C 
ATOM      3  C   UNL     1      -5.012  11.316  17.094  0.00  0.00    +0.000 C 
ATOM      4  C   UNL     1      -5.952  11.713  18.200  0.00  0.00    +0.000 C 
ATOM      5  C   UNL     1      -6.771  10.484  18.611  0.00  0.00    +0.000 C 
ATOM      6  C   UNL     1      -6.864  12.847  17.707  0.00  0.00    +0.000 C 
ATOM      7  N   UNL     1      -5.260  12.169  19.400  0.00  0.00    +0.000 N 
ATOM      8  C   UNL     1      -3.873  12.284  19.474  0.00  0.00    +0.000 A 
ATOM      9  C   UNL     1      -3.052  11.818  18.413  0.00  0.00    +0.000 A 
ATOM     10  C   UNL     1      -1.657  11.835  18.550  0.00  0.00    +0.000 A 
ATOM     11  C   UNL     1      -1.042  12.324  19.704  0.00  0.00    +0.000 A 
ATOM     12  C   UNL     1      -1.850  12.818  20.733  0.00  0.00    +0.000 A 
ATOM     13  C   UNL     1      -3.244  12.758  20.660  0.00  0.00    +0.000 A 
ATOM     14  H   UNL     1      -5.791  12.821  19.968  0.00  0.00    +0.000 HD
ENDROOT
BRANCH  13  15
ATOM     15  S   UNL     1      -4.225  13.376  22.073  0.00  0.00    +0.000 S 
ATOM     16  C   UNL     1      -2.993  14.460  22.845  0.00  0.00    +0.000 C 
ATOM     17  O   UNL     1      -5.342  14.310  21.480  0.00  0.00    +0.000 OA
ENDBRANCH  13  15
BRANCH  11  18
ATOM     18  C   UNL     1       0.460  12.293  19.813  0.00  0.00    +0.000 C 
BRANCH  18  19
ATOM     19  C   UNL     1       1.115  11.034  19.324  0.00  0.00    +0.000 A 
ATOM     20  C   UNL     1       0.871   9.817  19.926  0.00  0.00    +0.000 A 
ATOM     21  N   UNL     1       1.349   8.642  19.475  0.00  0.00    +0.000 NA
ATOM     22  C   UNL     1       2.127   8.700  18.396  0.00  0.00    +0.000 A 
ATOM     23  N   UNL     1       2.580   7.505  17.883  0.00  0.00    +0.000 N 
ATOM     24  N   UNL     1       2.429   9.820  17.734  0.00  0.00    +0.000 NA
ATOM     25  C   UNL     1       1.928  10.972  18.212  0.00  0.00    +0.000 A 
ATOM     26  H   UNL     1       1.988   6.755  18.208  0.00  0.00    +0.000 HD
ATOM     27  H   UNL     1       2.713   7.593  16.884  0.00  0.00    +0.000 HD
BRANCH  25  28
ATOM     28  N   UNL     1       2.318  12.119  17.524  0.00  0.00    +0.000 N 
ATOM     29  H   UNL     1       2.486  11.864  16.556  0.00  0.00    +0.000 HD
ATOM     30  H   UNL     1       1.667  12.889  17.607  0.00  0.00    +0.000 HD
ENDBRANCH  25  28
ENDBRANCH  18  19
ENDBRANCH  11  18
TORSDOF 4
ENDMDL
MODEL 7
REMARK VINA RESULT:      -7.0      7.657     10.104
REMARK  Name = 
REMARK  8 active torsions:
REMARK  status: ('A' for Active; 'I' for Inactive)
REMARK    1  A    between atoms: C_1  and  C_2
REMARK    2  A    between atoms: C_4  and  C_5
REMARK    3  A    between atoms: C_4  and  C_6
REMARK    4  A    between atoms: C_11  and  C_12
REMARK    5  A    between atoms: C_12  and  C_13
REMARK    6  A    between atoms: C_19  and  N_20
REMARK    7  A    between atoms: C_22  and  S_23
REMARK    8  A    between atoms: S_23  and  C_24
REMARK                            x       y       z     vdW  Elec       q    Type
REMARK                         _______ _______ _______ _____ _____    ______ ____
ROOT
ATOM      1  C   UNL     1      -2.594  10.791  16.181  0.00  0.00    +0.000 C 
ATOM      2  C   UNL     1      -3.494  11.314  17.268  0.00  0.00    +0.000 C 
ATOM      3  C   UNL     1      -4.803  11.480  17.063  0.00  0.00    +0.000 C 
ATOM      4  C   UNL     1      -5.797  11.974  18.079  0.00  0.00    +0.000 C 
ATOM      5  C   UNL     1      -6.814  10.860  18.350  0.00  0.00    +0.000 C 
ATOM      6  C   UNL     1      -6.488  13.236  17.540  0.00  0.00    +0.000 C 
ATOM      7  N   UNL     1      -5.185  12.299  19.363  0.00  0.00    +0.000 N 
ATOM      8  C   UNL     1      -3.813  12.218  19.587  0.00  0.00    +0.000 A 
ATOM      9  C   UNL     1      -2.951  11.670  18.600  0.00  0.00    +0.000 A 
ATOM     10  C   UNL     1      -1.590  11.491  18.883  0.00  0.00    +0.000 A 
ATOM     11  C   UNL     1      -1.045  11.859  20.115  0.00  0.00    +0.000 A 
ATOM     12  C   UNL     1      -1.887  12.433  21.073  0.00  0.00    +0.000 A 
ATOM     13  C   UNL     1      -3.260  12.569  20.851  0.00  0.00    +0.000 A 
ATOM     14  H   UNL     1      -5.683  13.002  19.898  0.00  0.00    +0.000 HD
ENDROOT
BRANCH  13  15
ATOM     15  S   UNL     1      -4.297  13.280  22.177  0.00  0.00    +0.000 S 
ATOM     16  C   UNL     1      -4.652  14.901  21.447  0.00  0.00    +0.000 C 
ATOM     17  O   UNL     1      -5.650  12.478  22.179  0.00  0.00    +0.000 OA
ENDBRANCH  13  15
BRANCH  11  18
ATOM     18  C   UNL     1       0.419  11.618  20.380  0.00  0.00    +0.000 C 
BRANCH  18  19
ATOM     19  C   UNL     1       1.365  12.464  19.580  0.00  0.00    +0.000 A 
ATOM     20  C   UNL     1       1.659  13.760  19.951  0.00  0.00    +0.000 A 
ATOM     21  N   UNL     1       2.571  14.534  19.332  0.00  0.00    +0.000 NA
ATOM     22  C   UNL     1       3.184  13.993  18.282  0.00  0.00    +0.000 A 
ATOM     23  N   UNL     1       4.162  14.745  17.668  0.00  0.00    +0.000 N 
ATOM     24  N   UNL     1       2.978  12.751  17.834  0.00  0.00    +0.000 NA
ATOM     25  C   UNL     1       2.065  12.008  18.483  0.00  0.00    +0.000 A 
ATOM     26  H   UNL     1       4.488  15.455  18.307  0.00  0.00    +0.000 HD
ATOM     27  H   UNL     1       4.855  14.133  17.259  0.00  0.00    +0.000 HD
BRANCH  25  28
ATOM     28  N   UNL     1       1.841  10.742  17.945  0.00  0.00    +0.000 N 
ATOM     29  H   UNL     1       2.743  10.313  17.765  0.00  0.00    +0.000 HD
ATOM     30  H   UNL     1       1.246  10.154  18.513  0.00  0.00    +0.000 HD
ENDBRANCH  25  28
ENDBRANCH  18  19
ENDBRANCH  11  18
TORSDOF 4
ENDMDL
MODEL 8
REMARK VINA RESULT:      -7.0      2.323      4.043
REMARK  Name = 
REMARK  8 active torsions:
REMARK  status: ('A' for Active; 'I' for Inactive)
REMARK    1  A    between atoms: C_1  and  C_2
REMARK    2  A    between atoms: C_4  and  C_5
REMARK    3  A    between atoms: C_4  and  C_6
REMARK    4  A    between atoms: C_11  and  C_12
REMARK    5  A    between atoms: C_12  and  C_13
REMARK    6  A    between atoms: C_19  and  N_20
REMARK    7  A    between atoms: C_22  and  S_23
REMARK    8  A    between atoms: S_23  and  C_24
REMARK                            x       y       z     vdW  Elec       q    Type
REMARK                         _______ _______ _______ _____ _____    ______ ____
ROOT
ATOM      1  C   UNL     1       3.522   8.459  17.236  0.00  0.00    +0.000 C 
ATOM      2  C   UNL     1       3.852   7.058  17.674  0.00  0.00    +0.000 C 
ATOM      3  C   UNL     1       4.793   6.341  17.053  0.00  0.00    +0.000 C 
ATOM      4  C   UNL     1       5.218   4.944  17.417  0.00  0.00    +0.000 C 
ATOM      5  C   UNL     1       6.689   4.978  17.849  0.00  0.00    +0.000 C 
ATOM      6  C   UNL     1       5.017   4.022  16.205  0.00  0.00    +0.000 C 
ATOM      7  N   UNL     1       4.469   4.395  18.542  0.00  0.00    +0.000 N 
ATOM      8  C   UNL     1       3.424   5.080  19.159  0.00  0.00    +0.000 A 
ATOM      9  C   UNL     1       3.134   6.425  18.806  0.00  0.00    +0.000 A 
ATOM     10  C   UNL     1       2.157   7.137  19.514  0.00  0.00    +0.000 A 
ATOM     11  C   UNL     1       1.435   6.550  20.556  0.00  0.00    +0.000 A 
ATOM     12  C   UNL     1       1.695   5.214  20.878  0.00  0.00    +0.000 A 
ATOM     13  C   UNL     1       2.706   4.492  20.238  0.00  0.00    +0.000 A 
ATOM     14  H   UNL     1       4.400   3.383  18.545  0.00  0.00    +0.000 HD
ENDROOT
BRANCH  13  15
ATOM     15  S   UNL     1       3.016   2.767  20.758  0.00  0.00    +0.000 S 
ATOM     16  C   UNL     1       1.490   2.451  21.684  0.00  0.00    +0.000 C 
ATOM     17  O   UNL     1       2.951   1.880  19.461  0.00  0.00    +0.000 OA
ENDBRANCH  13  15
BRANCH  11  18
ATOM     18  C   UNL     1       0.416   7.369  21.306  0.00  0.00    +0.000 C 
BRANCH  18  19
ATOM     19  C   UNL     1       0.479   8.849  21.066  0.00  0.00    +0.000 A 
ATOM     20  C   UNL     1      -0.288   9.452  20.089  0.00  0.00    +0.000 A 
ATOM     21  N   UNL     1      -0.349  10.782  19.891  0.00  0.00    +0.000 NA
ATOM     22  C   UNL     1       0.416  11.529  20.685  0.00  0.00    +0.000 A 
ATOM     23  N   UNL     1       0.325  12.896  20.540  0.00  0.00    +0.000 N 
ATOM     24  N   UNL     1       1.195  11.054  21.661  0.00  0.00    +0.000 NA
ATOM     25  C   UNL     1       1.224   9.721  21.831  0.00  0.00    +0.000 A 
ATOM     26  H   UNL     1      -0.543  13.127  20.081  0.00  0.00    +0.000 HD
ATOM     27  H   UNL     1       0.518  13.345  21.425  0.00  0.00    +0.000 HD
BRANCH  25  28
ATOM     28  N   UNL     1       2.095   9.268  22.820  0.00  0.00    +0.000 N 
ATOM     29  H   UNL     1       2.029   8.257  22.858  0.00  0.00    +0.000 HD
ATOM     30  H   UNL     1       3.048   9.585  22.703  0.00  0.00    +0.000 HD
ENDBRANCH  25  28
ENDBRANCH  18  19
ENDBRANCH  11  18
TORSDOF 4
ENDMDL
MODEL 9
REMARK VINA RESULT:      -6.7      7.890     10.083
REMARK  Name = 
REMARK  8 active torsions:
REMARK  status: ('A' for Active; 'I' for Inactive)
REMARK    1  A    between atoms: C_1  and  C_2
REMARK    2  A    between atoms: C_4  and  C_5
REMARK    3  A    between atoms: C_4  and  C_6
REMARK    4  A    between atoms: C_11  and  C_12
REMARK    5  A    between atoms: C_12  and  C_13
REMARK    6  A    between atoms: C_19  and  N_20
REMARK    7  A    between atoms: C_22  and  S_23
REMARK    8  A    between atoms: S_23  and  C_24
REMARK                            x       y       z     vdW  Elec       q    Type
REMARK                         _______ _______ _______ _____ _____    ______ ____
ROOT
ATOM      1  C   UNL     1      -2.538  10.023  16.546  0.00  0.00    +0.000 C 
ATOM      2  C   UNL     1      -3.422  10.879  17.411  0.00  0.00    +0.000 C 
ATOM      3  C   UNL     1      -4.702  11.095  17.094  0.00  0.00    +0.000 C 
ATOM      4  C   UNL     1      -5.680  11.913  17.892  0.00  0.00    +0.000 C 
ATOM      5  C   UNL     1      -6.808  10.993  18.375  0.00  0.00    +0.000 C 
ATOM      6  C   UNL     1      -6.228  13.047  17.013  0.00  0.00    +0.000 C 
ATOM      7  N   UNL     1      -5.088  12.503  19.088  0.00  0.00    +0.000 N 
ATOM      8  C   UNL     1      -3.738  12.370  19.405  0.00  0.00    +0.000 A 
ATOM      9  C   UNL     1      -2.896  11.518  18.641  0.00  0.00    +0.000 A 
ATOM     10  C   UNL     1      -1.570  11.305  19.040  0.00  0.00    +0.000 A 
ATOM     11  C   UNL     1      -1.037  11.931  20.170  0.00  0.00    +0.000 A 
ATOM     12  C   UNL     1      -1.855  12.798  20.900  0.00  0.00    +0.000 A 
ATOM     13  C   UNL     1      -3.200  12.985  20.571  0.00  0.00    +0.000 A 
ATOM     14  H   UNL     1      -5.535  13.359  19.397  0.00  0.00    +0.000 HD
ENDROOT
BRANCH  13  15
ATOM     15  S   UNL     1      -4.213  14.095  21.611  0.00  0.00    +0.000 S 
ATOM     16  C   UNL     1      -2.893  15.037  22.423  0.00  0.00    +0.000 C 
ATOM     17  O   UNL     1      -4.947  15.090  20.640  0.00  0.00    +0.000 OA
ENDBRANCH  13  15
BRANCH  11  18
ATOM     18  C   UNL     1       0.386  11.645  20.573  0.00  0.00    +0.000 C 
BRANCH  18  19
ATOM     19  C   UNL     1       1.432  12.439  19.846  0.00  0.00    +0.000 A 
ATOM     20  C   UNL     1       1.949  12.011  18.640  0.00  0.00    +0.000 A 
ATOM     21  N   UNL     1       2.814  12.724  17.895  0.00  0.00    +0.000 NA
ATOM     22  C   UNL     1       3.197  13.895  18.399  0.00  0.00    +0.000 A 
ATOM     23  N   UNL     1       4.036  14.668  17.627  0.00  0.00    +0.000 N 
ATOM     24  N   UNL     1       2.762  14.407  19.554  0.00  0.00    +0.000 NA
ATOM     25  C   UNL     1       1.894  13.668  20.266  0.00  0.00    +0.000 A 
ATOM     26  H   UNL     1       3.970  14.374  16.664  0.00  0.00    +0.000 HD
ATOM     27  H   UNL     1       3.877  15.646  17.826  0.00  0.00    +0.000 HD
BRANCH  25  28
ATOM     28  N   UNL     1       1.515  14.215  21.490  0.00  0.00    +0.000 N 
ATOM     29  H   UNL     1       0.501  14.222  21.531  0.00  0.00    +0.000 HD
ATOM     30  H   UNL     1       1.926  13.753  22.291  0.00  0.00    +0.000 HD
ENDBRANCH  25  28
ENDBRANCH  18  19
ENDBRANCH  11  18
TORSDOF 4
ENDMDL
