MODEL 1
REMARK VINA RESULT:      -7.0      0.000      0.000
REMARK  Name = 
REMARK  7 active torsions:
REMARK  status: ('A' for Active; 'I' for Inactive)
REMARK    1  A    between atoms: C_2  and  C_3
REMARK    2  A    between atoms: C_6  and  C_7
REMARK    3  A    between atoms: C_10  and  O_11
REMARK    4  A    between atoms: O_11  and  C_12
REMARK    5  A    between atoms: C_12  and  C_13
REMARK    6  A    between atoms: C_20  and  O_21
REMARK    7  A    between atoms: C_20  and  C_22
REMARK                            x       y       z     vdW  Elec       q    Type
REMARK                         _______ _______ _______ _____ _____    ______ ____
ROOT
ATOM      1  C   UNL     1       3.580   5.278  18.949  0.00  0.00    +0.000 A 
ATOM      2  C   UNL     1       3.109   4.900  17.705  0.00  0.00    +0.000 A 
ATOM      3  C   UNL     1       4.034   4.477  16.760  0.00  0.00    +0.000 A 
ATOM      4  C   UNL     1       5.409   4.400  17.060  0.00  0.00    +0.000 A 
ATOM      5  C   UNL     1       5.761   4.785  18.358  0.00  0.00    +0.000 A 
ATOM      6  N   UNL     1       4.887   5.229  19.287  0.00  0.00    +0.000 NA
ENDROOT
BRANCH   1   8
ATOM      7  O   UNL     1       2.397   4.807  20.916  0.00  0.00    +0.000 OA
ATOM      8  C   UNL     1       2.598   5.629  20.019  0.00  0.00    +0.000 C 
ATOM      9  N   UNL     1       1.963   6.862  20.018  0.00  0.00    +0.000 N 
ATOM     10  C   UNL     1       1.821   7.828  18.945  0.00  0.00    +0.000 C 
ATOM     11  C   UNL     1       1.588   9.134  19.691  0.00  0.00    +0.000 C 
ATOM     12  C   UNL     1       0.794   8.718  20.949  0.00  0.00    +0.000 C 
ATOM     13  C   UNL     1       1.084   7.221  21.117  0.00  0.00    +0.000 C 
BRANCH  12  14
ATOM     14  C   UNL     1       1.199   9.522  22.204  0.00  0.00    +0.000 C 
ATOM     15  F   UNL     1       2.427   9.197  22.666  0.00  0.00    +0.000 F 
ATOM     16  F   UNL     1       1.244  10.846  21.896  0.00  0.00    +0.000 F 
ATOM     17  F   UNL     1       0.332   9.392  23.232  0.00  0.00    +0.000 F 
ENDBRANCH  12  14
BRANCH  12  18
ATOM     18  O   UNL     1      -0.609   8.892  20.616  0.00  0.00    +0.000 OA
ATOM     19  H   UNL     1      -0.825   8.241  19.917  0.00  0.00    +0.000 HD
ENDBRANCH  12  18
ENDBRANCH   1   8
BRANCH   4  20
ATOM     20  C   UNL     1       6.344   3.890  15.982  0.00  0.00    +0.000 C 
ATOM     21  C   UNL     1       6.043   3.874  14.501  0.00  0.00    +0.000 C 
ATOM     22  C   UNL     1       6.942   4.941  15.061  0.00  0.00    +0.000 C 
ENDBRANCH   4  20
BRANCH   5  23
ATOM     23  O   UNL     1       7.089   4.687  18.727  0.00  0.00    +0.000 OA
BRANCH  23  24
ATOM     24  C   UNL     1       7.633   5.930  19.179  0.00  0.00    +0.000 C 
BRANCH  24  25
ATOM     25  C   UNL     1       7.939   6.793  17.992  0.00  0.00    +0.000 C 
ATOM     26  C   UNL     1       6.960   7.818  17.481  0.00  0.00    +0.000 C 
ATOM     27  C   UNL     1       8.210   8.264  18.188  0.00  0.00    +0.000 C 
ENDBRANCH  24  25
ENDBRANCH  23  24
ENDBRANCH   5  23
TORSDOF 7
ENDMDL
MODEL 2
REMARK VINA RESULT:      -6.8      3.965      7.836
REMARK  Name = 
REMARK  7 active torsions:
REMARK  status: ('A' for Active; 'I' for Inactive)
REMARK    1  A    between atoms: C_2  and  C_3
REMARK    2  A    between atoms: C_6  and  C_7
REMARK    3  A    between atoms: C_10  and  O_11
REMARK    4  A    between atoms: O_11  and  C_12
REMARK    5  A    between atoms: C_12  and  C_13
REMARK    6  A    between atoms: C_20  and  O_21
REMARK    7  A    between atoms: C_20  and  C_22
REMARK                            x       y       z     vdW  Elec       q    Type
REMARK                         _______ _______ _______ _____ _____    ______ ____
ROOT
ATOM      1  C   UNL     1       2.835   5.972  19.099  0.00  0.00    +0.000 A 
ATOM      2  C   UNL     1       2.219   5.615  20.284  0.00  0.00    +0.000 A 
ATOM      3  C   UNL     1       1.500   6.590  20.964  0.00  0.00    +0.000 A 
ATOM      4  C   UNL     1       1.369   7.896  20.452  0.00  0.00    +0.000 A 
ATOM      5  C   UNL     1       2.017   8.130  19.234  0.00  0.00    +0.000 A 
ATOM      6  N   UNL     1       2.746   7.211  18.568  0.00  0.00    +0.000 NA
ENDROOT
BRANCH   1   8
ATOM      7  O   UNL     1       2.897   3.881  18.042  0.00  0.00    +0.000 OA
ATOM      8  C   UNL     1       3.518   4.917  18.292  0.00  0.00    +0.000 C 
ATOM      9  N   UNL     1       4.802   5.119  17.807  0.00  0.00    +0.000 N 
ATOM     10  C   UNL     1       5.800   6.090  18.211  0.00  0.00    +0.000 C 
ATOM     11  C   UNL     1       6.687   6.200  16.979  0.00  0.00    +0.000 C 
ATOM     12  C   UNL     1       6.675   4.779  16.373  0.00  0.00    +0.000 C 
ATOM     13  C   UNL     1       5.413   4.122  16.947  0.00  0.00    +0.000 C 
BRANCH  12  14
ATOM     14  C   UNL     1       6.662   4.789  14.829  0.00  0.00    +0.000 C 
ATOM     15  F   UNL     1       7.811   5.259  14.295  0.00  0.00    +0.000 F 
ATOM     16  F   UNL     1       6.521   3.515  14.372  0.00  0.00    +0.000 F 
ATOM     17  F   UNL     1       5.646   5.506  14.301  0.00  0.00    +0.000 F 
ENDBRANCH  12  14
BRANCH  12  18
ATOM     18  O   UNL     1       7.844   4.103  16.907  0.00  0.00    +0.000 OA
ATOM     19  H   UNL     1       8.569   4.218  16.258  0.00  0.00    +0.000 HD
ENDBRANCH  12  18
ENDBRANCH   1   8
BRANCH   4  20
ATOM     20  C   UNL     1       0.535   8.887  21.240  0.00  0.00    +0.000 C 
ATOM     21  C   UNL     1      -0.114   8.614  22.577  0.00  0.00    +0.000 C 
ATOM     22  C   UNL     1       1.155   9.417  22.522  0.00  0.00    +0.000 C 
ENDBRANCH   4  20
BRANCH   5  23
ATOM     23  O   UNL     1       1.886   9.380  18.660  0.00  0.00    +0.000 OA
BRANCH  23  24
ATOM     24  C   UNL     1       0.867   9.427  17.658  0.00  0.00    +0.000 C 
BRANCH  24  25
ATOM     25  C   UNL     1      -0.424   9.853  18.290  0.00  0.00    +0.000 C 
ATOM     26  C   UNL     1      -0.947  11.259  18.156  0.00  0.00    +0.000 C 
ATOM     27  C   UNL     1      -1.623  10.137  17.420  0.00  0.00    +0.000 C 
ENDBRANCH  24  25
ENDBRANCH  23  24
ENDBRANCH   5  23
TORSDOF 7
ENDMDL
MODEL 3
REMARK VINA RESULT:      -6.8      3.896      7.939
REMARK  Name = 
REMARK  7 active torsions:
REMARK  status: ('A' for Active; 'I' for Inactive)
REMARK    1  A    between atoms: C_2  and  C_3
REMARK    2  A    between atoms: C_6  and  C_7
REMARK    3  A    between atoms: C_10  and  O_11
REMARK    4  A    between atoms: O_11  and  C_12
REMARK    5  A    between atoms: C_12  and  C_13
REMARK    6  A    between atoms: C_20  and  O_21
REMARK    7  A    between atoms: C_20  and  C_22
REMARK                            x       y       z     vdW  Elec       q    Type
REMARK                         _______ _______ _______ _____ _____    ______ ____
ROOT
ATOM      1  C   UNL     1       2.185   6.660  19.207  0.00  0.00    +0.000 A 
ATOM      2  C   UNL     1       1.905   6.290  20.509  0.00  0.00    +0.000 A 
ATOM      3  C   UNL     1       1.456   7.271  21.383  0.00  0.00    +0.000 A 
ATOM      4  C   UNL     1       1.256   8.599  20.956  0.00  0.00    +0.000 A 
ATOM      5  C   UNL     1       1.549   8.846  19.611  0.00  0.00    +0.000 A 
ATOM      6  N   UNL     1       2.016   7.919  18.748  0.00  0.00    +0.000 NA
ENDROOT
BRANCH   1   8
ATOM      7  O   UNL     1       1.664   4.896  17.755  0.00  0.00    +0.000 OA
ATOM      8  C   UNL     1       2.561   5.605  18.219  0.00  0.00    +0.000 C 
ATOM      9  N   UNL     1       3.878   5.456  17.810  0.00  0.00    +0.000 N 
ATOM     10  C   UNL     1       5.096   5.953  18.421  0.00  0.00    +0.000 C 
ATOM     11  C   UNL     1       6.073   5.987  17.254  0.00  0.00    +0.000 C 
ATOM     12  C   UNL     1       5.658   4.786  16.375  0.00  0.00    +0.000 C 
ATOM     13  C   UNL     1       4.209   4.488  16.780  0.00  0.00    +0.000 C 
BRANCH  12  14
ATOM     14  C   UNL     1       5.780   5.081  14.864  0.00  0.00    +0.000 C 
ATOM     15  F   UNL     1       5.163   4.155  14.095  0.00  0.00    +0.000 F 
ATOM     16  F   UNL     1       5.179   6.269  14.587  0.00  0.00    +0.000 F 
ATOM     17  F   UNL     1       7.056   5.180  14.434  0.00  0.00    +0.000 F 
ENDBRANCH  12  14
BRANCH  12  18
ATOM     18  O   UNL     1       6.500   3.676  16.786  0.00  0.00    +0.000 OA
ATOM     19  H   UNL     1       7.035   3.983  17.547  0.00  0.00    +0.000 HD
ENDBRANCH  12  18
ENDBRANCH   1   8
BRANCH   4  20
ATOM     20  C   UNL     1       0.726   9.597  21.966  0.00  0.00    +0.000 C 
ATOM     21  C   UNL     1      -0.538  10.410  21.811  0.00  0.00    +0.000 C 
ATOM     22  C   UNL     1      -0.544   9.199  22.700  0.00  0.00    +0.000 C 
ENDBRANCH   4  20
BRANCH   5  23
ATOM     23  O   UNL     1       1.329  10.120  19.122  0.00  0.00    +0.000 OA
BRANCH  23  24
ATOM     24  C   UNL     1       0.532  10.129  17.935  0.00  0.00    +0.000 C 
BRANCH  24  25
ATOM     25  C   UNL     1      -0.912  10.263  18.314  0.00  0.00    +0.000 C 
ATOM     26  C   UNL     1      -1.766  11.392  17.800  0.00  0.00    +0.000 C 
ATOM     27  C   UNL     1      -1.982   9.997  17.284  0.00  0.00    +0.000 C 
ENDBRANCH  24  25
ENDBRANCH  23  24
ENDBRANCH   5  23
TORSDOF 7
ENDMDL
MODEL 4
REMARK VINA RESULT:      -6.8      4.051      7.673
REMARK  Name = 
REMARK  7 active torsions:
REMARK  status: ('A' for Active; 'I' for Inactive)
REMARK    1  A    between atoms: C_2  and  C_3
REMARK    2  A    between atoms: C_6  and  C_7
REMARK    3  A    between atoms: C_10  and  O_11
REMARK    4  A    between atoms: O_11  and  C_12
REMARK    5  A    between atoms: C_12  and  C_13
REMARK    6  A    between atoms: C_20  and  O_21
REMARK    7  A    between atoms: C_20  and  C_22
REMARK                            x       y       z     vdW  Elec       q    Type
REMARK                         _______ _______ _______ _____ _____    ______ ____
ROOT
ATOM      1  C   UNL     1       2.787   6.192  18.745  0.00  0.00    +0.000 A 
ATOM      2  C   UNL     1       2.449   5.967  20.067  0.00  0.00    +0.000 A 
ATOM      3  C   UNL     1       1.748   6.960  20.739  0.00  0.00    +0.000 A 
ATOM      4  C   UNL     1       1.360   8.151  20.092  0.00  0.00    +0.000 A 
ATOM      5  C   UNL     1       1.738   8.253  18.749  0.00  0.00    +0.000 A 
ATOM      6  N   UNL     1       2.445   7.317  18.080  0.00  0.00    +0.000 NA
ENDROOT
BRANCH   1   8
ATOM      7  O   UNL     1       2.772   4.096  17.697  0.00  0.00    +0.000 OA
ATOM      8  C   UNL     1       3.440   5.097  17.968  0.00  0.00    +0.000 C 
ATOM      9  N   UNL     1       4.751   5.225  17.532  0.00  0.00    +0.000 N 
ATOM     10  C   UNL     1       5.786   6.141  17.971  0.00  0.00    +0.000 C 
ATOM     11  C   UNL     1       6.724   6.195  16.774  0.00  0.00    +0.000 C 
ATOM     12  C   UNL     1       6.655   4.774  16.171  0.00  0.00    +0.000 C 
ATOM     13  C   UNL     1       5.338   4.191  16.698  0.00  0.00    +0.000 C 
BRANCH  12  14
ATOM     14  C   UNL     1       6.701   4.777  14.627  0.00  0.00    +0.000 C 
ATOM     15  F   UNL     1       7.848   5.296  14.135  0.00  0.00    +0.000 F 
ATOM     16  F   UNL     1       6.635   3.497  14.173  0.00  0.00    +0.000 F 
ATOM     17  F   UNL     1       5.676   5.446  14.058  0.00  0.00    +0.000 F 
ENDBRANCH  12  14
BRANCH  12  18
ATOM     18  O   UNL     1       7.763   4.036  16.751  0.00  0.00    +0.000 OA
ATOM     19  H   UNL     1       8.582   4.535  16.552  0.00  0.00    +0.000 HD
ENDBRANCH  12  18
ENDBRANCH   1   8
BRANCH   4  20
ATOM     20  C   UNL     1       0.564   9.164  20.889  0.00  0.00    +0.000 C 
ATOM     21  C   UNL     1      -0.355   8.841  22.044  0.00  0.00    +0.000 C 
ATOM     22  C   UNL     1       1.015   9.394  22.322  0.00  0.00    +0.000 C 
ENDBRANCH   4  20
BRANCH   5  23
ATOM     23  O   UNL     1       1.345   9.378  18.049  0.00  0.00    +0.000 OA
BRANCH  23  24
ATOM     24  C   UNL     1       2.336  10.409  18.055  0.00  0.00    +0.000 C 
BRANCH  24  25
ATOM     25  C   UNL     1       1.668  11.732  18.278  0.00  0.00    +0.000 C 
ATOM     26  C   UNL     1       1.654  12.396  19.630  0.00  0.00    +0.000 C 
ATOM     27  C   UNL     1       2.507  12.960  18.528  0.00  0.00    +0.000 C 
ENDBRANCH  24  25
ENDBRANCH  23  24
ENDBRANCH   5  23
TORSDOF 7
ENDMDL
MODEL 5
REMARK VINA RESULT:      -6.8      3.926      7.968
REMARK  Name = 
REMARK  7 active torsions:
REMARK  status: ('A' for Active; 'I' for Inactive)
REMARK    1  A    between atoms: C_2  and  C_3
REMARK    2  A    between atoms: C_6  and  C_7
REMARK    3  A    between atoms: C_10  and  O_11
REMARK    4  A    between atoms: O_11  and  C_12
REMARK    5  A    between atoms: C_12  and  C_13
REMARK    6  A    between atoms: C_20  and  O_21
REMARK    7  A    between atoms: C_20  and  C_22
REMARK                            x       y       z     vdW  Elec       q    Type
REMARK                         _______ _______ _______ _____ _____    ______ ____
ROOT
ATOM      1  C   UNL     1       2.384   7.109  18.357  0.00  0.00    +0.000 A 
ATOM      2  C   UNL     1       2.422   8.183  17.488  0.00  0.00    +0.000 A 
ATOM      3  C   UNL     1       1.949   9.407  17.944  0.00  0.00    +0.000 A 
ATOM      4  C   UNL     1       1.474   9.566  19.262  0.00  0.00    +0.000 A 
ATOM      5  C   UNL     1       1.508   8.413  20.054  0.00  0.00    +0.000 A 
ATOM      6  N   UNL     1       1.934   7.205  19.627  0.00  0.00    +0.000 NA
ENDROOT
BRANCH   1   8
ATOM      7  O   UNL     1       2.265   4.813  17.903  0.00  0.00    +0.000 OA
ATOM      8  C   UNL     1       2.989   5.811  17.932  0.00  0.00    +0.000 C 
ATOM      9  N   UNL     1       4.320   5.745  17.544  0.00  0.00    +0.000 N 
ATOM     10  C   UNL     1       5.397   6.687  17.776  0.00  0.00    +0.000 C 
ATOM     11  C   UNL     1       6.377   6.368  16.656  0.00  0.00    +0.000 C 
ATOM     12  C   UNL     1       6.234   4.843  16.449  0.00  0.00    +0.000 C 
ATOM     13  C   UNL     1       4.864   4.495  17.044  0.00  0.00    +0.000 C 
BRANCH  12  14
ATOM     14  C   UNL     1       6.333   4.430  14.964  0.00  0.00    +0.000 C 
ATOM     15  F   UNL     1       5.387   5.010  14.191  0.00  0.00    +0.000 F 
ATOM     16  F   UNL     1       7.533   4.829  14.464  0.00  0.00    +0.000 F 
ATOM     17  F   UNL     1       6.254   3.096  14.768  0.00  0.00    +0.000 F 
ENDBRANCH  12  14
BRANCH  12  18
ATOM     18  O   UNL     1       7.271   4.227  17.259  0.00  0.00    +0.000 OA
ATOM     19  H   UNL     1       6.826   3.644  17.907  0.00  0.00    +0.000 HD
ENDBRANCH  12  18
ENDBRANCH   1   8
BRANCH   4  20
ATOM     20  C   UNL     1       1.013  10.945  19.688  0.00  0.00    +0.000 C 
ATOM     21  C   UNL     1       0.726  12.098  18.755  0.00  0.00    +0.000 C 
ATOM     22  C   UNL     1      -0.418  11.313  19.333  0.00  0.00    +0.000 C 
ENDBRANCH   4  20
BRANCH   5  23
ATOM     23  O   UNL     1       1.098   8.518  21.369  0.00  0.00    +0.000 OA
BRANCH  23  24
ATOM     24  C   UNL     1      -0.305   8.296  21.533  0.00  0.00    +0.000 C 
BRANCH  24  25
ATOM     25  C   UNL     1      -0.757   8.930  22.813  0.00  0.00    +0.000 C 
ATOM     26  C   UNL     1       0.208   9.618  23.742  0.00  0.00    +0.000 C 
ATOM     27  C   UNL     1      -0.767  10.433  22.939  0.00  0.00    +0.000 C 
ENDBRANCH  24  25
ENDBRANCH  23  24
ENDBRANCH   5  23
TORSDOF 7
ENDMDL
MODEL 6
REMARK VINA RESULT:      -6.7      2.452      3.616
REMARK  Name = 
REMARK  7 active torsions:
REMARK  status: ('A' for Active; 'I' for Inactive)
REMARK    1  A    between atoms: C_2  and  C_3
REMARK    2  A    between atoms: C_6  and  C_7
REMARK    3  A    between atoms: C_10  and  O_11
REMARK    4  A    between atoms: O_11  and  C_12
REMARK    5  A    between atoms: C_12  and  C_13
REMARK    6  A    between atoms: C_20  and  O_21
REMARK    7  A    between atoms: C_20  and  C_22
REMARK                            x       y       z     vdW  Elec       q    Type
REMARK                         _______ _______ _______ _____ _____    ______ ____
ROOT
ATOM      1  C   UNL     1       2.705   6.803  18.230  0.00  0.00    +0.000 A 
ATOM      2  C   UNL     1       1.687   5.880  18.373  0.00  0.00    +0.000 A 
ATOM      3  C   UNL     1       2.035   4.559  18.623  0.00  0.00    +0.000 A 
ATOM      4  C   UNL     1       3.382   4.168  18.760  0.00  0.00    +0.000 A 
ATOM      5  C   UNL     1       4.321   5.196  18.618  0.00  0.00    +0.000 A 
ATOM      6  N   UNL     1       4.012   6.481  18.346  0.00  0.00    +0.000 NA
ENDROOT
BRANCH   1   8
ATOM      7  O   UNL     1       2.701   8.820  17.037  0.00  0.00    +0.000 OA
ATOM      8  C   UNL     1       2.357   8.247  18.073  0.00  0.00    +0.000 C 
ATOM      9  N   UNL     1       1.634   8.910  19.054  0.00  0.00    +0.000 N 
ATOM     10  C   UNL     1       1.394   8.539  20.435  0.00  0.00    +0.000 C 
ATOM     11  C   UNL     1       0.118   9.296  20.775  0.00  0.00    +0.000 C 
ATOM     12  C   UNL     1       0.222  10.604  19.959  0.00  0.00    +0.000 C 
ATOM     13  C   UNL     1       1.224  10.287  18.842  0.00  0.00    +0.000 C 
BRANCH  12  14
ATOM     14  C   UNL     1      -1.138  11.065  19.392  0.00  0.00    +0.000 C 
ATOM     15  F   UNL     1      -1.937  11.624  20.328  0.00  0.00    +0.000 F 
ATOM     16  F   UNL     1      -0.932  12.019  18.446  0.00  0.00    +0.000 F 
ATOM     17  F   UNL     1      -1.840  10.074  18.799  0.00  0.00    +0.000 F 
ENDBRANCH  12  14
BRANCH  12  18
ATOM     18  O   UNL     1       0.807  11.590  20.851  0.00  0.00    +0.000 OA
ATOM     19  H   UNL     1       1.728  11.310  21.032  0.00  0.00    +0.000 HD
ENDBRANCH  12  18
ENDBRANCH   1   8
BRANCH   4  20
ATOM     20  C   UNL     1       3.671   2.713  19.070  0.00  0.00    +0.000 C 
ATOM     21  C   UNL     1       2.659   1.592  19.025  0.00  0.00    +0.000 C 
ATOM     22  C   UNL     1       3.632   1.755  17.891  0.00  0.00    +0.000 C 
ENDBRANCH   4  20
BRANCH   5  23
ATOM     23  O   UNL     1       5.656   4.882  18.788  0.00  0.00    +0.000 OA
BRANCH  23  24
ATOM     24  C   UNL     1       6.472   5.317  17.697  0.00  0.00    +0.000 C 
BRANCH  24  25
ATOM     25  C   UNL     1       6.387   4.311  16.589  0.00  0.00    +0.000 C 
ATOM     26  C   UNL     1       5.475   4.506  15.407  0.00  0.00    +0.000 C 
ATOM     27  C   UNL     1       6.962   4.642  15.234  0.00  0.00    +0.000 C 
ENDBRANCH  24  25
ENDBRANCH  23  24
ENDBRANCH   5  23
TORSDOF 7
ENDMDL
MODEL 7
REMARK VINA RESULT:      -6.7      2.423      3.691
REMARK  Name = 
REMARK  7 active torsions:
REMARK  status: ('A' for Active; 'I' for Inactive)
REMARK    1  A    between atoms: C_2  and  C_3
REMARK    2  A    between atoms: C_6  and  C_7
REMARK    3  A    between atoms: C_10  and  O_11
REMARK    4  A    between atoms: O_11  and  C_12
REMARK    5  A    between atoms: C_12  and  C_13
REMARK    6  A    between atoms: C_20  and  O_21
REMARK    7  A    between atoms: C_20  and  C_22
REMARK                            x       y       z     vdW  Elec       q    Type
REMARK                         _______ _______ _______ _____ _____    ______ ____
ROOT
ATOM      1  C   UNL     1       2.156   6.843  19.969  0.00  0.00    +0.000 A 
ATOM      2  C   UNL     1       1.732   5.646  20.515  0.00  0.00    +0.000 A 
ATOM      3  C   UNL     1       2.426   4.492  20.174  0.00  0.00    +0.000 A 
ATOM      4  C   UNL     1       3.550   4.535  19.325  0.00  0.00    +0.000 A 
ATOM      5  C   UNL     1       3.897   5.806  18.855  0.00  0.00    +0.000 A 
ATOM      6  N   UNL     1       3.223   6.939  19.146  0.00  0.00    +0.000 NA
ENDROOT
BRANCH   1   8
ATOM      7  O   UNL     1       1.123   8.199  21.578  0.00  0.00    +0.000 OA
ATOM      8  C   UNL     1       1.500   8.112  20.406  0.00  0.00    +0.000 C 
ATOM      9  N   UNL     1       1.355   9.173  19.525  0.00  0.00    +0.000 N 
ATOM     10  C   UNL     1       1.445   9.191  18.078  0.00  0.00    +0.000 C 
ATOM     11  C   UNL     1       1.787  10.642  17.775  0.00  0.00    +0.000 C 
ATOM     12  C   UNL     1       1.050  11.444  18.871  0.00  0.00    +0.000 C 
ATOM     13  C   UNL     1       0.800  10.430  19.994  0.00  0.00    +0.000 C 
BRANCH  12  14
ATOM     14  C   UNL     1       1.862  12.660  19.369  0.00  0.00    +0.000 C 
ATOM     15  F   UNL     1       2.989  12.870  18.654  0.00  0.00    +0.000 F 
ATOM     16  F   UNL     1       1.111  13.787  19.239  0.00  0.00    +0.000 F 
ATOM     17  F   UNL     1       2.215  12.577  20.670  0.00  0.00    +0.000 F 
ENDBRANCH  12  14
BRANCH  12  18
ATOM     18  O   UNL     1      -0.225  11.835  18.296  0.00  0.00    +0.000 OA
ATOM     19  H   UNL     1      -0.588  12.553  18.854  0.00  0.00    +0.000 HD
ENDBRANCH  12  18
ENDBRANCH   1   8
BRANCH   4  20
ATOM     20  C   UNL     1       4.271   3.234  19.036  0.00  0.00    +0.000 C 
ATOM     21  C   UNL     1       3.680   1.853  19.197  0.00  0.00    +0.000 C 
ATOM     22  C   UNL     1       3.789   2.454  17.824  0.00  0.00    +0.000 C 
ENDBRANCH   4  20
BRANCH   5  23
ATOM     23  O   UNL     1       5.019   5.918  18.055  0.00  0.00    +0.000 OA
BRANCH  23  24
ATOM     24  C   UNL     1       4.700   6.200  16.690  0.00  0.00    +0.000 C 
BRANCH  24  25
ATOM     25  C   UNL     1       5.769   5.629  15.808  0.00  0.00    +0.000 C 
ATOM     26  C   UNL     1       6.530   4.385  16.186  0.00  0.00    +0.000 C 
ATOM     27  C   UNL     1       5.519   4.335  15.074  0.00  0.00    +0.000 C 
ENDBRANCH  24  25
ENDBRANCH  23  24
ENDBRANCH   5  23
TORSDOF 7
ENDMDL
MODEL 8
REMARK VINA RESULT:      -6.6      2.466      3.398
REMARK  Name = 
REMARK  7 active torsions:
REMARK  status: ('A' for Active; 'I' for Inactive)
REMARK    1  A    between atoms: C_2  and  C_3
REMARK    2  A    between atoms: C_6  and  C_7
REMARK    3  A    between atoms: C_10  and  O_11
REMARK    4  A    between atoms: O_11  and  C_12
REMARK    5  A    between atoms: C_12  and  C_13
REMARK    6  A    between atoms: C_20  and  O_21
REMARK    7  A    between atoms: C_20  and  C_22
REMARK                            x       y       z     vdW  Elec       q    Type
REMARK                         _______ _______ _______ _____ _____    ______ ____
ROOT
ATOM      1  C   UNL     1       2.679   6.711  18.296  0.00  0.00    +0.000 A 
ATOM      2  C   UNL     1       1.657   5.848  18.644  0.00  0.00    +0.000 A 
ATOM      3  C   UNL     1       1.983   4.523  18.905  0.00  0.00    +0.000 A 
ATOM      4  C   UNL     1       3.316   4.071  18.853  0.00  0.00    +0.000 A 
ATOM      5  C   UNL     1       4.265   5.042  18.514  0.00  0.00    +0.000 A 
ATOM      6  N   UNL     1       3.973   6.328  18.226  0.00  0.00    +0.000 NA
ENDROOT
BRANCH   1   8
ATOM      7  O   UNL     1       2.743   8.713  17.081  0.00  0.00    +0.000 OA
ATOM      8  C   UNL     1       2.374   8.162  18.121  0.00  0.00    +0.000 C 
ATOM      9  N   UNL     1       1.661   8.857  19.087  0.00  0.00    +0.000 N 
ATOM     10  C   UNL     1       1.397   8.508  20.470  0.00  0.00    +0.000 C 
ATOM     11  C   UNL     1       0.141   9.305  20.789  0.00  0.00    +0.000 C 
ATOM     12  C   UNL     1       0.290  10.600  19.959  0.00  0.00    +0.000 C 
ATOM     13  C   UNL     1       1.292  10.242  18.855  0.00  0.00    +0.000 C 
BRANCH  12  14
ATOM     14  C   UNL     1      -1.052  11.093  19.374  0.00  0.00    +0.000 C 
ATOM     15  F   UNL     1      -1.791  10.096  18.838  0.00  0.00    +0.000 F 
ATOM     16  F   UNL     1      -1.805  11.634  20.369  0.00  0.00    +0.000 F 
ATOM     17  F   UNL     1      -0.911  12.047  18.429  0.00  0.00    +0.000 F 
ENDBRANCH  12  14
BRANCH  12  18
ATOM     18  O   UNL     1       0.894  11.579  20.846  0.00  0.00    +0.000 OA
ATOM     19  H   UNL     1       0.678  12.466  20.490  0.00  0.00    +0.000 HD
ENDBRANCH  12  18
ENDBRANCH   1   8
BRANCH   4  20
ATOM     20  C   UNL     1       3.587   2.619  19.190  0.00  0.00    +0.000 C 
ATOM     21  C   UNL     1       2.565   1.507  19.148  0.00  0.00    +0.000 C 
ATOM     22  C   UNL     1       3.555   1.642  18.027  0.00  0.00    +0.000 C 
ENDBRANCH   4  20
BRANCH   5  23
ATOM     23  O   UNL     1       5.595   4.669  18.492  0.00  0.00    +0.000 OA
BRANCH  23  24
ATOM     24  C   UNL     1       6.434   5.561  19.231  0.00  0.00    +0.000 C 
BRANCH  24  25
ATOM     25  C   UNL     1       7.575   5.996  18.361  0.00  0.00    +0.000 C 
ATOM     26  C   UNL     1       7.375   6.363  16.914  0.00  0.00    +0.000 C 
ATOM     27  C   UNL     1       7.673   7.436  17.924  0.00  0.00    +0.000 C 
ENDBRANCH  24  25
ENDBRANCH  23  24
ENDBRANCH   5  23
TORSDOF 7
ENDMDL
MODEL 9
REMARK VINA RESULT:      -6.6      3.013      4.681
REMARK  Name = 
REMARK  7 active torsions:
REMARK  status: ('A' for Active; 'I' for Inactive)
REMARK    1  A    between atoms: C_2  and  C_3
REMARK    2  A    between atoms: C_6  and  C_7
REMARK    3  A    between atoms: C_10  and  O_11
REMARK    4  A    between atoms: O_11  and  C_12
REMARK    5  A    between atoms: C_12  and  C_13
REMARK    6  A    between atoms: C_20  and  O_21
REMARK    7  A    between atoms: C_20  and  C_22
REMARK                            x       y       z     vdW  Elec       q    Type
REMARK                         _______ _______ _______ _____ _____    ______ ____
ROOT
ATOM      1  C   UNL     1       2.118   7.202  18.891  0.00  0.00    +0.000 A 
ATOM      2  C   UNL     1       1.847   6.946  20.223  0.00  0.00    +0.000 A 
ATOM      3  C   UNL     1       2.032   5.651  20.688  0.00  0.00    +0.000 A 
ATOM      4  C   UNL     1       2.512   4.629  19.845  0.00  0.00    +0.000 A 
ATOM      5  C   UNL     1       2.774   5.015  18.526  0.00  0.00    +0.000 A 
ATOM      6  N   UNL     1       2.575   6.258  18.039  0.00  0.00    +0.000 NA
ENDROOT
BRANCH   1   8
ATOM      7  O   UNL     1       2.644   8.894  17.358  0.00  0.00    +0.000 OA
ATOM      8  C   UNL     1       2.036   8.607  18.392  0.00  0.00    +0.000 C 
ATOM      9  N   UNL     1       1.266   9.550  19.058  0.00  0.00    +0.000 N 
ATOM     10  C   UNL     1       0.731   9.521  20.405  0.00  0.00    +0.000 C 
ATOM     11  C   UNL     1      -0.448  10.480  20.325  0.00  0.00    +0.000 C 
ATOM     12  C   UNL     1       0.004  11.555  19.311  0.00  0.00    +0.000 C 
ATOM     13  C   UNL     1       1.124  10.885  18.505  0.00  0.00    +0.000 C 
BRANCH  12  14
ATOM     14  C   UNL     1      -1.145  12.038  18.400  0.00  0.00    +0.000 C 
ATOM     15  F   UNL     1      -0.814  13.122  17.663  0.00  0.00    +0.000 F 
ATOM     16  F   UNL     1      -1.461  11.056  17.514  0.00  0.00    +0.000 F 
ATOM     17  F   UNL     1      -2.279  12.335  19.071  0.00  0.00    +0.000 F 
ENDBRANCH  12  14
BRANCH  12  18
ATOM     18  O   UNL     1       0.571  12.637  20.097  0.00  0.00    +0.000 OA
ATOM     19  H   UNL     1       0.387  12.441  21.039  0.00  0.00    +0.000 HD
ENDBRANCH  12  18
ENDBRANCH   1   8
BRANCH   4  20
ATOM     20  C   UNL     1       2.722   3.253  20.445  0.00  0.00    +0.000 C 
ATOM     21  C   UNL     1       1.944   2.679  21.606  0.00  0.00    +0.000 C 
ATOM     22  C   UNL     1       1.613   2.242  20.207  0.00  0.00    +0.000 C 
ENDBRANCH   4  20
BRANCH   5  23
ATOM     23  O   UNL     1       3.291   4.067  17.663  0.00  0.00    +0.000 OA
BRANCH  23  24
ATOM     24  C   UNL     1       4.698   4.212  17.458  0.00  0.00    +0.000 C 
BRANCH  24  25
ATOM     25  C   UNL     1       4.973   4.308  15.987  0.00  0.00    +0.000 C 
ATOM     26  C   UNL     1       5.541   5.556  15.365  0.00  0.00    +0.000 C 
ATOM     27  C   UNL     1       6.398   4.328  15.494  0.00  0.00    +0.000 C 
ENDBRANCH  24  25
ENDBRANCH  23  24
ENDBRANCH   5  23
TORSDOF 7
ENDMDL
