MODEL 1
REMARK VINA RESULT:      -7.4      0.000      0.000
REMARK  Name = 
REMARK  7 active torsions:
REMARK  status: ('A' for Active; 'I' for Inactive)
REMARK    1  A    between atoms: C_1  and  O_2
REMARK    2  A    between atoms: O_2  and  C_3
REMARK    3  A    between atoms: C_6  and  C_7
REMARK    4  A    between atoms: C_7  and  C_8
REMARK    5  A    between atoms: C_11  and  C_12
REMARK    6  A    between atoms: C_20  and  O_21
REMARK    7  A    between atoms: O_21  and  C_22
REMARK                            x       y       z     vdW  Elec       q    Type
REMARK                         _______ _______ _______ _____ _____    ______ ____
ROOT
ATOM      1  C   UNL     1       6.252   6.197  16.462  0.00  0.00    +0.000 C 
ENDROOT
BRANCH   1   5
ATOM      2  C   UNL     1       2.670   4.878  18.508  0.00  0.00    +0.000 A 
ATOM      3  C   UNL     1       2.851   6.229  18.170  0.00  0.00    +0.000 A 
ATOM      4  C   UNL     1       4.003   6.657  17.509  0.00  0.00    +0.000 A 
ATOM      5  C   UNL     1       5.021   5.749  17.207  0.00  0.00    +0.000 A 
ATOM      6  C   UNL     1       4.877   4.420  17.632  0.00  0.00    +0.000 A 
ATOM      7  C   UNL     1       3.717   3.972  18.287  0.00  0.00    +0.000 A 
BRANCH   2   9
ATOM      8  C   UNL     1       1.433   4.561  20.498  0.00  0.00    +0.000 C 
ATOM      9  O   UNL     1       1.499   4.450  19.075  0.00  0.00    +0.000 OA
ENDBRANCH   2   9
BRANCH   7  10
ATOM     10  O   UNL     1       3.791   2.643  18.610  0.00  0.00    +0.000 OA
ATOM     11  C   UNL     1       4.293   2.268  19.882  0.00  0.00    +0.000 C 
ENDBRANCH   7  10
ENDBRANCH   1   5
BRANCH   1  12
ATOM     12  C   UNL     1       7.056   7.037  17.389  0.00  0.00    +0.000 A 
ATOM     13  N   UNL     1       7.855   6.521  18.337  0.00  0.00    +0.000 NA
ATOM     14  O   UNL     1       8.525   7.644  18.835  0.00  0.00    +0.000 OA
ATOM     15  C   UNL     1       8.079   8.720  18.117  0.00  0.00    +0.000 A 
ATOM     16  N   UNL     1       7.161   8.399  17.230  0.00  0.00    +0.000 NA
BRANCH  15  17
ATOM     17  C   UNL     1       8.714  10.010  18.372  0.00  0.00    +0.000 A 
ATOM     18  C   UNL     1       8.473  11.137  17.571  0.00  0.00    +0.000 A 
ATOM     19  C   UNL     1       9.054  12.371  17.885  0.00  0.00    +0.000 A 
ATOM     20  C   UNL     1       9.883  12.494  18.997  0.00  0.00    +0.000 A 
ATOM     21  C   UNL     1      10.143  11.383  19.790  0.00  0.00    +0.000 A 
ATOM     22  C   UNL     1       9.559  10.150  19.484  0.00  0.00    +0.000 A 
ENDBRANCH  15  17
ENDBRANCH   1  12
TORSDOF 5
ENDMDL
MODEL 2
REMARK VINA RESULT:      -7.3      3.629      6.186
REMARK  Name = 
REMARK  7 active torsions:
REMARK  status: ('A' for Active; 'I' for Inactive)
REMARK    1  A    between atoms: C_1  and  O_2
REMARK    2  A    between atoms: O_2  and  C_3
REMARK    3  A    between atoms: C_6  and  C_7
REMARK    4  A    between atoms: C_7  and  C_8
REMARK    5  A    between atoms: C_11  and  C_12
REMARK    6  A    between atoms: C_20  and  O_21
REMARK    7  A    between atoms: O_21  and  C_22
REMARK                            x       y       z     vdW  Elec       q    Type
REMARK                         _______ _______ _______ _____ _____    ______ ____
ROOT
ATOM      1  C   UNL     1       5.733   6.519  17.490  0.00  0.00    +0.000 C 
ENDROOT
BRANCH   1   5
ATOM      2  C   UNL     1       2.323   4.028  18.447  0.00  0.00    +0.000 A 
ATOM      3  C   UNL     1       2.158   5.387  18.139  0.00  0.00    +0.000 A 
ATOM      4  C   UNL     1       3.254   6.193  17.828  0.00  0.00    +0.000 A 
ATOM      5  C   UNL     1       4.548   5.666  17.859  0.00  0.00    +0.000 A 
ATOM      6  C   UNL     1       4.715   4.331  18.260  0.00  0.00    +0.000 A 
ATOM      7  C   UNL     1       3.619   3.505  18.563  0.00  0.00    +0.000 A 
BRANCH   2   9
ATOM      8  C   UNL     1       0.798   3.138  20.019  0.00  0.00    +0.000 C 
ATOM      9  O   UNL     1       1.237   3.222  18.662  0.00  0.00    +0.000 OA
ENDBRANCH   2   9
BRANCH   7  10
ATOM     10  O   UNL     1       4.013   2.245  18.931  0.00  0.00    +0.000 OA
ATOM     11  C   UNL     1       4.465   2.022  20.256  0.00  0.00    +0.000 C 
ENDBRANCH   7  10
ENDBRANCH   1   5
BRANCH   1  12
ATOM     12  C   UNL     1       6.284   5.992  16.214  0.00  0.00    +0.000 A 
ATOM     13  N   UNL     1       7.600   5.949  15.948  0.00  0.00    +0.000 NA
ATOM     14  O   UNL     1       7.659   5.238  14.745  0.00  0.00    +0.000 OA
ATOM     15  C   UNL     1       6.373   4.901  14.422  0.00  0.00    +0.000 A 
ATOM     16  N   UNL     1       5.491   5.359  15.285  0.00  0.00    +0.000 NA
BRANCH  15  17
ATOM     17  C   UNL     1       6.173   4.050  13.253  0.00  0.00    +0.000 A 
ATOM     18  C   UNL     1       7.244   3.481  12.546  0.00  0.00    +0.000 A 
ATOM     19  C   UNL     1       7.008   2.621  11.467  0.00  0.00    +0.000 A 
ATOM     20  C   UNL     1       5.705   2.322  11.079  0.00  0.00    +0.000 A 
ATOM     21  C   UNL     1       4.635   2.891  11.760  0.00  0.00    +0.000 A 
ATOM     22  C   UNL     1       4.866   3.745  12.842  0.00  0.00    +0.000 A 
ENDBRANCH  15  17
ENDBRANCH   1  12
TORSDOF 5
ENDMDL
MODEL 3
REMARK VINA RESULT:      -7.3      1.492      2.346
REMARK  Name = 
REMARK  7 active torsions:
REMARK  status: ('A' for Active; 'I' for Inactive)
REMARK    1  A    between atoms: C_1  and  O_2
REMARK    2  A    between atoms: O_2  and  C_3
REMARK    3  A    between atoms: C_6  and  C_7
REMARK    4  A    between atoms: C_7  and  C_8
REMARK    5  A    between atoms: C_11  and  C_12
REMARK    6  A    between atoms: C_20  and  O_21
REMARK    7  A    between atoms: O_21  and  C_22
REMARK                            x       y       z     vdW  Elec       q    Type
REMARK                         _______ _______ _______ _____ _____    ______ ____
ROOT
ATOM      1  C   UNL     1       7.157   4.911  18.285  0.00  0.00    +0.000 C 
ENDROOT
BRANCH   1   5
ATOM      2  C   UNL     1       2.866   4.325  18.281  0.00  0.00    +0.000 A 
ATOM      3  C   UNL     1       3.677   3.721  17.307  0.00  0.00    +0.000 A 
ATOM      4  C   UNL     1       5.060   3.906  17.307  0.00  0.00    +0.000 A 
ATOM      5  C   UNL     1       5.661   4.734  18.257  0.00  0.00    +0.000 A 
ATOM      6  C   UNL     1       4.836   5.411  19.169  0.00  0.00    +0.000 A 
ATOM      7  C   UNL     1       3.444   5.224  19.190  0.00  0.00    +0.000 A 
BRANCH   2   9
ATOM      8  C   UNL     1       1.171   2.699  18.545  0.00  0.00    +0.000 C 
ATOM      9  O   UNL     1       1.522   4.067  18.331  0.00  0.00    +0.000 OA
ENDBRANCH   2   9
BRANCH   7  10
ATOM     10  O   UNL     1       2.839   5.981  20.158  0.00  0.00    +0.000 OA
ATOM     11  C   UNL     1       2.209   7.197  19.791  0.00  0.00    +0.000 C 
ENDBRANCH   7  10
ENDBRANCH   1   5
BRANCH   1  12
ATOM     12  C   UNL     1       7.451   6.308  17.868  0.00  0.00    +0.000 A 
ATOM     13  N   UNL     1       6.867   6.893  16.809  0.00  0.00    +0.000 NA
ATOM     14  O   UNL     1       7.300   8.220  16.899  0.00  0.00    +0.000 OA
ATOM     15  C   UNL     1       8.080   8.306  18.020  0.00  0.00    +0.000 A 
ATOM     16  N   UNL     1       8.217   7.152  18.638  0.00  0.00    +0.000 NA
BRANCH  15  17
ATOM     17  C   UNL     1       8.569   9.627  18.401  0.00  0.00    +0.000 A 
ATOM     18  C   UNL     1       9.290   9.848  19.584  0.00  0.00    +0.000 A 
ATOM     19  C   UNL     1       9.793  11.120  19.884  0.00  0.00    +0.000 A 
ATOM     20  C   UNL     1       9.581  12.183  19.011  0.00  0.00    +0.000 A 
ATOM     21  C   UNL     1       8.855  11.982  17.843  0.00  0.00    +0.000 A 
ATOM     22  C   UNL     1       8.356  10.713  17.537  0.00  0.00    +0.000 A 
ENDBRANCH  15  17
ENDBRANCH   1  12
TORSDOF 5
ENDMDL
MODEL 4
REMARK VINA RESULT:      -7.3      1.064      2.170
REMARK  Name = 
REMARK  7 active torsions:
REMARK  status: ('A' for Active; 'I' for Inactive)
REMARK    1  A    between atoms: C_1  and  O_2
REMARK    2  A    between atoms: O_2  and  C_3
REMARK    3  A    between atoms: C_6  and  C_7
REMARK    4  A    between atoms: C_7  and  C_8
REMARK    5  A    between atoms: C_11  and  C_12
REMARK    6  A    between atoms: C_20  and  O_21
REMARK    7  A    between atoms: O_21  and  C_22
REMARK                            x       y       z     vdW  Elec       q    Type
REMARK                         _______ _______ _______ _____ _____    ______ ____
ROOT
ATOM      1  C   UNL     1       6.658   5.759  16.246  0.00  0.00    +0.000 C 
ENDROOT
BRANCH   1   5
ATOM      2  C   UNL     1       2.758   4.622  17.743  0.00  0.00    +0.000 A 
ATOM      3  C   UNL     1       3.593   3.681  17.121  0.00  0.00    +0.000 A 
ATOM      4  C   UNL     1       4.852   4.043  16.640  0.00  0.00    +0.000 A 
ATOM      5  C   UNL     1       5.287   5.367  16.731  0.00  0.00    +0.000 A 
ATOM      6  C   UNL     1       4.410   6.322  17.267  0.00  0.00    +0.000 A 
ATOM      7  C   UNL     1       3.145   5.969  17.768  0.00  0.00    +0.000 A 
BRANCH   2   9
ATOM      8  C   UNL     1       1.660   3.527  19.528  0.00  0.00    +0.000 C 
ATOM      9  O   UNL     1       1.563   4.241  18.294  0.00  0.00    +0.000 OA
ENDBRANCH   2   9
BRANCH   7  10
ATOM     10  O   UNL     1       2.459   7.057  18.241  0.00  0.00    +0.000 OA
ATOM     11  C   UNL     1       2.339   7.243  19.642  0.00  0.00    +0.000 C 
ENDBRANCH   7  10
ENDBRANCH   1   5
BRANCH   1  12
ATOM     12  C   UNL     1       7.246   6.677  17.259  0.00  0.00    +0.000 A 
ATOM     13  N   UNL     1       7.866   6.241  18.368  0.00  0.00    +0.000 NA
ATOM     14  O   UNL     1       8.395   7.413  18.918  0.00  0.00    +0.000 OA
ATOM     15  C   UNL     1       8.063   8.433  18.070  0.00  0.00    +0.000 A 
ATOM     16  N   UNL     1       7.341   8.032  17.045  0.00  0.00    +0.000 NA
BRANCH  15  17
ATOM     17  C   UNL     1       8.600   9.758  18.366  0.00  0.00    +0.000 A 
ATOM     18  C   UNL     1       9.505   9.984  19.415  0.00  0.00    +0.000 A 
ATOM     19  C   UNL     1      10.043  11.258  19.629  0.00  0.00    +0.000 A 
ATOM     20  C   UNL     1       9.684  12.320  18.803  0.00  0.00    +0.000 A 
ATOM     21  C   UNL     1       8.777  12.114  17.770  0.00  0.00    +0.000 A 
ATOM     22  C   UNL     1       8.242  10.841  17.549  0.00  0.00    +0.000 A 
ENDBRANCH  15  17
ENDBRANCH   1  12
TORSDOF 5
ENDMDL
MODEL 5
REMARK VINA RESULT:      -7.3      0.863      2.089
REMARK  Name = 
REMARK  7 active torsions:
REMARK  status: ('A' for Active; 'I' for Inactive)
REMARK    1  A    between atoms: C_1  and  O_2
REMARK    2  A    between atoms: O_2  and  C_3
REMARK    3  A    between atoms: C_6  and  C_7
REMARK    4  A    between atoms: C_7  and  C_8
REMARK    5  A    between atoms: C_11  and  C_12
REMARK    6  A    between atoms: C_20  and  O_21
REMARK    7  A    between atoms: O_21  and  C_22
REMARK                            x       y       z     vdW  Elec       q    Type
REMARK                         _______ _______ _______ _____ _____    ______ ____
ROOT
ATOM      1  C   UNL     1       6.362   6.112  16.410  0.00  0.00    +0.000 C 
ENDROOT
BRANCH   1   5
ATOM      2  C   UNL     1       2.726   4.919  18.436  0.00  0.00    +0.000 A 
ATOM      3  C   UNL     1       3.619   3.959  17.934  0.00  0.00    +0.000 A 
ATOM      4  C   UNL     1       4.793   4.340  17.283  0.00  0.00    +0.000 A 
ATOM      5  C   UNL     1       5.080   5.692  17.081  0.00  0.00    +0.000 A 
ATOM      6  C   UNL     1       4.138   6.644  17.499  0.00  0.00    +0.000 A 
ATOM      7  C   UNL     1       2.958   6.275  18.168  0.00  0.00    +0.000 A 
BRANCH   2   9
ATOM      8  C   UNL     1       1.776   4.572  20.573  0.00  0.00    +0.000 C 
ATOM      9  O   UNL     1       1.622   4.540  19.153  0.00  0.00    +0.000 OA
ENDBRANCH   2   9
BRANCH   7  10
ATOM     10  O   UNL     1       2.186   7.362  18.483  0.00  0.00    +0.000 OA
ATOM     11  C   UNL     1       2.497   8.621  17.908  0.00  0.00    +0.000 C 
ENDBRANCH   7  10
ENDBRANCH   1   5
BRANCH   1  12
ATOM     12  C   UNL     1       7.115   6.959  17.374  0.00  0.00    +0.000 A 
ATOM     13  N   UNL     1       7.863   6.450  18.366  0.00  0.00    +0.000 NA
ATOM     14  O   UNL     1       8.504   7.576  18.892  0.00  0.00    +0.000 OA
ATOM     15  C   UNL     1       8.097   8.647  18.145  0.00  0.00    +0.000 A 
ATOM     16  N   UNL     1       7.227   8.321  17.212  0.00  0.00    +0.000 NA
BRANCH  15  17
ATOM     17  C   UNL     1       8.716   9.940  18.426  0.00  0.00    +0.000 A 
ATOM     18  C   UNL     1       8.559  11.047  17.579  0.00  0.00    +0.000 A 
ATOM     19  C   UNL     1       9.119  12.285  17.915  0.00  0.00    +0.000 A 
ATOM     20  C   UNL     1       9.843  12.432  19.095  0.00  0.00    +0.000 A 
ATOM     21  C   UNL     1      10.020  11.339  19.936  0.00  0.00    +0.000 A 
ATOM     22  C   UNL     1       9.456  10.103  19.608  0.00  0.00    +0.000 A 
ENDBRANCH  15  17
ENDBRANCH   1  12
TORSDOF 5
ENDMDL
MODEL 6
REMARK VINA RESULT:      -7.2      0.576      1.143
REMARK  Name = 
REMARK  7 active torsions:
REMARK  status: ('A' for Active; 'I' for Inactive)
REMARK    1  A    between atoms: C_1  and  O_2
REMARK    2  A    between atoms: O_2  and  C_3
REMARK    3  A    between atoms: C_6  and  C_7
REMARK    4  A    between atoms: C_7  and  C_8
REMARK    5  A    between atoms: C_11  and  C_12
REMARK    6  A    between atoms: C_20  and  O_21
REMARK    7  A    between atoms: O_21  and  C_22
REMARK                            x       y       z     vdW  Elec       q    Type
REMARK                         _______ _______ _______ _____ _____    ______ ____
ROOT
ATOM      1  C   UNL     1       6.334   6.414  16.557  0.00  0.00    +0.000 C 
ENDROOT
BRANCH   1   5
ATOM      2  C   UNL     1       2.754   5.048  18.575  0.00  0.00    +0.000 A 
ATOM      3  C   UNL     1       2.890   6.388  18.177  0.00  0.00    +0.000 A 
ATOM      4  C   UNL     1       4.042   6.831  17.525  0.00  0.00    +0.000 A 
ATOM      5  C   UNL     1       5.102   5.952  17.292  0.00  0.00    +0.000 A 
ATOM      6  C   UNL     1       4.999   4.639  17.775  0.00  0.00    +0.000 A 
ATOM      7  C   UNL     1       3.841   4.175  18.422  0.00  0.00    +0.000 A 
BRANCH   2   9
ATOM      8  C   UNL     1       1.510   4.703  20.555  0.00  0.00    +0.000 C 
ATOM      9  O   UNL     1       1.586   4.599  19.132  0.00  0.00    +0.000 OA
ENDBRANCH   2   9
BRANCH   7  10
ATOM     10  O   UNL     1       3.959   2.866  18.810  0.00  0.00    +0.000 OA
ATOM     11  C   UNL     1       3.405   1.850  17.991  0.00  0.00    +0.000 C 
ENDBRANCH   7  10
ENDBRANCH   1   5
BRANCH   1  12
ATOM     12  C   UNL     1       7.169   7.181  17.520  0.00  0.00    +0.000 A 
ATOM     13  N   UNL     1       7.943   6.592  18.446  0.00  0.00    +0.000 NA
ATOM     14  O   UNL     1       8.657   7.665  18.992  0.00  0.00    +0.000 OA
ATOM     15  C   UNL     1       8.259   8.787  18.319  0.00  0.00    +0.000 A 
ATOM     16  N   UNL     1       7.331   8.543  17.418  0.00  0.00    +0.000 NA
BRANCH  15  17
ATOM     17  C   UNL     1       8.946  10.038  18.629  0.00  0.00    +0.000 A 
ATOM     18  C   UNL     1       9.450  10.320  19.908  0.00  0.00    +0.000 A 
ATOM     19  C   UNL     1      10.155  11.505  20.150  0.00  0.00    +0.000 A 
ATOM     20  C   UNL     1      10.363  12.420  19.122  0.00  0.00    +0.000 A 
ATOM     21  C   UNL     1       9.856  12.161  17.854  0.00  0.00    +0.000 A 
ATOM     22  C   UNL     1       9.156  10.976  17.607  0.00  0.00    +0.000 A 
ENDBRANCH  15  17
ENDBRANCH   1  12
TORSDOF 5
ENDMDL
MODEL 7
REMARK VINA RESULT:      -7.2      3.739      6.308
REMARK  Name = 
REMARK  7 active torsions:
REMARK  status: ('A' for Active; 'I' for Inactive)
REMARK    1  A    between atoms: C_1  and  O_2
REMARK    2  A    between atoms: O_2  and  C_3
REMARK    3  A    between atoms: C_6  and  C_7
REMARK    4  A    between atoms: C_7  and  C_8
REMARK    5  A    between atoms: C_11  and  C_12
REMARK    6  A    between atoms: C_20  and  O_21
REMARK    7  A    between atoms: O_21  and  C_22
REMARK                            x       y       z     vdW  Elec       q    Type
REMARK                         _______ _______ _______ _____ _____    ______ ____
ROOT
ATOM      1  C   UNL     1       3.882   3.191  17.657  0.00  0.00    +0.000 C 
ENDROOT
BRANCH   1   5
ATOM      2  C   UNL     1       6.970   4.991  15.212  0.00  0.00    +0.000 A 
ATOM      3  C   UNL     1       6.017   4.127  14.649  0.00  0.00    +0.000 A 
ATOM      4  C   UNL     1       5.019   3.547  15.433  0.00  0.00    +0.000 A 
ATOM      5  C   UNL     1       4.976   3.785  16.809  0.00  0.00    +0.000 A 
ATOM      6  C   UNL     1       5.987   4.572  17.382  0.00  0.00    +0.000 A 
ATOM      7  C   UNL     1       6.990   5.173  16.602  0.00  0.00    +0.000 A 
BRANCH   2   9
ATOM      8  C   UNL     1       7.872   5.257  13.043  0.00  0.00    +0.000 C 
ATOM      9  O   UNL     1       7.890   5.628  14.423  0.00  0.00    +0.000 OA
ENDBRANCH   2   9
BRANCH   7  10
ATOM     10  O   UNL     1       7.870   5.894  17.366  0.00  0.00    +0.000 OA
ATOM     11  C   UNL     1       7.664   5.975  18.767  0.00  0.00    +0.000 C 
ENDBRANCH   7  10
ENDBRANCH   1   5
BRANCH   1  12
ATOM     12  C   UNL     1       3.301   4.291  18.473  0.00  0.00    +0.000 A 
ATOM     13  N   UNL     1       3.384   4.328  19.813  0.00  0.00    +0.000 NA
ATOM     14  O   UNL     1       2.870   5.590  20.129  0.00  0.00    +0.000 OA
ATOM     15  C   UNL     1       2.555   6.196  18.943  0.00  0.00    +0.000 A 
ATOM     16  N   UNL     1       2.784   5.429  17.899  0.00  0.00    +0.000 NA
BRANCH  15  17
ATOM     17  C   UNL     1       2.098   7.582  18.995  0.00  0.00    +0.000 A 
ATOM     18  C   UNL     1       2.096   8.415  17.865  0.00  0.00    +0.000 A 
ATOM     19  C   UNL     1       1.593   9.718  17.943  0.00  0.00    +0.000 A 
ATOM     20  C   UNL     1       1.091  10.207  19.146  0.00  0.00    +0.000 A 
ATOM     21  C   UNL     1       1.100   9.399  20.277  0.00  0.00    +0.000 A 
ATOM     22  C   UNL     1       1.595   8.093  20.202  0.00  0.00    +0.000 A 
ENDBRANCH  15  17
ENDBRANCH   1  12
TORSDOF 5
ENDMDL
MODEL 8
REMARK VINA RESULT:      -7.2      3.448      6.442
REMARK  Name = 
REMARK  7 active torsions:
REMARK  status: ('A' for Active; 'I' for Inactive)
REMARK    1  A    between atoms: C_1  and  O_2
REMARK    2  A    between atoms: O_2  and  C_3
REMARK    3  A    between atoms: C_6  and  C_7
REMARK    4  A    between atoms: C_7  and  C_8
REMARK    5  A    between atoms: C_11  and  C_12
REMARK    6  A    between atoms: C_20  and  O_21
REMARK    7  A    between atoms: O_21  and  C_22
REMARK                            x       y       z     vdW  Elec       q    Type
REMARK                         _______ _______ _______ _____ _____    ______ ____
ROOT
ATOM      1  C   UNL     1       3.955   3.451  17.325  0.00  0.00    +0.000 C 
ENDROOT
BRANCH   1   5
ATOM      2  C   UNL     1       7.125   5.073  14.861  0.00  0.00    +0.000 A 
ATOM      3  C   UNL     1       6.406   3.938  14.454  0.00  0.00    +0.000 A 
ATOM      4  C   UNL     1       5.382   3.414  15.245  0.00  0.00    +0.000 A 
ATOM      5  C   UNL     1       5.082   3.989  16.482  0.00  0.00    +0.000 A 
ATOM      6  C   UNL     1       5.867   5.064  16.926  0.00  0.00    +0.000 A 
ATOM      7  C   UNL     1       6.892   5.610  16.135  0.00  0.00    +0.000 A 
BRANCH   2   9
ATOM      8  C   UNL     1       7.918   5.343  12.650  0.00  0.00    +0.000 C 
ATOM      9  O   UNL     1       8.066   5.637  14.040  0.00  0.00    +0.000 OA
ENDBRANCH   2   9
BRANCH   7  10
ATOM     10  O   UNL     1       7.527   6.649  16.764  0.00  0.00    +0.000 OA
ATOM     11  C   UNL     1       7.685   6.611  18.173  0.00  0.00    +0.000 C 
ENDBRANCH   7  10
ENDBRANCH   1   5
BRANCH   1  12
ATOM     12  C   UNL     1       3.530   4.536  18.250  0.00  0.00    +0.000 A 
ATOM     13  N   UNL     1       4.076   4.718  19.463  0.00  0.00    +0.000 NA
ATOM     14  O   UNL     1       3.508   5.922  19.891  0.00  0.00    +0.000 OA
ATOM     15  C   UNL     1       2.696   6.357  18.879  0.00  0.00    +0.000 A 
ATOM     16  N   UNL     1       2.663   5.528  17.857  0.00  0.00    +0.000 NA
BRANCH  15  17
ATOM     17  C   UNL     1       2.066   7.664  19.036  0.00  0.00    +0.000 A 
ATOM     18  C   UNL     1       1.560   8.112  20.267  0.00  0.00    +0.000 A 
ATOM     19  C   UNL     1       1.018   9.396  20.389  0.00  0.00    +0.000 A 
ATOM     20  C   UNL     1       0.970  10.246  19.288  0.00  0.00    +0.000 A 
ATOM     21  C   UNL     1       1.453   9.811  18.059  0.00  0.00    +0.000 A 
ATOM     22  C   UNL     1       2.002   8.531  17.934  0.00  0.00    +0.000 A 
ENDBRANCH  15  17
ENDBRANCH   1  12
TORSDOF 5
ENDMDL
MODEL 9
REMARK VINA RESULT:      -7.2      3.559      6.168
REMARK  Name = 
REMARK  7 active torsions:
REMARK  status: ('A' for Active; 'I' for Inactive)
REMARK    1  A    between atoms: C_1  and  O_2
REMARK    2  A    between atoms: O_2  and  C_3
REMARK    3  A    between atoms: C_6  and  C_7
REMARK    4  A    between atoms: C_7  and  C_8
REMARK    5  A    between atoms: C_11  and  C_12
REMARK    6  A    between atoms: C_20  and  O_21
REMARK    7  A    between atoms: O_21  and  C_22
REMARK                            x       y       z     vdW  Elec       q    Type
REMARK                         _______ _______ _______ _____ _____    ______ ____
ROOT
ATOM      1  C   UNL     1       5.865   6.626  17.493  0.00  0.00    +0.000 C 
ENDROOT
BRANCH   1   5
ATOM      2  C   UNL     1       2.344   4.377  18.635  0.00  0.00    +0.000 A 
ATOM      3  C   UNL     1       2.243   5.719  18.232  0.00  0.00    +0.000 A 
ATOM      4  C   UNL     1       3.375   6.445  17.862  0.00  0.00    +0.000 A 
ATOM      5  C   UNL     1       4.642   5.859  17.925  0.00  0.00    +0.000 A 
ATOM      6  C   UNL     1       4.746   4.550  18.418  0.00  0.00    +0.000 A 
ATOM      7  C   UNL     1       3.614   3.801  18.782  0.00  0.00    +0.000 A 
BRANCH   2   9
ATOM      8  C   UNL     1       0.808   3.648  20.277  0.00  0.00    +0.000 C 
ATOM      9  O   UNL     1       1.221   3.643  18.910  0.00  0.00    +0.000 OA
ENDBRANCH   2   9
BRANCH   7  10
ATOM     10  O   UNL     1       3.949   2.552  19.236  0.00  0.00    +0.000 OA
ATOM     11  C   UNL     1       3.673   1.425  18.422  0.00  0.00    +0.000 C 
ENDBRANCH   7  10
ENDBRANCH   1   5
BRANCH   1  12
ATOM     12  C   UNL     1       6.319   6.051  16.198  0.00  0.00    +0.000 A 
ATOM     13  N   UNL     1       7.611   5.989  15.839  0.00  0.00    +0.000 NA
ATOM     14  O   UNL     1       7.578   5.237  14.660  0.00  0.00    +0.000 OA
ATOM     15  C   UNL     1       6.271   4.900  14.443  0.00  0.00    +0.000 A 
ATOM     16  N   UNL     1       5.456   5.394  15.352  0.00  0.00    +0.000 NA
BRANCH  15  17
ATOM     17  C   UNL     1       5.981   4.012  13.321  0.00  0.00    +0.000 A 
ATOM     18  C   UNL     1       4.681   3.829  12.824  0.00  0.00    +0.000 A 
ATOM     19  C   UNL     1       4.453   3.014  11.709  0.00  0.00    +0.000 A 
ATOM     20  C   UNL     1       5.516   2.373  11.079  0.00  0.00    +0.000 A 
ATOM     21  C   UNL     1       6.807   2.532  11.570  0.00  0.00    +0.000 A 
ATOM     22  C   UNL     1       7.040   3.350  12.680  0.00  0.00    +0.000 A 
ENDBRANCH  15  17
ENDBRANCH   1  12
TORSDOF 5
ENDMDL
