MODEL 1
REMARK VINA RESULT:      -7.6      0.000      0.000
REMARK  Name = 
REMARK  10 active torsions:
REMARK  status: ('A' for Active; 'I' for Inactive)
REMARK    1  A    between atoms: C_1  and  O_2
REMARK    2  A    between atoms: O_2  and  C_3
REMARK    3  A    between atoms: C_8  and  O_9
REMARK    4  A    between atoms: O_9  and  C_10
REMARK    5  A    between atoms: C_14  and  C_15
REMARK    6  A    between atoms: C_18  and  C_19
REMARK    7  A    between atoms: C_23  and  O_24
REMARK    8  A    between atoms: O_24  and  C_25
REMARK    9  A    between atoms: C_25  and  C_26
REMARK   10  A    between atoms: C_26  and  O_27
REMARK                            x       y       z     vdW  Elec       q    Type
REMARK                         _______ _______ _______ _____ _____    ______ ____
ROOT
ATOM      1  C   UNL     1       2.948   6.378  18.863  0.00  0.00    +0.000 A 
ATOM      2  C   UNL     1       2.634   7.627  18.341  0.00  0.00    +0.000 A 
ATOM      3  N   UNL     1       3.093   8.064  17.093  0.00  0.00    +0.000 N 
ATOM      4  N   UNL     1       1.827   8.495  18.960  0.00  0.00    +0.000 NA
ATOM      5  C   UNL     1       1.344   8.117  20.155  0.00  0.00    +0.000 A 
ATOM      6  N   UNL     1       1.504   6.909  20.704  0.00  0.00    +0.000 NA
ATOM      7  C   UNL     1       2.258   6.040  20.013  0.00  0.00    +0.000 A 
ATOM      8  H   UNL     1       4.095   7.935  17.006  0.00  0.00    +0.000 HD
ATOM      9  H   UNL     1       2.807   9.032  16.981  0.00  0.00    +0.000 HD
ENDROOT
BRANCH   5  10
ATOM     10  C   UNL     1       0.615   9.122  20.933  0.00  0.00    +0.000 A 
ATOM     11  C   UNL     1       0.413   8.965  22.322  0.00  0.00    +0.000 A 
ATOM     12  C   UNL     1      -0.281   9.920  23.052  0.00  0.00    +0.000 A 
ATOM     13  C   UNL     1      -0.801  11.060  22.430  0.00  0.00    +0.000 A 
ATOM     14  C   UNL     1      -1.527  12.102  23.221  0.00  0.00    +0.000 C 
ATOM     15  C   UNL     1      -0.632  11.218  21.048  0.00  0.00    +0.000 A 
ATOM     16  C   UNL     1       0.077  10.264  20.316  0.00  0.00    +0.000 A 
ENDBRANCH   5  10
BRANCH   1  17
ATOM     17  O   UNL     1       3.835   5.596  18.177  0.00  0.00    +0.000 OA
BRANCH  17  23
ATOM     18  C   UNL     1       6.015   6.367  17.197  0.00  0.00    +0.000 A 
ATOM     19  C   UNL     1       7.394   6.487  17.436  0.00  0.00    +0.000 A 
ATOM     20  C   UNL     1       7.964   6.076  18.638  0.00  0.00    +0.000 A 
ATOM     21  C   UNL     1       7.159   5.535  19.628  0.00  0.00    +0.000 A 
ATOM     22  C   UNL     1       5.786   5.411  19.416  0.00  0.00    +0.000 A 
ATOM     23  C   UNL     1       5.197   5.831  18.210  0.00  0.00    +0.000 A 
BRANCH  18  25
ATOM     24  C   UNL     1       5.420   5.694  15.016  0.00  0.00    +0.000 C 
ATOM     25  O   UNL     1       5.480   6.745  15.988  0.00  0.00    +0.000 OA
ENDBRANCH  18  25
ENDBRANCH  17  23
ENDBRANCH   1  17
BRANCH   7  26
ATOM     26  O   UNL     1       2.370   4.759  20.504  0.00  0.00    +0.000 OA
BRANCH  26  27
ATOM     27  C   UNL     1       1.155   4.006  20.549  0.00  0.00    +0.000 C 
BRANCH  27  28
ATOM     28  C   UNL     1       1.536   2.580  20.930  0.00  0.00    +0.000 C 
BRANCH  28  29
ATOM     29  O   UNL     1       1.553   2.410  22.346  0.00  0.00    +0.000 OA
ATOM     30  H   UNL     1       0.638   2.188  22.605  0.00  0.00    +0.000 HD
ENDBRANCH  28  29
ENDBRANCH  27  28
ENDBRANCH  26  27
ENDBRANCH   7  26
TORSDOF 8
ENDMDL
MODEL 2
REMARK VINA RESULT:      -7.5      4.547      7.371
REMARK  Name = 
REMARK  10 active torsions:
REMARK  status: ('A' for Active; 'I' for Inactive)
REMARK    1  A    between atoms: C_1  and  O_2
REMARK    2  A    between atoms: O_2  and  C_3
REMARK    3  A    between atoms: C_8  and  O_9
REMARK    4  A    between atoms: O_9  and  C_10
REMARK    5  A    between atoms: C_14  and  C_15
REMARK    6  A    between atoms: C_18  and  C_19
REMARK    7  A    between atoms: C_23  and  O_24
REMARK    8  A    between atoms: O_24  and  C_25
REMARK    9  A    between atoms: C_25  and  C_26
REMARK   10  A    between atoms: C_26  and  O_27
REMARK                            x       y       z     vdW  Elec       q    Type
REMARK                         _______ _______ _______ _____ _____    ______ ____
ROOT
ATOM      1  C   UNL     1       6.894   5.766  17.886  0.00  0.00    +0.000 A 
ATOM      2  C   UNL     1       7.680   6.123  18.974  0.00  0.00    +0.000 A 
ATOM      3  N   UNL     1       7.951   5.249  20.034  0.00  0.00    +0.000 N 
ATOM      4  N   UNL     1       8.287   7.310  19.079  0.00  0.00    +0.000 NA
ATOM      5  C   UNL     1       8.074   8.182  18.079  0.00  0.00    +0.000 A 
ATOM      6  N   UNL     1       7.417   7.911  16.947  0.00  0.00    +0.000 NA
ATOM      7  C   UNL     1       6.890   6.681  16.849  0.00  0.00    +0.000 A 
ATOM      8  H   UNL     1       7.098   4.832  20.390  0.00  0.00    +0.000 HD
ATOM      9  H   UNL     1       8.464   5.769  20.739  0.00  0.00    +0.000 HD
ENDROOT
BRANCH   5  10
ATOM     10  C   UNL     1       8.572   9.548  18.262  0.00  0.00    +0.000 A 
ATOM     11  C   UNL     1       9.502   9.856  19.278  0.00  0.00    +0.000 A 
ATOM     12  C   UNL     1       9.967  11.153  19.447  0.00  0.00    +0.000 A 
ATOM     13  C   UNL     1       9.523  12.188  18.619  0.00  0.00    +0.000 A 
ATOM     14  C   UNL     1      10.043  13.581  18.784  0.00  0.00    +0.000 C 
ATOM     15  C   UNL     1       8.580  11.904  17.622  0.00  0.00    +0.000 A 
ATOM     16  C   UNL     1       8.122  10.598  17.443  0.00  0.00    +0.000 A 
ENDBRANCH   5  10
BRANCH   1  17
ATOM     17  O   UNL     1       6.269   4.551  17.912  0.00  0.00    +0.000 OA
BRANCH  17  23
ATOM     18  C   UNL     1       4.420   3.495  19.244  0.00  0.00    +0.000 A 
ATOM     19  C   UNL     1       3.036   3.507  19.485  0.00  0.00    +0.000 A 
ATOM     20  C   UNL     1       2.189   4.392  18.821  0.00  0.00    +0.000 A 
ATOM     21  C   UNL     1       2.716   5.284  17.901  0.00  0.00    +0.000 A 
ATOM     22  C   UNL     1       4.088   5.294  17.650  0.00  0.00    +0.000 A 
ATOM     23  C   UNL     1       4.955   4.412  18.320  0.00  0.00    +0.000 A 
BRANCH  18  25
ATOM     24  C   UNL     1       4.551   1.752  20.829  0.00  0.00    +0.000 C 
ATOM     25  O   UNL     1       5.232   2.587  19.884  0.00  0.00    +0.000 OA
ENDBRANCH  18  25
ENDBRANCH  17  23
ENDBRANCH   1  17
BRANCH   7  26
ATOM     26  O   UNL     1       6.284   6.338  15.661  0.00  0.00    +0.000 OA
BRANCH  26  27
ATOM     27  C   UNL     1       6.921   5.291  14.924  0.00  0.00    +0.000 C 
BRANCH  27  28
ATOM     28  C   UNL     1       5.811   4.393  14.389  0.00  0.00    +0.000 C 
BRANCH  28  29
ATOM     29  O   UNL     1       6.342   3.319  13.615  0.00  0.00    +0.000 OA
ATOM     30  H   UNL     1       6.830   3.730  12.875  0.00  0.00    +0.000 HD
ENDBRANCH  28  29
ENDBRANCH  27  28
ENDBRANCH  26  27
ENDBRANCH   7  26
TORSDOF 8
ENDMDL
MODEL 3
REMARK VINA RESULT:      -7.5      0.662      1.198
REMARK  Name = 
REMARK  10 active torsions:
REMARK  status: ('A' for Active; 'I' for Inactive)
REMARK    1  A    between atoms: C_1  and  O_2
REMARK    2  A    between atoms: O_2  and  C_3
REMARK    3  A    between atoms: C_8  and  O_9
REMARK    4  A    between atoms: O_9  and  C_10
REMARK    5  A    between atoms: C_14  and  C_15
REMARK    6  A    between atoms: C_18  and  C_19
REMARK    7  A    between atoms: C_23  and  O_24
REMARK    8  A    between atoms: O_24  and  C_25
REMARK    9  A    between atoms: C_25  and  C_26
REMARK   10  A    between atoms: C_26  and  O_27
REMARK                            x       y       z     vdW  Elec       q    Type
REMARK                         _______ _______ _______ _____ _____    ______ ____
ROOT
ATOM      1  C   UNL     1       2.923   6.373  18.916  0.00  0.00    +0.000 A 
ATOM      2  C   UNL     1       2.585   7.604  18.369  0.00  0.00    +0.000 A 
ATOM      3  N   UNL     1       3.009   8.010  17.097  0.00  0.00    +0.000 N 
ATOM      4  N   UNL     1       1.788   8.484  18.984  0.00  0.00    +0.000 NA
ATOM      5  C   UNL     1       1.339   8.135  20.201  0.00  0.00    +0.000 A 
ATOM      6  N   UNL     1       1.522   6.945  20.779  0.00  0.00    +0.000 NA
ATOM      7  C   UNL     1       2.264   6.062  20.093  0.00  0.00    +0.000 A 
ATOM      8  H   UNL     1       4.009   7.885  16.988  0.00  0.00    +0.000 HD
ATOM      9  H   UNL     1       2.713   8.972  16.966  0.00  0.00    +0.000 HD
ENDROOT
BRANCH   5  10
ATOM     10  C   UNL     1       0.622   9.157  20.969  0.00  0.00    +0.000 A 
ATOM     11  C   UNL     1       0.258  10.389  20.384  0.00  0.00    +0.000 A 
ATOM     12  C   UNL     1      -0.418  11.353  21.119  0.00  0.00    +0.000 A 
ATOM     13  C   UNL     1      -0.753  11.130  22.457  0.00  0.00    +0.000 A 
ATOM     14  C   UNL     1      -1.505  12.159  23.243  0.00  0.00    +0.000 C 
ATOM     15  C   UNL     1      -0.376   9.923  23.062  0.00  0.00    +0.000 A 
ATOM     16  C   UNL     1       0.293   8.948  22.319  0.00  0.00    +0.000 A 
ENDBRANCH   5  10
BRANCH   1  17
ATOM     17  O   UNL     1       3.797   5.578  18.230  0.00  0.00    +0.000 OA
BRANCH  17  23
ATOM     18  C   UNL     1       5.965   6.338  17.215  0.00  0.00    +0.000 A 
ATOM     19  C   UNL     1       7.348   6.454  17.432  0.00  0.00    +0.000 A 
ATOM     20  C   UNL     1       7.935   6.044  18.627  0.00  0.00    +0.000 A 
ATOM     21  C   UNL     1       7.143   5.509  19.630  0.00  0.00    +0.000 A 
ATOM     22  C   UNL     1       5.766   5.389  19.440  0.00  0.00    +0.000 A 
ATOM     23  C   UNL     1       5.160   5.808  18.242  0.00  0.00    +0.000 A 
BRANCH  18  25
ATOM     24  C   UNL     1       5.403   5.681  15.020  0.00  0.00    +0.000 C 
ATOM     25  O   UNL     1       5.413   6.715  16.013  0.00  0.00    +0.000 OA
ENDBRANCH  18  25
ENDBRANCH  17  23
ENDBRANCH   1  17
BRANCH   7  26
ATOM     26  O   UNL     1       2.399   4.796  20.616  0.00  0.00    +0.000 OA
BRANCH  26  27
ATOM     27  C   UNL     1       1.219   3.989  20.592  0.00  0.00    +0.000 C 
BRANCH  27  28
ATOM     28  C   UNL     1       1.298   3.134  19.332  0.00  0.00    +0.000 C 
BRANCH  28  29
ATOM     29  O   UNL     1       2.649   2.818  19.005  0.00  0.00    +0.000 OA
ATOM     30  H   UNL     1       2.669   1.859  18.819  0.00  0.00    +0.000 HD
ENDBRANCH  28  29
ENDBRANCH  27  28
ENDBRANCH  26  27
ENDBRANCH   7  26
TORSDOF 8
ENDMDL
MODEL 4
REMARK VINA RESULT:      -7.2      1.254      1.646
REMARK  Name = 
REMARK  10 active torsions:
REMARK  status: ('A' for Active; 'I' for Inactive)
REMARK    1  A    between atoms: C_1  and  O_2
REMARK    2  A    between atoms: O_2  and  C_3
REMARK    3  A    between atoms: C_8  and  O_9
REMARK    4  A    between atoms: O_9  and  C_10
REMARK    5  A    between atoms: C_14  and  C_15
REMARK    6  A    between atoms: C_18  and  C_19
REMARK    7  A    between atoms: C_23  and  O_24
REMARK    8  A    between atoms: O_24  and  C_25
REMARK    9  A    between atoms: C_25  and  C_26
REMARK   10  A    between atoms: C_26  and  O_27
REMARK                            x       y       z     vdW  Elec       q    Type
REMARK                         _______ _______ _______ _____ _____    ______ ____
ROOT
ATOM      1  C   UNL     1       3.038   5.602  18.898  0.00  0.00    +0.000 A 
ATOM      2  C   UNL     1       2.976   6.869  18.332  0.00  0.00    +0.000 A 
ATOM      3  N   UNL     1       3.608   7.193  17.126  0.00  0.00    +0.000 N 
ATOM      4  N   UNL     1       2.268   7.872  18.862  0.00  0.00    +0.000 NA
ATOM      5  C   UNL     1       1.625   7.609  20.012  0.00  0.00    +0.000 A 
ATOM      6  N   UNL     1       1.539   6.407  20.590  0.00  0.00    +0.000 NA
ATOM      7  C   UNL     1       2.202   5.411  19.983  0.00  0.00    +0.000 A 
ATOM      8  H   UNL     1       4.580   6.903  17.134  0.00  0.00    +0.000 HD
ATOM      9  H   UNL     1       3.493   8.190  16.975  0.00  0.00    +0.000 HD
ENDROOT
BRANCH   5  10
ATOM     10  C   UNL     1       1.001   8.739  20.705  0.00  0.00    +0.000 A 
ATOM     11  C   UNL     1       0.839   9.988  20.067  0.00  0.00    +0.000 A 
ATOM     12  C   UNL     1       0.249  11.055  20.731  0.00  0.00    +0.000 A 
ATOM     13  C   UNL     1      -0.197  10.921  22.049  0.00  0.00    +0.000 A 
ATOM     14  C   UNL     1      -0.856  12.064  22.757  0.00  0.00    +0.000 C 
ATOM     15  C   UNL     1      -0.020   9.696  22.707  0.00  0.00    +0.000 A 
ATOM     16  C   UNL     1       0.562   8.619  22.035  0.00  0.00    +0.000 A 
ENDBRANCH   5  10
BRANCH   1  17
ATOM     17  O   UNL     1       3.844   4.669  18.308  0.00  0.00    +0.000 OA
BRANCH  17  23
ATOM     18  C   UNL     1       6.057   4.516  17.129  0.00  0.00    +0.000 A 
ATOM     19  C   UNL     1       7.435   4.749  17.256  0.00  0.00    +0.000 A 
ATOM     20  C   UNL     1       7.981   5.280  18.422  0.00  0.00    +0.000 A 
ATOM     21  C   UNL     1       7.149   5.587  19.488  0.00  0.00    +0.000 A 
ATOM     22  C   UNL     1       5.775   5.370  19.383  0.00  0.00    +0.000 A 
ATOM     23  C   UNL     1       5.212   4.844  18.206  0.00  0.00    +0.000 A 
BRANCH  18  25
ATOM     24  C   UNL     1       6.103   4.483  14.770  0.00  0.00    +0.000 C 
ATOM     25  O   UNL     1       5.546   3.956  15.980  0.00  0.00    +0.000 OA
ENDBRANCH  18  25
ENDBRANCH  17  23
ENDBRANCH   1  17
BRANCH   7  26
ATOM     26  O   UNL     1       2.062   4.142  20.500  0.00  0.00    +0.000 OA
BRANCH  26  27
ATOM     27  C   UNL     1       0.925   3.409  20.038  0.00  0.00    +0.000 C 
BRANCH  27  28
ATOM     28  C   UNL     1       1.461   2.227  19.238  0.00  0.00    +0.000 C 
BRANCH  28  29
ATOM     29  O   UNL     1       1.673   2.580  17.872  0.00  0.00    +0.000 OA
ATOM     30  H   UNL     1       0.803   2.852  17.521  0.00  0.00    +0.000 HD
ENDBRANCH  28  29
ENDBRANCH  27  28
ENDBRANCH  26  27
ENDBRANCH   7  26
TORSDOF 8
ENDMDL
MODEL 5
REMARK VINA RESULT:      -7.2      4.138      7.076
REMARK  Name = 
REMARK  10 active torsions:
REMARK  status: ('A' for Active; 'I' for Inactive)
REMARK    1  A    between atoms: C_1  and  O_2
REMARK    2  A    between atoms: O_2  and  C_3
REMARK    3  A    between atoms: C_8  and  O_9
REMARK    4  A    between atoms: O_9  and  C_10
REMARK    5  A    between atoms: C_14  and  C_15
REMARK    6  A    between atoms: C_18  and  C_19
REMARK    7  A    between atoms: C_23  and  O_24
REMARK    8  A    between atoms: O_24  and  C_25
REMARK    9  A    between atoms: C_25  and  C_26
REMARK   10  A    between atoms: C_26  and  O_27
REMARK                            x       y       z     vdW  Elec       q    Type
REMARK                         _______ _______ _______ _____ _____    ______ ____
ROOT
ATOM      1  C   UNL     1       6.892   5.758  17.909  0.00  0.00    +0.000 A 
ATOM      2  C   UNL     1       7.682   6.120  18.993  0.00  0.00    +0.000 A 
ATOM      3  N   UNL     1       7.956   5.249  20.055  0.00  0.00    +0.000 N 
ATOM      4  N   UNL     1       8.288   7.307  19.092  0.00  0.00    +0.000 NA
ATOM      5  C   UNL     1       8.072   8.175  18.088  0.00  0.00    +0.000 A 
ATOM      6  N   UNL     1       7.412   7.900  16.960  0.00  0.00    +0.000 NA
ATOM      7  C   UNL     1       6.885   6.669  16.868  0.00  0.00    +0.000 A 
ATOM      8  H   UNL     1       7.104   4.834  20.416  0.00  0.00    +0.000 HD
ATOM      9  H   UNL     1       8.471   5.772  20.757  0.00  0.00    +0.000 HD
ENDROOT
BRANCH   5  10
ATOM     10  C   UNL     1       8.570   9.542  18.265  0.00  0.00    +0.000 A 
ATOM     11  C   UNL     1       9.510   9.852  19.272  0.00  0.00    +0.000 A 
ATOM     12  C   UNL     1       9.974  11.150  19.435  0.00  0.00    +0.000 A 
ATOM     13  C   UNL     1       9.521  12.183  18.609  0.00  0.00    +0.000 A 
ATOM     14  C   UNL     1      10.041  13.578  18.768  0.00  0.00    +0.000 C 
ATOM     15  C   UNL     1       8.568  11.898  17.622  0.00  0.00    +0.000 A 
ATOM     16  C   UNL     1       8.110  10.590  17.450  0.00  0.00    +0.000 A 
ENDBRANCH   5  10
BRANCH   1  17
ATOM     17  O   UNL     1       6.268   4.542  17.941  0.00  0.00    +0.000 OA
BRANCH  17  23
ATOM     18  C   UNL     1       3.868   5.189  18.303  0.00  0.00    +0.000 A 
ATOM     19  C   UNL     1       2.688   4.858  18.989  0.00  0.00    +0.000 A 
ATOM     20  C   UNL     1       2.628   3.765  19.850  0.00  0.00    +0.000 A 
ATOM     21  C   UNL     1       3.755   2.981  20.040  0.00  0.00    +0.000 A 
ATOM     22  C   UNL     1       4.937   3.287  19.365  0.00  0.00    +0.000 A 
ATOM     23  C   UNL     1       5.007   4.382  18.486  0.00  0.00    +0.000 A 
BRANCH  18  25
ATOM     24  C   UNL     1       3.102   7.389  17.930  0.00  0.00    +0.000 C 
ATOM     25  O   UNL     1       3.914   6.295  17.486  0.00  0.00    +0.000 OA
ENDBRANCH  18  25
ENDBRANCH  17  23
ENDBRANCH   1  17
BRANCH   7  26
ATOM     26  O   UNL     1       6.276   6.321  15.683  0.00  0.00    +0.000 OA
BRANCH  26  27
ATOM     27  C   UNL     1       6.928   5.293  14.933  0.00  0.00    +0.000 C 
BRANCH  27  28
ATOM     28  C   UNL     1       5.879   4.222  14.653  0.00  0.00    +0.000 C 
BRANCH  28  29
ATOM     29  O   UNL     1       6.097   3.062  15.454  0.00  0.00    +0.000 OA
ATOM     30  H   UNL     1       6.969   3.182  15.877  0.00  0.00    +0.000 HD
ENDBRANCH  28  29
ENDBRANCH  27  28
ENDBRANCH  26  27
ENDBRANCH   7  26
TORSDOF 8
ENDMDL
MODEL 6
REMARK VINA RESULT:      -7.1      1.597      2.778
REMARK  Name = 
REMARK  10 active torsions:
REMARK  status: ('A' for Active; 'I' for Inactive)
REMARK    1  A    between atoms: C_1  and  O_2
REMARK    2  A    between atoms: O_2  and  C_3
REMARK    3  A    between atoms: C_8  and  O_9
REMARK    4  A    between atoms: O_9  and  C_10
REMARK    5  A    between atoms: C_14  and  C_15
REMARK    6  A    between atoms: C_18  and  C_19
REMARK    7  A    between atoms: C_23  and  O_24
REMARK    8  A    between atoms: O_24  and  C_25
REMARK    9  A    between atoms: C_25  and  C_26
REMARK   10  A    between atoms: C_26  and  O_27
REMARK                            x       y       z     vdW  Elec       q    Type
REMARK                         _______ _______ _______ _____ _____    ______ ____
ROOT
ATOM      1  C   UNL     1       2.677   6.906  19.215  0.00  0.00    +0.000 A 
ATOM      2  C   UNL     1       2.295   8.118  18.653  0.00  0.00    +0.000 A 
ATOM      3  N   UNL     1       2.743   8.545  17.397  0.00  0.00    +0.000 N 
ATOM      4  N   UNL     1       1.430   8.954  19.236  0.00  0.00    +0.000 NA
ATOM      5  C   UNL     1       0.955   8.582  20.437  0.00  0.00    +0.000 A 
ATOM      6  N   UNL     1       1.180   7.403  21.024  0.00  0.00    +0.000 NA
ATOM      7  C   UNL     1       1.993   6.561  20.367  0.00  0.00    +0.000 A 
ATOM      8  H   UNL     1       3.752   8.473  17.326  0.00  0.00    +0.000 HD
ATOM      9  H   UNL     1       2.402   9.490  17.253  0.00  0.00    +0.000 HD
ENDROOT
BRANCH   5  10
ATOM     10  C   UNL     1       0.157   9.564  21.176  0.00  0.00    +0.000 A 
ATOM     11  C   UNL     1      -0.280  10.759  20.563  0.00  0.00    +0.000 A 
ATOM     12  C   UNL     1      -1.034  11.685  21.270  0.00  0.00    +0.000 A 
ATOM     13  C   UNL     1      -1.375  11.462  22.607  0.00  0.00    +0.000 A 
ATOM     14  C   UNL     1      -2.209  12.449  23.363  0.00  0.00    +0.000 C 
ATOM     15  C   UNL     1      -0.927  10.294  23.238  0.00  0.00    +0.000 A 
ATOM     16  C   UNL     1      -0.180   9.355  22.524  0.00  0.00    +0.000 A 
ENDBRANCH   5  10
BRANCH   1  17
ATOM     17  O   UNL     1       3.618   6.158  18.563  0.00  0.00    +0.000 OA
BRANCH  17  23
ATOM     18  C   UNL     1       4.330   3.754  18.702  0.00  0.00    +0.000 A 
ATOM     19  C   UNL     1       3.980   2.439  18.356  0.00  0.00    +0.000 A 
ATOM     20  C   UNL     1       2.803   2.155  17.666  0.00  0.00    +0.000 A 
ATOM     21  C   UNL     1       1.953   3.190  17.309  0.00  0.00    +0.000 A 
ATOM     22  C   UNL     1       2.276   4.504  17.648  0.00  0.00    +0.000 A 
ATOM     23  C   UNL     1       3.456   4.802  18.352  0.00  0.00    +0.000 A 
BRANCH  18  25
ATOM     24  C   UNL     1       6.512   4.633  18.528  0.00  0.00    +0.000 C 
ATOM     25  O   UNL     1       5.515   4.014  19.350  0.00  0.00    +0.000 OA
ENDBRANCH  18  25
ENDBRANCH  17  23
ENDBRANCH   1  17
BRANCH   7  26
ATOM     26  O   UNL     1       2.176   5.304  20.898  0.00  0.00    +0.000 OA
BRANCH  26  27
ATOM     27  C   UNL     1       1.070   4.408  20.757  0.00  0.00    +0.000 C 
BRANCH  27  28
ATOM     28  C   UNL     1       1.564   3.030  21.184  0.00  0.00    +0.000 C 
BRANCH  28  29
ATOM     29  O   UNL     1       2.468   3.123  22.284  0.00  0.00    +0.000 OA
ATOM     30  H   UNL     1       1.936   3.408  23.052  0.00  0.00    +0.000 HD
ENDBRANCH  28  29
ENDBRANCH  27  28
ENDBRANCH  26  27
ENDBRANCH   7  26
TORSDOF 8
ENDMDL
MODEL 7
REMARK VINA RESULT:      -7.1      1.057      1.060
REMARK  Name = 
REMARK  10 active torsions:
REMARK  status: ('A' for Active; 'I' for Inactive)
REMARK    1  A    between atoms: C_1  and  O_2
REMARK    2  A    between atoms: O_2  and  C_3
REMARK    3  A    between atoms: C_8  and  O_9
REMARK    4  A    between atoms: O_9  and  C_10
REMARK    5  A    between atoms: C_14  and  C_15
REMARK    6  A    between atoms: C_18  and  C_19
REMARK    7  A    between atoms: C_23  and  O_24
REMARK    8  A    between atoms: O_24  and  C_25
REMARK    9  A    between atoms: C_25  and  C_26
REMARK   10  A    between atoms: C_26  and  O_27
REMARK                            x       y       z     vdW  Elec       q    Type
REMARK                         _______ _______ _______ _____ _____    ______ ____
ROOT
ATOM      1  C   UNL     1       3.164   5.685  18.594  0.00  0.00    +0.000 A 
ATOM      2  C   UNL     1       2.980   6.963  18.081  0.00  0.00    +0.000 A 
ATOM      3  N   UNL     1       3.518   7.371  16.854  0.00  0.00    +0.000 N 
ATOM      4  N   UNL     1       2.235   7.894  18.685  0.00  0.00    +0.000 NA
ATOM      5  C   UNL     1       1.680   7.546  19.859  0.00  0.00    +0.000 A 
ATOM      6  N   UNL     1       1.713   6.323  20.395  0.00  0.00    +0.000 NA
ATOM      7  C   UNL     1       2.408   5.398  19.716  0.00  0.00    +0.000 A 
ATOM      8  H   UNL     1       4.507   7.153  16.798  0.00  0.00    +0.000 HD
ATOM      9  H   UNL     1       3.324   8.362  16.747  0.00  0.00    +0.000 HD
ENDROOT
BRANCH   5  10
ATOM     10  C   UNL     1       1.018   8.605  20.627  0.00  0.00    +0.000 A 
ATOM     11  C   UNL     1       0.977   8.566  22.038  0.00  0.00    +0.000 A 
ATOM     12  C   UNL     1       0.346   9.571  22.759  0.00  0.00    +0.000 A 
ATOM     13  C   UNL     1      -0.267  10.644  22.107  0.00  0.00    +0.000 A 
ATOM     14  C   UNL     1      -0.925  11.741  22.884  0.00  0.00    +0.000 C 
ATOM     15  C   UNL     1      -0.258  10.685  20.706  0.00  0.00    +0.000 A 
ATOM     16  C   UNL     1       0.387   9.681  19.981  0.00  0.00    +0.000 A 
ENDBRANCH   5  10
BRANCH   1  17
ATOM     17  O   UNL     1       3.999   4.834  17.926  0.00  0.00    +0.000 OA
BRANCH  17  23
ATOM     18  C   UNL     1       6.342   4.582  17.059  0.00  0.00    +0.000 A 
ATOM     19  C   UNL     1       7.700   4.738  17.380  0.00  0.00    +0.000 A 
ATOM     20  C   UNL     1       8.105   5.218  18.623  0.00  0.00    +0.000 A 
ATOM     21  C   UNL     1       7.151   5.552  19.571  0.00  0.00    +0.000 A 
ATOM     22  C   UNL     1       5.796   5.410  19.273  0.00  0.00    +0.000 A 
ATOM     23  C   UNL     1       5.375   4.936  18.018  0.00  0.00    +0.000 A 
BRANCH  18  25
ATOM     24  C   UNL     1       6.783   4.504  14.742  0.00  0.00    +0.000 C 
ATOM     25  O   UNL     1       5.967   4.071  15.838  0.00  0.00    +0.000 OA
ENDBRANCH  18  25
ENDBRANCH  17  23
ENDBRANCH   1  17
BRANCH   7  26
ATOM     26  O   UNL     1       2.388   4.106  20.193  0.00  0.00    +0.000 OA
BRANCH  26  27
ATOM     27  C   UNL     1       1.100   3.600  20.552  0.00  0.00    +0.000 C 
BRANCH  27  28
ATOM     28  C   UNL     1       1.320   2.607  21.688  0.00  0.00    +0.000 C 
BRANCH  28  29
ATOM     29  O   UNL     1       2.699   2.522  22.041  0.00  0.00    +0.000 OA
ATOM     30  H   UNL     1       2.929   1.573  22.019  0.00  0.00    +0.000 HD
ENDBRANCH  28  29
ENDBRANCH  27  28
ENDBRANCH  26  27
ENDBRANCH   7  26
TORSDOF 8
ENDMDL
MODEL 8
REMARK VINA RESULT:      -7.1      0.887      1.911
REMARK  Name = 
REMARK  10 active torsions:
REMARK  status: ('A' for Active; 'I' for Inactive)
REMARK    1  A    between atoms: C_1  and  O_2
REMARK    2  A    between atoms: O_2  and  C_3
REMARK    3  A    between atoms: C_8  and  O_9
REMARK    4  A    between atoms: O_9  and  C_10
REMARK    5  A    between atoms: C_14  and  C_15
REMARK    6  A    between atoms: C_18  and  C_19
REMARK    7  A    between atoms: C_23  and  O_24
REMARK    8  A    between atoms: O_24  and  C_25
REMARK    9  A    between atoms: C_25  and  C_26
REMARK   10  A    between atoms: C_26  and  O_27
REMARK                            x       y       z     vdW  Elec       q    Type
REMARK                         _______ _______ _______ _____ _____    ______ ____
ROOT
ATOM      1  C   UNL     1       2.761   6.621  18.847  0.00  0.00    +0.000 A 
ATOM      2  C   UNL     1       2.417   7.861  18.324  0.00  0.00    +0.000 A 
ATOM      3  N   UNL     1       2.808   8.280  17.046  0.00  0.00    +0.000 N 
ATOM      4  N   UNL     1       1.644   8.739  18.972  0.00  0.00    +0.000 NA
ATOM      5  C   UNL     1       1.226   8.378  20.197  0.00  0.00    +0.000 A 
ATOM      6  N   UNL     1       1.417   7.179  20.755  0.00  0.00    +0.000 NA
ATOM      7  C   UNL     1       2.134   6.300  20.037  0.00  0.00    +0.000 A 
ATOM      8  H   UNL     1       3.804   8.150  16.908  0.00  0.00    +0.000 HD
ATOM      9  H   UNL     1       2.515   9.246  16.935  0.00  0.00    +0.000 HD
ENDROOT
BRANCH   5  10
ATOM     10  C   UNL     1       0.538   9.394  20.997  0.00  0.00    +0.000 A 
ATOM     11  C   UNL     1       0.268  10.677  20.473  0.00  0.00    +0.000 A 
ATOM     12  C   UNL     1      -0.382  11.636  21.238  0.00  0.00    +0.000 A 
ATOM     13  C   UNL     1      -0.782  11.357  22.548  0.00  0.00    +0.000 A 
ATOM     14  C   UNL     1      -1.506  12.382  23.364  0.00  0.00    +0.000 C 
ATOM     15  C   UNL     1      -0.499  10.098  23.093  0.00  0.00    +0.000 A 
ATOM     16  C   UNL     1       0.144   9.129  22.320  0.00  0.00    +0.000 A 
ENDBRANCH   5  10
BRANCH   1  17
ATOM     17  O   UNL     1       3.611   5.829  18.126  0.00  0.00    +0.000 OA
BRANCH  17  23
ATOM     18  C   UNL     1       5.806   5.205  19.175  0.00  0.00    +0.000 A 
ATOM     19  C   UNL     1       7.186   5.467  19.175  0.00  0.00    +0.000 A 
ATOM     20  C   UNL     1       7.749   6.410  18.319  0.00  0.00    +0.000 A 
ATOM     21  C   UNL     1       6.935   7.110  17.442  0.00  0.00    +0.000 A 
ATOM     22  C   UNL     1       5.563   6.862  17.419  0.00  0.00    +0.000 A 
ATOM     23  C   UNL     1       4.984   5.906  18.273  0.00  0.00    +0.000 A 
BRANCH  18  25
ATOM     24  C   UNL     1       4.766   3.104  19.439  0.00  0.00    +0.000 C 
ATOM     25  O   UNL     1       5.268   4.296  20.056  0.00  0.00    +0.000 OA
ENDBRANCH  18  25
ENDBRANCH  17  23
ENDBRANCH   1  17
BRANCH   7  26
ATOM     26  O   UNL     1       2.275   5.026  20.541  0.00  0.00    +0.000 OA
BRANCH  26  27
ATOM     27  C   UNL     1       1.106   4.205  20.477  0.00  0.00    +0.000 C 
BRANCH  27  28
ATOM     28  C   UNL     1       1.424   2.930  21.251  0.00  0.00    +0.000 C 
BRANCH  28  29
ATOM     29  O   UNL     1       2.425   3.161  22.240  0.00  0.00    +0.000 OA
ATOM     30  H   UNL     1       3.251   3.347  21.755  0.00  0.00    +0.000 HD
ENDBRANCH  28  29
ENDBRANCH  27  28
ENDBRANCH  26  27
ENDBRANCH   7  26
TORSDOF 8
ENDMDL
MODEL 9
REMARK VINA RESULT:      -7.1      3.388      8.125
REMARK  Name = 
REMARK  10 active torsions:
REMARK  status: ('A' for Active; 'I' for Inactive)
REMARK    1  A    between atoms: C_1  and  O_2
REMARK    2  A    between atoms: O_2  and  C_3
REMARK    3  A    between atoms: C_8  and  O_9
REMARK    4  A    between atoms: O_9  and  C_10
REMARK    5  A    between atoms: C_14  and  C_15
REMARK    6  A    between atoms: C_18  and  C_19
REMARK    7  A    between atoms: C_23  and  O_24
REMARK    8  A    between atoms: O_24  and  C_25
REMARK    9  A    between atoms: C_25  and  C_26
REMARK   10  A    between atoms: C_26  and  O_27
REMARK                            x       y       z     vdW  Elec       q    Type
REMARK                         _______ _______ _______ _____ _____    ______ ____
ROOT
ATOM      1  C   UNL     1       0.998   9.967  19.388  0.00  0.00    +0.000 A 
ATOM      2  C   UNL     1       1.878  10.171  18.333  0.00  0.00    +0.000 A 
ATOM      3  N   UNL     1       2.034  11.413  17.705  0.00  0.00    +0.000 N 
ATOM      4  N   UNL     1       2.687   9.217  17.861  0.00  0.00    +0.000 NA
ATOM      5  C   UNL     1       2.590   8.009  18.442  0.00  0.00    +0.000 A 
ATOM      6  N   UNL     1       1.851   7.728  19.519  0.00  0.00    +0.000 NA
ATOM      7  C   UNL     1       1.113   8.736  20.009  0.00  0.00    +0.000 A 
ATOM      8  H   UNL     1       1.136  11.803  17.440  0.00  0.00    +0.000 HD
ATOM      9  H   UNL     1       2.657  11.282  16.914  0.00  0.00    +0.000 HD
ENDROOT
BRANCH   5  10
ATOM     10  C   UNL     1       3.327   6.904  17.820  0.00  0.00    +0.000 A 
ATOM     11  C   UNL     1       2.911   5.565  17.986  0.00  0.00    +0.000 A 
ATOM     12  C   UNL     1       3.614   4.524  17.396  0.00  0.00    +0.000 A 
ATOM     13  C   UNL     1       4.755   4.775  16.627  0.00  0.00    +0.000 A 
ATOM     14  C   UNL     1       5.499   3.655  15.970  0.00  0.00    +0.000 C 
ATOM     15  C   UNL     1       5.197   6.096  16.475  0.00  0.00    +0.000 A 
ATOM     16  C   UNL     1       4.482   7.144  17.057  0.00  0.00    +0.000 A 
ENDBRANCH   5  10
BRANCH   1  17
ATOM     17  O   UNL     1       0.171  10.994  19.748  0.00  0.00    +0.000 OA
BRANCH  17  23
ATOM     18  C   UNL     1      -2.150  11.952  19.679  0.00  0.00    +0.000 A 
ATOM     19  C   UNL     1      -3.389  11.894  19.020  0.00  0.00    +0.000 A 
ATOM     20  C   UNL     1      -3.607  11.027  17.952  0.00  0.00    +0.000 A 
ATOM     21  C   UNL     1      -2.581  10.199  17.523  0.00  0.00    +0.000 A 
ATOM     22  C   UNL     1      -1.340  10.244  18.157  0.00  0.00    +0.000 A 
ATOM     23  C   UNL     1      -1.105  11.121  19.231  0.00  0.00    +0.000 A 
BRANCH  18  25
ATOM     24  C   UNL     1      -3.147  12.991  21.548  0.00  0.00    +0.000 C 
ATOM     25  O   UNL     1      -1.970  12.789  20.756  0.00  0.00    +0.000 OA
ENDBRANCH  18  25
ENDBRANCH  17  23
ENDBRANCH   1  17
BRANCH   7  26
ATOM     26  O   UNL     1       0.409   8.508  21.170  0.00  0.00    +0.000 OA
BRANCH  26  27
ATOM     27  C   UNL     1       0.933   9.137  22.342  0.00  0.00    +0.000 C 
BRANCH  27  28
ATOM     28  C   UNL     1      -0.241   9.823  23.033  0.00  0.00    +0.000 C 
BRANCH  28  29
ATOM     29  O   UNL     1      -0.233  11.229  22.792  0.00  0.00    +0.000 OA
ATOM     30  H   UNL     1      -0.968  11.405  22.174  0.00  0.00    +0.000 HD
ENDBRANCH  28  29
ENDBRANCH  27  28
ENDBRANCH  26  27
ENDBRANCH   7  26
TORSDOF 8
ENDMDL
