MODEL 1
REMARK VINA RESULT:      -5.7      0.000      0.000
REMARK  Name = 
REMARK  7 active torsions:
REMARK  status: ('A' for Active; 'I' for Inactive)
REMARK    1  A    between atoms: N_1  and  CA_2
REMARK    2  A    between atoms: CA_2  and  C_3
REMARK    3  A    between atoms: CA_2  and  C_11
REMARK    4  A    between atoms: C_3  and  C_4
REMARK    5  A    between atoms: C_4  and  C_5
REMARK    6  A    between atoms: C_9  and  O_10
REMARK    7  A    between atoms: C_11  and  OXT_13
REMARK                            x       y       z     vdW  Elec       q    Type
REMARK                         _______ _______ _______ _____ _____    ______ ____
ROOT
ATOM      1  C   UNL     1       5.415   4.423  16.278  0.00  0.00    +0.000 C 
ENDROOT
BRANCH   1   2
ATOM      2  CA  UNL     1       6.619   5.296  16.653  0.00  0.00    +0.000 C 
BRANCH   2   3
ATOM      3  N   UNL     1       7.539   5.566  15.512  0.00  0.00    +0.000 NA
ATOM      4  H1  UNL     1       7.167   5.090  14.684  0.00  0.00    +0.000 HD
ATOM      5  H2  UNL     1       8.440   5.111  15.684  0.00  0.00    +0.000 HD
ENDBRANCH   2   3
BRANCH   2   6
ATOM      6  C   UNL     1       7.441   4.717  17.819  0.00  0.00    +0.000 C 
ATOM      7  O   UNL     1       8.464   4.062  17.716  0.00  0.00    +0.000 OA
BRANCH   6   8
ATOM      8  OXT UNL     1       6.862   5.017  19.013  0.00  0.00    +0.000 OA
ATOM      9  HXT UNL     1       5.887   4.899  18.888  0.00  0.00    +0.000 HD
ENDBRANCH   6   8
ENDBRANCH   2   6
ENDBRANCH   1   2
BRANCH   1  10
ATOM     10  C   UNL     1       4.115   4.776  17.010  0.00  0.00    +0.000 C 
BRANCH  10  11
ATOM     11  C   UNL     1       3.443   3.594  17.607  0.00  0.00    +0.000 A 
ATOM     12  N   UNL     1       2.230   3.190  17.211  0.00  0.00    +0.000 NA
ATOM     13  O   UNL     1       1.937   2.085  18.020  0.00  0.00    +0.000 OA
ATOM     14  N   UNL     1       2.983   1.815  18.914  0.00  0.00    +0.000 NA
ATOM     15  C   UNL     1       3.872   2.753  18.628  0.00  0.00    +0.000 A 
BRANCH  15  16
ATOM     16  O   UNL     1       5.003   2.758  19.340  0.00  0.00    +0.000 OA
ATOM     17  H   UNL     1       4.824   3.311  20.121  0.00  0.00    +0.000 HD
ENDBRANCH  15  16
ENDBRANCH  10  11
ENDBRANCH   1  10
TORSDOF 7
ENDMDL
MODEL 2
REMARK VINA RESULT:      -5.6      1.877      4.898
REMARK  Name = 
REMARK  7 active torsions:
REMARK  status: ('A' for Active; 'I' for Inactive)
REMARK    1  A    between atoms: N_1  and  CA_2
REMARK    2  A    between atoms: CA_2  and  C_3
REMARK    3  A    between atoms: CA_2  and  C_11
REMARK    4  A    between atoms: C_3  and  C_4
REMARK    5  A    between atoms: C_4  and  C_5
REMARK    6  A    between atoms: C_9  and  O_10
REMARK    7  A    between atoms: C_11  and  OXT_13
REMARK                            x       y       z     vdW  Elec       q    Type
REMARK                         _______ _______ _______ _____ _____    ______ ____
ROOT
ATOM      1  C   UNL     1       3.787   4.244  19.040  0.00  0.00    +0.000 C 
ENDROOT
BRANCH   1   2
ATOM      2  CA  UNL     1       3.663   2.768  19.439  0.00  0.00    +0.000 C 
BRANCH   2   3
ATOM      3  N   UNL     1       4.925   2.188  19.978  0.00  0.00    +0.000 NA
ATOM      4  H1  UNL     1       4.712   1.260  20.357  0.00  0.00    +0.000 HD
ATOM      5  H2  UNL     1       5.232   2.731  20.791  0.00  0.00    +0.000 HD
ENDBRANCH   2   3
BRANCH   2   6
ATOM      6  C   UNL     1       3.165   1.875  18.288  0.00  0.00    +0.000 C 
ATOM      7  O   UNL     1       2.201   2.100  17.575  0.00  0.00    +0.000 OA
BRANCH   6   8
ATOM      8  OXT UNL     1       3.940   0.765  18.168  0.00  0.00    +0.000 OA
ATOM      9  HXT UNL     1       4.692   1.011  17.573  0.00  0.00    +0.000 HD
ENDBRANCH   6   8
ENDBRANCH   2   6
ENDBRANCH   1   2
BRANCH   1  10
ATOM     10  C   UNL     1       4.356   4.482  17.636  0.00  0.00    +0.000 C 
BRANCH  10  11
ATOM     11  C   UNL     1       5.840   4.450  17.596  0.00  0.00    +0.000 A 
ATOM     12  N   UNL     1       6.583   4.579  18.702  0.00  0.00    +0.000 NA
ATOM     13  O   UNL     1       7.908   4.530  18.253  0.00  0.00    +0.000 OA
ATOM     14  N   UNL     1       7.970   4.370  16.861  0.00  0.00    +0.000 NA
ATOM     15  C   UNL     1       6.695   4.326  16.507  0.00  0.00    +0.000 A 
BRANCH  15  16
ATOM     16  O   UNL     1       6.428   4.183  15.205  0.00  0.00    +0.000 OA
ATOM     17  H   UNL     1       5.464   4.064  15.142  0.00  0.00    +0.000 HD
ENDBRANCH  15  16
ENDBRANCH  10  11
ENDBRANCH   1  10
TORSDOF 7
ENDMDL
MODEL 3
REMARK VINA RESULT:      -5.5      2.104      4.787
REMARK  Name = 
REMARK  7 active torsions:
REMARK  status: ('A' for Active; 'I' for Inactive)
REMARK    1  A    between atoms: N_1  and  CA_2
REMARK    2  A    between atoms: CA_2  and  C_3
REMARK    3  A    between atoms: CA_2  and  C_11
REMARK    4  A    between atoms: C_3  and  C_4
REMARK    5  A    between atoms: C_4  and  C_5
REMARK    6  A    between atoms: C_9  and  O_10
REMARK    7  A    between atoms: C_11  and  OXT_13
REMARK                            x       y       z     vdW  Elec       q    Type
REMARK                         _______ _______ _______ _____ _____    ______ ____
ROOT
ATOM      1  C   UNL     1       4.367   5.479  18.964  0.00  0.00    +0.000 C 
ENDROOT
BRANCH   1   2
ATOM      2  CA  UNL     1       4.006   4.032  19.324  0.00  0.00    +0.000 C 
BRANCH   2   3
ATOM      3  N   UNL     1       5.176   3.109  19.330  0.00  0.00    +0.000 NA
ATOM      4  H1  UNL     1       5.797   3.388  20.095  0.00  0.00    +0.000 HD
ATOM      5  H2  UNL     1       5.732   3.256  18.483  0.00  0.00    +0.000 HD
ENDBRANCH   2   3
BRANCH   2   6
ATOM      6  C   UNL     1       2.919   3.441  18.407  0.00  0.00    +0.000 C 
ATOM      7  O   UNL     1       1.753   3.794  18.362  0.00  0.00    +0.000 OA
BRANCH   6   8
ATOM      8  OXT UNL     1       3.427   2.436  17.644  0.00  0.00    +0.000 OA
ATOM      9  HXT UNL     1       4.400   2.413  17.822  0.00  0.00    +0.000 HD
ENDBRANCH   6   8
ENDBRANCH   2   6
ENDBRANCH   1   2
BRANCH   1  10
ATOM     10  C   UNL     1       4.319   5.798  17.465  0.00  0.00    +0.000 C 
BRANCH  10  11
ATOM     11  C   UNL     1       5.640   5.668  16.800  0.00  0.00    +0.000 A 
ATOM     12  N   UNL     1       6.433   6.723  16.582  0.00  0.00    +0.000 NA
ATOM     13  O   UNL     1       7.550   6.203  15.917  0.00  0.00    +0.000 OA
ATOM     14  N   UNL     1       7.435   4.818  15.732  0.00  0.00    +0.000 NA
ATOM     15  C   UNL     1       6.264   4.538  16.282  0.00  0.00    +0.000 A 
BRANCH  15  16
ATOM     16  O   UNL     1       5.865   3.263  16.251  0.00  0.00    +0.000 OA
ATOM     17  H   UNL     1       5.298   3.180  15.464  0.00  0.00    +0.000 HD
ENDBRANCH  15  16
ENDBRANCH  10  11
ENDBRANCH   1  10
TORSDOF 7
ENDMDL
MODEL 4
REMARK VINA RESULT:      -5.5      1.840      5.101
REMARK  Name = 
REMARK  7 active torsions:
REMARK  status: ('A' for Active; 'I' for Inactive)
REMARK    1  A    between atoms: N_1  and  CA_2
REMARK    2  A    between atoms: CA_2  and  C_3
REMARK    3  A    between atoms: CA_2  and  C_11
REMARK    4  A    between atoms: C_3  and  C_4
REMARK    5  A    between atoms: C_4  and  C_5
REMARK    6  A    between atoms: C_9  and  O_10
REMARK    7  A    between atoms: C_11  and  OXT_13
REMARK                            x       y       z     vdW  Elec       q    Type
REMARK                         _______ _______ _______ _____ _____    ______ ____
ROOT
ATOM      1  C   UNL     1       4.252   3.532  18.055  0.00  0.00    +0.000 C 
ENDROOT
BRANCH   1   2
ATOM      2  CA  UNL     1       3.903   2.877  19.398  0.00  0.00    +0.000 C 
BRANCH   2   3
ATOM      3  N   UNL     1       4.898   1.862  19.843  0.00  0.00    +0.000 NA
ATOM      4  H1  UNL     1       5.761   2.006  19.310  0.00  0.00    +0.000 HD
ATOM      5  H2  UNL     1       4.581   0.927  19.567  0.00  0.00    +0.000 HD
ENDBRANCH   2   3
BRANCH   2   6
ATOM      6  C   UNL     1       2.505   2.229  19.403  0.00  0.00    +0.000 C 
ATOM      7  O   UNL     1       1.706   2.262  20.323  0.00  0.00    +0.000 OA
BRANCH   6   8
ATOM      8  OXT UNL     1       2.270   1.582  18.230  0.00  0.00    +0.000 OA
ATOM      9  HXT UNL     1       1.292   1.619  18.081  0.00  0.00    +0.000 HD
ENDBRANCH   6   8
ENDBRANCH   2   6
ENDBRANCH   1   2
BRANCH   1  10
ATOM     10  C   UNL     1       5.104   4.802  18.165  0.00  0.00    +0.000 C 
BRANCH  10  11
ATOM     11  C   UNL     1       5.844   5.115  16.916  0.00  0.00    +0.000 A 
ATOM     12  N   UNL     1       5.278   5.780  15.902  0.00  0.00    +0.000 NA
ATOM     13  O   UNL     1       6.270   5.846  14.916  0.00  0.00    +0.000 OA
ATOM     14  N   UNL     1       7.450   5.216  15.337  0.00  0.00    +0.000 NA
ATOM     15  C   UNL     1       7.146   4.789  16.552  0.00  0.00    +0.000 A 
BRANCH  15  16
ATOM     16  O   UNL     1       8.094   4.126  17.220  0.00  0.00    +0.000 OA
ATOM     17  H   UNL     1       7.626   3.485  17.784  0.00  0.00    +0.000 HD
ENDBRANCH  15  16
ENDBRANCH  10  11
ENDBRANCH   1  10
TORSDOF 7
ENDMDL
MODEL 5
REMARK VINA RESULT:      -5.5      1.928      4.976
REMARK  Name = 
REMARK  7 active torsions:
REMARK  status: ('A' for Active; 'I' for Inactive)
REMARK    1  A    between atoms: N_1  and  CA_2
REMARK    2  A    between atoms: CA_2  and  C_3
REMARK    3  A    between atoms: CA_2  and  C_11
REMARK    4  A    between atoms: C_3  and  C_4
REMARK    5  A    between atoms: C_4  and  C_5
REMARK    6  A    between atoms: C_9  and  O_10
REMARK    7  A    between atoms: C_11  and  OXT_13
REMARK                            x       y       z     vdW  Elec       q    Type
REMARK                         _______ _______ _______ _____ _____    ______ ____
ROOT
ATOM      1  C   UNL     1       4.350   3.907  17.396  0.00  0.00    +0.000 C 
ENDROOT
BRANCH   1   2
ATOM      2  CA  UNL     1       3.980   3.180  18.695  0.00  0.00    +0.000 C 
BRANCH   2   3
ATOM      3  N   UNL     1       5.159   2.801  19.524  0.00  0.00    +0.000 NA
ATOM      4  H1  UNL     1       4.980   3.100  20.487  0.00  0.00    +0.000 HD
ATOM      5  H2  UNL     1       5.973   3.351  19.233  0.00  0.00    +0.000 HD
ENDBRANCH   2   3
BRANCH   2   6
ATOM      6  C   UNL     1       3.124   1.922  18.455  0.00  0.00    +0.000 C 
ATOM      7  O   UNL     1       1.906   1.880  18.438  0.00  0.00    +0.000 OA
BRANCH   6   8
ATOM      8  OXT UNL     1       3.913   0.829  18.276  0.00  0.00    +0.000 OA
ATOM      9  HXT UNL     1       3.709   0.482  17.372  0.00  0.00    +0.000 HD
ENDBRANCH   6   8
ENDBRANCH   2   6
ENDBRANCH   1   2
BRANCH   1  10
ATOM     10  C   UNL     1       4.399   5.435  17.508  0.00  0.00    +0.000 C 
BRANCH  10  11
ATOM     11  C   UNL     1       5.783   5.973  17.522  0.00  0.00    +0.000 A 
ATOM     12  N   UNL     1       6.307   6.615  16.471  0.00  0.00    +0.000 NA
ATOM     13  O   UNL     1       7.615   6.931  16.856  0.00  0.00    +0.000 OA
ATOM     14  N   UNL     1       7.888   6.478  18.155  0.00  0.00    +0.000 NA
ATOM     15  C   UNL     1       6.751   5.905  18.518  0.00  0.00    +0.000 A 
BRANCH  15  16
ATOM     16  O   UNL     1       6.706   5.359  19.736  0.00  0.00    +0.000 OA
ATOM     17  H   UNL     1       6.438   6.074  20.340  0.00  0.00    +0.000 HD
ENDBRANCH  15  16
ENDBRANCH  10  11
ENDBRANCH   1  10
TORSDOF 7
ENDMDL
MODEL 6
REMARK VINA RESULT:      -5.5      1.119      1.237
REMARK  Name = 
REMARK  7 active torsions:
REMARK  status: ('A' for Active; 'I' for Inactive)
REMARK    1  A    between atoms: N_1  and  CA_2
REMARK    2  A    between atoms: CA_2  and  C_3
REMARK    3  A    between atoms: CA_2  and  C_11
REMARK    4  A    between atoms: C_3  and  C_4
REMARK    5  A    between atoms: C_4  and  C_5
REMARK    6  A    between atoms: C_9  and  O_10
REMARK    7  A    between atoms: C_11  and  OXT_13
REMARK                            x       y       z     vdW  Elec       q    Type
REMARK                         _______ _______ _______ _____ _____    ______ ____
ROOT
ATOM      1  C   UNL     1       4.793   5.601  16.841  0.00  0.00    +0.000 C 
ENDROOT
BRANCH   1   2
ATOM      2  CA  UNL     1       6.216   5.868  17.346  0.00  0.00    +0.000 C 
BRANCH   2   3
ATOM      3  N   UNL     1       6.719   7.232  17.022  0.00  0.00    +0.000 NA
ATOM      4  H1  UNL     1       5.927   7.881  17.063  0.00  0.00    +0.000 HD
ATOM      5  H2  UNL     1       7.022   7.262  16.044  0.00  0.00    +0.000 HD
ENDBRANCH   2   3
BRANCH   2   6
ATOM      6  C   UNL     1       7.237   4.834  16.835  0.00  0.00    +0.000 C 
ATOM      7  O   UNL     1       7.633   4.730  15.687  0.00  0.00    +0.000 OA
BRANCH   6   8
ATOM      8  OXT UNL     1       7.643   4.018  17.844  0.00  0.00    +0.000 OA
ATOM      9  HXT UNL     1       7.434   3.094  17.557  0.00  0.00    +0.000 HD
ENDBRANCH   6   8
ENDBRANCH   2   6
ENDBRANCH   1   2
BRANCH   1  10
ATOM     10  C   UNL     1       4.523   4.150  16.424  0.00  0.00    +0.000 C 
BRANCH  10  11
ATOM     11  C   UNL     1       3.695   3.407  17.407  0.00  0.00    +0.000 A 
ATOM     12  N   UNL     1       2.408   3.118  17.179  0.00  0.00    +0.000 NA
ATOM     13  O   UNL     1       1.979   2.452  18.333  0.00  0.00    +0.000 OA
ATOM     14  N   UNL     1       3.016   2.333  19.270  0.00  0.00    +0.000 NA
ATOM     15  C   UNL     1       4.035   2.925  18.667  0.00  0.00    +0.000 A 
BRANCH  15  16
ATOM     16  O   UNL     1       5.191   2.978  19.334  0.00  0.00    +0.000 OA
ATOM     17  H   UNL     1       5.238   3.872  19.717  0.00  0.00    +0.000 HD
ENDBRANCH  15  16
ENDBRANCH  10  11
ENDBRANCH   1  10
TORSDOF 7
ENDMDL
MODEL 7
REMARK VINA RESULT:      -5.5      1.115      1.332
REMARK  Name = 
REMARK  7 active torsions:
REMARK  status: ('A' for Active; 'I' for Inactive)
REMARK    1  A    between atoms: N_1  and  CA_2
REMARK    2  A    between atoms: CA_2  and  C_3
REMARK    3  A    between atoms: CA_2  and  C_11
REMARK    4  A    between atoms: C_3  and  C_4
REMARK    5  A    between atoms: C_4  and  C_5
REMARK    6  A    between atoms: C_9  and  O_10
REMARK    7  A    between atoms: C_11  and  OXT_13
REMARK                            x       y       z     vdW  Elec       q    Type
REMARK                         _______ _______ _______ _____ _____    ______ ____
ROOT
ATOM      1  C   UNL     1       5.200   5.555  17.339  0.00  0.00    +0.000 C 
ENDROOT
BRANCH   1   2
ATOM      2  CA  UNL     1       6.722   5.698  17.460  0.00  0.00    +0.000 C 
BRANCH   2   3
ATOM      3  N   UNL     1       7.480   4.619  16.767  0.00  0.00    +0.000 NA
ATOM      4  H1  UNL     1       6.818   3.882  16.505  0.00  0.00    +0.000 HD
ATOM      5  H2  UNL     1       8.116   4.166  17.431  0.00  0.00    +0.000 HD
ENDBRANCH   2   3
BRANCH   2   6
ATOM      6  C   UNL     1       7.202   5.773  18.922  0.00  0.00    +0.000 C 
ATOM      7  O   UNL     1       6.713   5.175  19.866  0.00  0.00    +0.000 OA
BRANCH   6   8
ATOM      8  OXT UNL     1       8.255   6.625  19.040  0.00  0.00    +0.000 OA
ATOM      9  HXT UNL     1       8.665   6.443  19.923  0.00  0.00    +0.000 HD
ENDBRANCH   6   8
ENDBRANCH   2   6
ENDBRANCH   1   2
BRANCH   1  10
ATOM     10  C   UNL     1       4.730   4.278  16.631  0.00  0.00    +0.000 C 
BRANCH  10  11
ATOM     11  C   UNL     1       3.801   3.465  17.455  0.00  0.00    +0.000 A 
ATOM     12  N   UNL     1       2.531   3.251  17.092  0.00  0.00    +0.000 NA
ATOM     13  O   UNL     1       1.985   2.482  18.127  0.00  0.00    +0.000 OA
ATOM     14  N   UNL     1       2.934   2.225  19.127  0.00  0.00    +0.000 NA
ATOM     15  C   UNL     1       4.017   2.839  18.678  0.00  0.00    +0.000 A 
BRANCH  15  16
ATOM     16  O   UNL     1       5.113   2.777  19.440  0.00  0.00    +0.000 OA
ATOM     17  H   UNL     1       4.978   3.423  20.155  0.00  0.00    +0.000 HD
ENDBRANCH  15  16
ENDBRANCH  10  11
ENDBRANCH   1  10
TORSDOF 7
ENDMDL
MODEL 8
REMARK VINA RESULT:      -5.4      1.807      2.106
REMARK  Name = 
REMARK  7 active torsions:
REMARK  status: ('A' for Active; 'I' for Inactive)
REMARK    1  A    between atoms: N_1  and  CA_2
REMARK    2  A    between atoms: CA_2  and  C_3
REMARK    3  A    between atoms: CA_2  and  C_11
REMARK    4  A    between atoms: C_3  and  C_4
REMARK    5  A    between atoms: C_4  and  C_5
REMARK    6  A    between atoms: C_9  and  O_10
REMARK    7  A    between atoms: C_11  and  OXT_13
REMARK                            x       y       z     vdW  Elec       q    Type
REMARK                         _______ _______ _______ _____ _____    ______ ____
ROOT
ATOM      1  C   UNL     1       4.915   5.422  16.360  0.00  0.00    +0.000 C 
ENDROOT
BRANCH   1   2
ATOM      2  CA  UNL     1       5.959   4.321  16.142  0.00  0.00    +0.000 C 
BRANCH   2   3
ATOM      3  N   UNL     1       7.006   4.272  17.202  0.00  0.00    +0.000 NA
ATOM      4  H1  UNL     1       7.816   4.806  16.874  0.00  0.00    +0.000 HD
ATOM      5  H2  UNL     1       7.353   3.313  17.296  0.00  0.00    +0.000 HD
ENDBRANCH   2   3
BRANCH   2   6
ATOM      6  C   UNL     1       6.654   4.416  14.771  0.00  0.00    +0.000 C 
ATOM      7  O   UNL     1       6.371   3.764  13.780  0.00  0.00    +0.000 OA
BRANCH   6   8
ATOM      8  OXT UNL     1       7.661   5.329  14.803  0.00  0.00    +0.000 OA
ATOM      9  HXT UNL     1       7.345   6.074  15.373  0.00  0.00    +0.000 HD
ENDBRANCH   6   8
ENDBRANCH   2   6
ENDBRANCH   1   2
BRANCH   1  10
ATOM     10  C   UNL     1       4.030   5.230  17.598  0.00  0.00    +0.000 C 
BRANCH  10  11
ATOM     11  C   UNL     1       3.490   3.852  17.719  0.00  0.00    +0.000 A 
ATOM     12  N   UNL     1       2.375   3.467  17.087  0.00  0.00    +0.000 NA
ATOM     13  O   UNL     1       2.184   2.135  17.473  0.00  0.00    +0.000 OA
ATOM     14  N   UNL     1       3.194   1.707  18.346  0.00  0.00    +0.000 NA
ATOM     15  C   UNL     1       3.962   2.779  18.467  0.00  0.00    +0.000 A 
BRANCH  15  16
ATOM     16  O   UNL     1       5.029   2.678  19.264  0.00  0.00    +0.000 OA
ATOM     17  H   UNL     1       4.921   1.841  19.750  0.00  0.00    +0.000 HD
ENDBRANCH  15  16
ENDBRANCH  10  11
ENDBRANCH   1  10
TORSDOF 7
ENDMDL
MODEL 9
REMARK VINA RESULT:      -5.4      2.455      4.557
REMARK  Name = 
REMARK  7 active torsions:
REMARK  status: ('A' for Active; 'I' for Inactive)
REMARK    1  A    between atoms: N_1  and  CA_2
REMARK    2  A    between atoms: CA_2  and  C_3
REMARK    3  A    between atoms: CA_2  and  C_11
REMARK    4  A    between atoms: C_3  and  C_4
REMARK    5  A    between atoms: C_4  and  C_5
REMARK    6  A    between atoms: C_9  and  O_10
REMARK    7  A    between atoms: C_11  and  OXT_13
REMARK                            x       y       z     vdW  Elec       q    Type
REMARK                         _______ _______ _______ _____ _____    ______ ____
ROOT
ATOM      1  C   UNL     1       6.703   5.636  18.647  0.00  0.00    +0.000 C 
ENDROOT
BRANCH   1   2
ATOM      2  CA  UNL     1       5.421   4.975  19.171  0.00  0.00    +0.000 C 
BRANCH   2   3
ATOM      3  N   UNL     1       5.492   3.488  19.216  0.00  0.00    +0.000 NA
ATOM      4  H1  UNL     1       6.292   3.225  19.798  0.00  0.00    +0.000 HD
ATOM      5  H2  UNL     1       5.725   3.128  18.285  0.00  0.00    +0.000 HD
ENDBRANCH   2   3
BRANCH   2   6
ATOM      6  C   UNL     1       4.168   5.383  18.373  0.00  0.00    +0.000 C 
ATOM      7  O   UNL     1       3.792   6.524  18.168  0.00  0.00    +0.000 OA
BRANCH   6   8
ATOM      8  OXT UNL     1       3.503   4.284  17.927  0.00  0.00    +0.000 OA
ATOM      9  HXT UNL     1       3.815   3.525  18.478  0.00  0.00    +0.000 HD
ENDBRANCH   6   8
ENDBRANCH   2   6
ENDBRANCH   1   2
BRANCH   1  10
ATOM     10  C   UNL     1       7.567   4.739  17.753  0.00  0.00    +0.000 C 
BRANCH  10  11
ATOM     11  C   UNL     1       7.134   4.745  16.332  0.00  0.00    +0.000 A 
ATOM     12  N   UNL     1       7.579   5.654  15.458  0.00  0.00    +0.000 NA
ATOM     13  O   UNL     1       6.928   5.349  14.257  0.00  0.00    +0.000 OA
ATOM     14  N   UNL     1       6.080   4.242  14.404  0.00  0.00    +0.000 NA
ATOM     15  C   UNL     1       6.238   3.909  15.676  0.00  0.00    +0.000 A 
BRANCH  15  16
ATOM     16  O   UNL     1       5.533   2.867  16.125  0.00  0.00    +0.000 OA
ATOM     17  H   UNL     1       5.540   2.939  17.096  0.00  0.00    +0.000 HD
ENDBRANCH  15  16
ENDBRANCH  10  11
ENDBRANCH   1  10
TORSDOF 7
ENDMDL
