MODEL 1
REMARK VINA RESULT:      -9.2      0.000      0.000
REMARK  Name = 
REMARK  5 active torsions:
REMARK  status: ('A' for Active; 'I' for Inactive)
REMARK    1  A    between atoms: C_2  and  C_5
REMARK    2  A    between atoms: C_7  and  C_8
REMARK    3  A    between atoms: C_8  and  N_9
REMARK    4  A    between atoms: C_12  and  C_13
REMARK    5  A    between atoms: C_28  and  C_29
REMARK                            x       y       z     vdW  Elec       q    Type
REMARK                         _______ _______ _______ _____ _____    ______ ____
ROOT
ATOM      1  N   UNL     1       1.771   8.172  18.599  0.00  0.00    +0.000 NA
ATOM      2  C   UNL     1       1.730   8.491  20.037  0.00  0.00    +0.000 C 
ATOM      3  C   UNL     1       0.383   9.055  20.508  0.00  0.00    +0.000 C 
ATOM      4  C   UNL     1      -0.114  10.239  19.669  0.00  0.00    +0.000 C 
ATOM      5  C   UNL     1      -0.072   9.853  18.192  0.00  0.00    +0.000 C 
ATOM      6  C   UNL     1       1.290   9.300  17.772  0.00  0.00    +0.000 C 
ENDROOT
BRANCH   4   7
ATOM      7  C   UNL     1       0.594  11.531  19.962  0.00  0.00    +0.000 A 
ATOM      8  N   UNL     1       1.704  11.939  19.236  0.00  0.00    +0.000 NA
ATOM      9  N   UNL     1       2.155  13.089  19.736  0.00  0.00    +0.000 NA
ATOM     10  N   UNL     1       1.345  13.413  20.753  0.00  0.00    +0.000 N 
ATOM     11  C   UNL     1       1.491  14.551  21.559  0.00  0.00    +0.000 A 
ATOM     12  N   UNL     1       0.641  14.836  22.522  0.00  0.00    +0.000 NA
ATOM     13  C   UNL     1      -0.387  13.941  22.647  0.00  0.00    +0.000 A 
ATOM     14  N   UNL     1      -1.425  14.096  23.525  0.00  0.00    +0.000 N 
ATOM     15  C   UNL     1      -2.319  13.059  23.360  0.00  0.00    +0.000 A 
ATOM     16  C   UNL     1      -1.830  12.202  22.391  0.00  0.00    +0.000 A 
ATOM     17  C   UNL     1      -0.640  12.777  21.938  0.00  0.00    +0.000 A 
ATOM     18  C   UNL     1       0.346  12.492  20.901  0.00  0.00    +0.000 A 
ATOM     19  H   UNL     1      -1.525  14.877  24.157  0.00  0.00    +0.000 HD
ENDBRANCH   4   7
BRANCH   1  20
ATOM     20  C   UNL     1       3.166   7.876  18.182  0.00  0.00    +0.000 C 
BRANCH  20  23
ATOM     21  C   UNL     1       4.920   4.838  16.622  0.00  0.00    +0.000 A 
ATOM     22  C   UNL     1       4.594   6.164  16.952  0.00  0.00    +0.000 A 
ATOM     23  C   UNL     1       3.439   6.464  17.695  0.00  0.00    +0.000 A 
ATOM     24  C   UNL     1       2.601   5.407  18.096  0.00  0.00    +0.000 A 
ATOM     25  C   UNL     1       2.909   4.072  17.787  0.00  0.00    +0.000 A 
ATOM     26  C   UNL     1       4.072   3.803  17.047  0.00  0.00    +0.000 A 
BRANCH  21  28
ATOM     27  F   UNL     1       6.090   3.328  15.154  0.00  0.00    +0.000 F 
ATOM     28  C   UNL     1       6.174   4.490  15.856  0.00  0.00    +0.000 C 
ATOM     29  F   UNL     1       7.258   4.363  16.670  0.00  0.00    +0.000 F 
ATOM     30  F   UNL     1       6.504   5.451  14.948  0.00  0.00    +0.000 F 
ENDBRANCH  21  28
BRANCH  25  31
ATOM     31  C   UNL     1       2.055   2.922  18.268  0.00  0.00    +0.000 C 
ATOM     32  F   UNL     1       2.245   1.768  17.571  0.00  0.00    +0.000 F 
ATOM     33  F   UNL     1       2.282   2.615  19.575  0.00  0.00    +0.000 F 
ATOM     34  F   UNL     1       0.724   3.199  18.177  0.00  0.00    +0.000 F 
ENDBRANCH  25  31
ENDBRANCH  20  23
ENDBRANCH   1  20
TORSDOF 5
ENDMDL
MODEL 2
REMARK VINA RESULT:      -9.2      0.521      3.046
REMARK  Name = 
REMARK  5 active torsions:
REMARK  status: ('A' for Active; 'I' for Inactive)
REMARK    1  A    between atoms: C_2  and  C_5
REMARK    2  A    between atoms: C_7  and  C_8
REMARK    3  A    between atoms: C_8  and  N_9
REMARK    4  A    between atoms: C_12  and  C_13
REMARK    5  A    between atoms: C_28  and  C_29
REMARK                            x       y       z     vdW  Elec       q    Type
REMARK                         _______ _______ _______ _____ _____    ______ ____
ROOT
ATOM      1  N   UNL     1       1.542   8.412  18.602  0.00  0.00    +0.000 NA
ATOM      2  C   UNL     1       1.632   8.630  20.057  0.00  0.00    +0.000 C 
ATOM      3  C   UNL     1       0.309   9.064  20.701  0.00  0.00    +0.000 C 
ATOM      4  C   UNL     1      -0.348  10.263  20.006  0.00  0.00    +0.000 C 
ATOM      5  C   UNL     1      -0.438   9.980  18.508  0.00  0.00    +0.000 C 
ATOM      6  C   UNL     1       0.905   9.555  17.914  0.00  0.00    +0.000 C 
ENDROOT
BRANCH   4   7
ATOM      7  C   UNL     1       0.302  11.580  20.320  0.00  0.00    +0.000 A 
ATOM      8  N   UNL     1       1.420  12.027  19.632  0.00  0.00    +0.000 NA
ATOM      9  N   UNL     1       1.813  13.193  20.145  0.00  0.00    +0.000 NA
ATOM     10  N   UNL     1       0.957  13.489  21.133  0.00  0.00    +0.000 N 
ATOM     11  C   UNL     1       1.034  14.632  21.941  0.00  0.00    +0.000 A 
ATOM     12  N   UNL     1       0.142  14.886  22.874  0.00  0.00    +0.000 NA
ATOM     13  C   UNL     1      -0.857  13.955  22.965  0.00  0.00    +0.000 A 
ATOM     14  N   UNL     1      -1.929  14.074  23.807  0.00  0.00    +0.000 N 
ATOM     15  C   UNL     1      -2.778  13.005  23.613  0.00  0.00    +0.000 A 
ATOM     16  C   UNL     1      -2.227  12.165  22.664  0.00  0.00    +0.000 A 
ATOM     17  C   UNL     1      -1.043  12.782  22.251  0.00  0.00    +0.000 A 
ATOM     18  C   UNL     1      -0.012  12.533  21.248  0.00  0.00    +0.000 A 
ATOM     19  H   UNL     1      -2.079  14.851  24.434  0.00  0.00    +0.000 HD
ENDBRANCH   4   7
BRANCH   1  20
ATOM     20  C   UNL     1       2.901   8.245  18.027  0.00  0.00    +0.000 C 
BRANCH  20  23
ATOM     21  C   UNL     1       2.906   4.413  17.788  0.00  0.00    +0.000 A 
ATOM     22  C   UNL     1       2.554   5.725  18.146  0.00  0.00    +0.000 A 
ATOM     23  C   UNL     1       3.356   6.818  17.774  0.00  0.00    +0.000 A 
ATOM     24  C   UNL     1       4.533   6.574  17.041  0.00  0.00    +0.000 A 
ATOM     25  C   UNL     1       4.902   5.273  16.664  0.00  0.00    +0.000 A 
ATOM     26  C   UNL     1       4.079   4.201  17.047  0.00  0.00    +0.000 A 
BRANCH  21  28
ATOM     27  F   UNL     1       0.706   3.459  18.028  0.00  0.00    +0.000 F 
ATOM     28  C   UNL     1       2.042   3.228  18.146  0.00  0.00    +0.000 C 
ATOM     29  F   UNL     1       2.241   2.813  19.429  0.00  0.00    +0.000 F 
ATOM     30  F   UNL     1       2.304   2.145  17.362  0.00  0.00    +0.000 F 
ENDBRANCH  21  28
BRANCH  25  31
ATOM     31  C   UNL     1       6.126   5.002  15.821  0.00  0.00    +0.000 C 
ATOM     32  F   UNL     1       5.999   5.399  14.525  0.00  0.00    +0.000 F 
ATOM     33  F   UNL     1       7.237   5.628  16.299  0.00  0.00    +0.000 F 
ATOM     34  F   UNL     1       6.436   3.676  15.777  0.00  0.00    +0.000 F 
ENDBRANCH  25  31
ENDBRANCH  20  23
ENDBRANCH   1  20
TORSDOF 5
ENDMDL
MODEL 3
REMARK VINA RESULT:      -9.1      0.169      3.051
REMARK  Name = 
REMARK  5 active torsions:
REMARK  status: ('A' for Active; 'I' for Inactive)
REMARK    1  A    between atoms: C_2  and  C_5
REMARK    2  A    between atoms: C_7  and  C_8
REMARK    3  A    between atoms: C_8  and  N_9
REMARK    4  A    between atoms: C_12  and  C_13
REMARK    5  A    between atoms: C_28  and  C_29
REMARK                            x       y       z     vdW  Elec       q    Type
REMARK                         _______ _______ _______ _____ _____    ______ ____
ROOT
ATOM      1  N   UNL     1       1.676   8.251  18.547  0.00  0.00    +0.000 NA
ATOM      2  C   UNL     1       1.752   8.519  19.994  0.00  0.00    +0.000 C 
ATOM      3  C   UNL     1       0.436   9.023  20.601  0.00  0.00    +0.000 C 
ATOM      4  C   UNL     1      -0.168  10.218  19.852  0.00  0.00    +0.000 C 
ATOM      5  C   UNL     1      -0.245   9.883  18.364  0.00  0.00    +0.000 C 
ATOM      6  C   UNL     1       1.090   9.390  17.807  0.00  0.00    +0.000 C 
ENDROOT
BRANCH   4   7
ATOM      7  C   UNL     1       0.524  11.522  20.129  0.00  0.00    +0.000 A 
ATOM      8  N   UNL     1       1.638  11.927  19.409  0.00  0.00    +0.000 NA
ATOM      9  N   UNL     1       2.074  13.090  19.892  0.00  0.00    +0.000 NA
ATOM     10  N   UNL     1       1.249  13.425  20.894  0.00  0.00    +0.000 N 
ATOM     11  C   UNL     1       1.375  14.579  21.681  0.00  0.00    +0.000 A 
ATOM     12  N   UNL     1       0.511  14.873  22.629  0.00  0.00    +0.000 NA
ATOM     13  C   UNL     1      -0.510  13.971  22.758  0.00  0.00    +0.000 A 
ATOM     14  N   UNL     1      -1.558  14.132  23.622  0.00  0.00    +0.000 N 
ATOM     15  C   UNL     1      -2.441  13.084  23.466  0.00  0.00    +0.000 A 
ATOM     16  C   UNL     1      -1.933  12.213  22.519  0.00  0.00    +0.000 A 
ATOM     17  C   UNL     1      -0.743  12.792  22.069  0.00  0.00    +0.000 A 
ATOM     18  C   UNL     1       0.257  12.498  21.048  0.00  0.00    +0.000 A 
ATOM     19  H   UNL     1      -1.674  14.924  24.239  0.00  0.00    +0.000 HD
ENDBRANCH   4   7
BRANCH   1  20
ATOM     20  C   UNL     1       3.036   8.015  17.999  0.00  0.00    +0.000 C 
BRANCH  20  23
ATOM     21  C   UNL     1       2.899   4.180  17.879  0.00  0.00    +0.000 A 
ATOM     22  C   UNL     1       2.593   5.515  18.192  0.00  0.00    +0.000 A 
ATOM     23  C   UNL     1       3.440   6.565  17.797  0.00  0.00    +0.000 A 
ATOM     24  C   UNL     1       4.616   6.255  17.089  0.00  0.00    +0.000 A 
ATOM     25  C   UNL     1       4.940   4.930  16.757  0.00  0.00    +0.000 A 
ATOM     26  C   UNL     1       4.074   3.902  17.161  0.00  0.00    +0.000 A 
BRANCH  21  28
ATOM     27  F   UNL     1       2.145   1.923  17.500  0.00  0.00    +0.000 F 
ATOM     28  C   UNL     1       1.987   3.040  18.262  0.00  0.00    +0.000 C 
ATOM     29  F   UNL     1       0.671   3.379  18.168  0.00  0.00    +0.000 F 
ATOM     30  F   UNL     1       2.175   2.642  19.551  0.00  0.00    +0.000 F 
ENDBRANCH  21  28
BRANCH  25  31
ATOM     31  C   UNL     1       6.165   4.587  15.940  0.00  0.00    +0.000 C 
ATOM     32  F   UNL     1       7.313   4.530  16.669  0.00  0.00    +0.000 F 
ATOM     33  F   UNL     1       6.054   3.382  15.316  0.00  0.00    +0.000 F 
ATOM     34  F   UNL     1       6.394   5.498  14.953  0.00  0.00    +0.000 F 
ENDBRANCH  25  31
ENDBRANCH  20  23
ENDBRANCH   1  20
TORSDOF 5
ENDMDL
MODEL 4
REMARK VINA RESULT:      -9.1      2.513      3.360
REMARK  Name = 
REMARK  5 active torsions:
REMARK  status: ('A' for Active; 'I' for Inactive)
REMARK    1  A    between atoms: C_2  and  C_5
REMARK    2  A    between atoms: C_7  and  C_8
REMARK    3  A    between atoms: C_8  and  N_9
REMARK    4  A    between atoms: C_12  and  C_13
REMARK    5  A    between atoms: C_28  and  C_29
REMARK                            x       y       z     vdW  Elec       q    Type
REMARK                         _______ _______ _______ _____ _____    ______ ____
ROOT
ATOM      1  N   UNL     1       1.973   8.099  19.783  0.00  0.00    +0.000 NA
ATOM      2  C   UNL     1       1.825   8.408  18.350  0.00  0.00    +0.000 C 
ATOM      3  C   UNL     1       1.823   9.910  18.037  0.00  0.00    +0.000 C 
ATOM      4  C   UNL     1       0.820  10.711  18.877  0.00  0.00    +0.000 C 
ATOM      5  C   UNL     1       1.027  10.372  20.352  0.00  0.00    +0.000 C 
ATOM      6  C   UNL     1       1.018   8.866  20.612  0.00  0.00    +0.000 C 
ENDROOT
BRANCH   4   7
ATOM      7  C   UNL     1      -0.606  10.559  18.431  0.00  0.00    +0.000 A 
ATOM      8  N   UNL     1      -0.970   9.666  17.434  0.00  0.00    +0.000 NA
ATOM      9  N   UNL     1      -2.279   9.771  17.207  0.00  0.00    +0.000 NA
ATOM     10  N   UNL     1      -2.743  10.705  18.049  0.00  0.00    +0.000 N 
ATOM     11  C   UNL     1      -4.078  11.128  18.116  0.00  0.00    +0.000 A 
ATOM     12  N   UNL     1      -4.481  12.026  18.990  0.00  0.00    +0.000 NA
ATOM     13  C   UNL     1      -3.495  12.482  19.822  0.00  0.00    +0.000 A 
ATOM     14  N   UNL     1      -3.717  13.350  20.856  0.00  0.00    +0.000 N 
ATOM     15  C   UNL     1      -2.535  13.563  21.532  0.00  0.00    +0.000 A 
ATOM     16  C   UNL     1      -1.528  12.856  20.901  0.00  0.00    +0.000 A 
ATOM     17  C   UNL     1      -2.146  12.168  19.853  0.00  0.00    +0.000 A 
ATOM     18  C   UNL     1      -1.745  11.189  18.847  0.00  0.00    +0.000 A 
ATOM     19  H   UNL     1      -4.621  13.731  21.097  0.00  0.00    +0.000 HD
ENDBRANCH   4   7
BRANCH   1  20
ATOM     20  C   UNL     1       1.713   6.657  20.023  0.00  0.00    +0.000 C 
BRANCH  20  23
ATOM     21  C   UNL     1       5.014   5.073  18.867  0.00  0.00    +0.000 A 
ATOM     22  C   UNL     1       4.068   6.020  19.292  0.00  0.00    +0.000 A 
ATOM     23  C   UNL     1       2.710   5.682  19.419  0.00  0.00    +0.000 A 
ATOM     24  C   UNL     1       2.307   4.372  19.100  0.00  0.00    +0.000 A 
ATOM     25  C   UNL     1       3.234   3.405  18.680  0.00  0.00    +0.000 A 
ATOM     26  C   UNL     1       4.585   3.770  18.566  0.00  0.00    +0.000 A 
BRANCH  21  28
ATOM     27  F   UNL     1       6.742   6.558  18.083  0.00  0.00    +0.000 F 
ATOM     28  C   UNL     1       6.483   5.404  18.757  0.00  0.00    +0.000 C 
ATOM     29  F   UNL     1       7.186   4.428  18.118  0.00  0.00    +0.000 F 
ATOM     30  F   UNL     1       7.071   5.545  19.978  0.00  0.00    +0.000 F 
ENDBRANCH  21  28
BRANCH  25  31
ATOM     31  C   UNL     1       2.827   1.977  18.398  0.00  0.00    +0.000 C 
ATOM     32  F   UNL     1       3.853   1.086  18.488  0.00  0.00    +0.000 F 
ATOM     33  F   UNL     1       1.865   1.531  19.251  0.00  0.00    +0.000 F 
ATOM     34  F   UNL     1       2.312   1.829  17.146  0.00  0.00    +0.000 F 
ENDBRANCH  25  31
ENDBRANCH  20  23
ENDBRANCH   1  20
TORSDOF 5
ENDMDL
MODEL 5
REMARK VINA RESULT:      -9.1      0.357      1.011
REMARK  Name = 
REMARK  5 active torsions:
REMARK  status: ('A' for Active; 'I' for Inactive)
REMARK    1  A    between atoms: C_2  and  C_5
REMARK    2  A    between atoms: C_7  and  C_8
REMARK    3  A    between atoms: C_8  and  N_9
REMARK    4  A    between atoms: C_12  and  C_13
REMARK    5  A    between atoms: C_28  and  C_29
REMARK                            x       y       z     vdW  Elec       q    Type
REMARK                         _______ _______ _______ _____ _____    ______ ____
ROOT
ATOM      1  N   UNL     1       1.678   8.161  18.786  0.00  0.00    +0.000 NA
ATOM      2  C   UNL     1       1.507   8.508  20.208  0.00  0.00    +0.000 C 
ATOM      3  C   UNL     1       0.136   9.112  20.538  0.00  0.00    +0.000 C 
ATOM      4  C   UNL     1      -0.247  10.292  19.636  0.00  0.00    +0.000 C 
ATOM      5  C   UNL     1      -0.073   9.878  18.177  0.00  0.00    +0.000 C 
ATOM      6  C   UNL     1       1.307   9.285  17.899  0.00  0.00    +0.000 C 
ENDROOT
BRANCH   4   7
ATOM      7  C   UNL     1       0.462  11.572  19.975  0.00  0.00    +0.000 A 
ATOM      8  N   UNL     1       1.580  11.998  19.273  0.00  0.00    +0.000 NA
ATOM      9  N   UNL     1       2.031  13.131  19.811  0.00  0.00    +0.000 NA
ATOM     10  N   UNL     1       1.211  13.427  20.830  0.00  0.00    +0.000 N 
ATOM     11  C   UNL     1       1.353  14.539  21.671  0.00  0.00    +0.000 A 
ATOM     12  N   UNL     1       0.495  14.798  22.635  0.00  0.00    +0.000 NA
ATOM     13  C   UNL     1      -0.538  13.904  22.722  0.00  0.00    +0.000 A 
ATOM     14  N   UNL     1      -1.583  14.036  23.594  0.00  0.00    +0.000 N 
ATOM     15  C   UNL     1      -2.479  13.008  23.388  0.00  0.00    +0.000 A 
ATOM     16  C   UNL     1      -1.984  12.178  22.399  0.00  0.00    +0.000 A 
ATOM     17  C   UNL     1      -0.787  12.763  21.976  0.00  0.00    +0.000 A 
ATOM     18  C   UNL     1       0.208  12.506  20.940  0.00  0.00    +0.000 A 
ATOM     19  H   UNL     1      -1.688  14.798  24.249  0.00  0.00    +0.000 HD
ENDBRANCH   4   7
BRANCH   1  20
ATOM     20  C   UNL     1       3.098   7.824  18.511  0.00  0.00    +0.000 C 
BRANCH  20  23
ATOM     21  C   UNL     1       4.780   4.989  16.543  0.00  0.00    +0.000 A 
ATOM     22  C   UNL     1       4.455   6.271  17.019  0.00  0.00    +0.000 A 
ATOM     23  C   UNL     1       3.359   6.470  17.876  0.00  0.00    +0.000 A 
ATOM     24  C   UNL     1       2.578   5.358  18.244  0.00  0.00    +0.000 A 
ATOM     25  C   UNL     1       2.888   4.066  17.789  0.00  0.00    +0.000 A 
ATOM     26  C   UNL     1       3.991   3.897  16.937  0.00  0.00    +0.000 A 
BRANCH  21  28
ATOM     27  F   UNL     1       7.081   5.455  16.001  0.00  0.00    +0.000 F 
ATOM     28  C   UNL     1       5.973   4.747  15.650  0.00  0.00    +0.000 C 
ATOM     29  F   UNL     1       5.718   5.064  14.350  0.00  0.00    +0.000 F 
ATOM     30  F   UNL     1       6.352   3.438  15.643  0.00  0.00    +0.000 F 
ENDBRANCH  21  28
BRANCH  25  31
ATOM     31  C   UNL     1       2.099   2.854  18.229  0.00  0.00    +0.000 C 
ATOM     32  F   UNL     1       2.394   2.436  19.491  0.00  0.00    +0.000 F 
ATOM     33  F   UNL     1       0.755   3.071  18.208  0.00  0.00    +0.000 F 
ATOM     34  F   UNL     1       2.315   1.780  17.419  0.00  0.00    +0.000 F 
ENDBRANCH  25  31
ENDBRANCH  20  23
ENDBRANCH   1  20
TORSDOF 5
ENDMDL
MODEL 6
REMARK VINA RESULT:      -9.0      5.085      8.767
REMARK  Name = 
REMARK  5 active torsions:
REMARK  status: ('A' for Active; 'I' for Inactive)
REMARK    1  A    between atoms: C_2  and  C_5
REMARK    2  A    between atoms: C_7  and  C_8
REMARK    3  A    between atoms: C_8  and  N_9
REMARK    4  A    between atoms: C_12  and  C_13
REMARK    5  A    between atoms: C_28  and  C_29
REMARK                            x       y       z     vdW  Elec       q    Type
REMARK                         _______ _______ _______ _____ _____    ______ ____
ROOT
ATOM      1  N   UNL     1       1.911   3.079  19.867  0.00  0.00    +0.000 NA
ATOM      2  C   UNL     1       2.252   3.518  18.503  0.00  0.00    +0.000 C 
ATOM      3  C   UNL     1       3.343   2.673  17.834  0.00  0.00    +0.000 C 
ATOM      4  C   UNL     1       4.606   2.513  18.689  0.00  0.00    +0.000 C 
ATOM      5  C   UNL     1       4.204   2.037  20.084  0.00  0.00    +0.000 C 
ATOM      6  C   UNL     1       3.117   2.912  20.707  0.00  0.00    +0.000 C 
ENDROOT
BRANCH   4   7
ATOM      7  C   UNL     1       5.484   3.732  18.712  0.00  0.00    +0.000 A 
ATOM      8  N   UNL     1       5.851   4.349  19.899  0.00  0.00    +0.000 NA
ATOM      9  N   UNL     1       6.586   5.426  19.624  0.00  0.00    +0.000 NA
ATOM     10  N   UNL     1       6.695   5.490  18.290  0.00  0.00    +0.000 N 
ATOM     11  C   UNL     1       7.379   6.494  17.592  0.00  0.00    +0.000 A 
ATOM     12  N   UNL     1       7.482   6.484  16.280  0.00  0.00    +0.000 NA
ATOM     13  C   UNL     1       6.883   5.411  15.678  0.00  0.00    +0.000 A 
ATOM     14  N   UNL     1       6.947   5.163  14.334  0.00  0.00    +0.000 N 
ATOM     15  C   UNL     1       6.295   3.979  14.059  0.00  0.00    +0.000 A 
ATOM     16  C   UNL     1       5.768   3.478  15.236  0.00  0.00    +0.000 A 
ATOM     17  C   UNL     1       6.164   4.367  16.239  0.00  0.00    +0.000 A 
ATOM     18  C   UNL     1       6.056   4.439  17.692  0.00  0.00    +0.000 A 
ATOM     19  H   UNL     1       7.436   5.744  13.669  0.00  0.00    +0.000 HD
ENDBRANCH   4   7
BRANCH   1  20
ATOM     20  C   UNL     1       1.043   4.087  20.526  0.00  0.00    +0.000 C 
BRANCH  20  23
ATOM     21  C   UNL     1       2.430   7.307  18.959  0.00  0.00    +0.000 A 
ATOM     22  C   UNL     1       2.191   5.946  19.219  0.00  0.00    +0.000 A 
ATOM     23  C   UNL     1       1.431   5.543  20.330  0.00  0.00    +0.000 A 
ATOM     24  C   UNL     1       0.919   6.530  21.193  0.00  0.00    +0.000 A 
ATOM     25  C   UNL     1       1.137   7.896  20.951  0.00  0.00    +0.000 A 
ATOM     26  C   UNL     1       1.897   8.269  19.831  0.00  0.00    +0.000 A 
BRANCH  21  28
ATOM     27  F   UNL     1       4.430   8.297  18.052  0.00  0.00    +0.000 F 
ATOM     28  C   UNL     1       3.214   7.764  17.753  0.00  0.00    +0.000 C 
ATOM     29  F   UNL     1       2.551   8.714  17.036  0.00  0.00    +0.000 F 
ATOM     30  F   UNL     1       3.457   6.745  16.882  0.00  0.00    +0.000 F 
ENDBRANCH  21  28
BRANCH  25  31
ATOM     31  C   UNL     1       0.538   8.969  21.831  0.00  0.00    +0.000 C 
ATOM     32  F   UNL     1       0.323  10.149  21.188  0.00  0.00    +0.000 F 
ATOM     33  F   UNL     1      -0.664   8.602  22.355  0.00  0.00    +0.000 F 
ATOM     34  F   UNL     1       1.334   9.262  22.896  0.00  0.00    +0.000 F 
ENDBRANCH  25  31
ENDBRANCH  20  23
ENDBRANCH   1  20
TORSDOF 5
ENDMDL
MODEL 7
REMARK VINA RESULT:      -9.0      2.598      3.506
REMARK  Name = 
REMARK  5 active torsions:
REMARK  status: ('A' for Active; 'I' for Inactive)
REMARK    1  A    between atoms: C_2  and  C_5
REMARK    2  A    between atoms: C_7  and  C_8
REMARK    3  A    between atoms: C_8  and  N_9
REMARK    4  A    between atoms: C_12  and  C_13
REMARK    5  A    between atoms: C_28  and  C_29
REMARK                            x       y       z     vdW  Elec       q    Type
REMARK                         _______ _______ _______ _____ _____    ______ ____
ROOT
ATOM      1  N   UNL     1       1.772   8.443  20.130  0.00  0.00    +0.000 NA
ATOM      2  C   UNL     1       1.679   8.598  18.668  0.00  0.00    +0.000 C 
ATOM      3  C   UNL     1       1.651  10.059  18.200  0.00  0.00    +0.000 C 
ATOM      4  C   UNL     1       0.591  10.910  18.910  0.00  0.00    +0.000 C 
ATOM      5  C   UNL     1       0.743  10.733  20.420  0.00  0.00    +0.000 C 
ATOM      6  C   UNL     1       0.763   9.262  20.835  0.00  0.00    +0.000 C 
ENDROOT
BRANCH   4   7
ATOM      7  C   UNL     1      -0.810  10.668  18.425  0.00  0.00    +0.000 A 
ATOM      8  N   UNL     1      -1.102   9.680  17.497  0.00  0.00    +0.000 NA
ATOM      9  N   UNL     1      -2.404   9.718  17.212  0.00  0.00    +0.000 NA
ATOM     10  N   UNL     1      -2.932  10.704  17.950  0.00  0.00    +0.000 N 
ATOM     11  C   UNL     1      -4.282  11.083  17.928  0.00  0.00    +0.000 A 
ATOM     12  N   UNL     1      -4.750  12.037  18.703  0.00  0.00    +0.000 NA
ATOM     13  C   UNL     1      -3.815  12.600  19.528  0.00  0.00    +0.000 A 
ATOM     14  N   UNL     1      -4.108  13.545  20.472  0.00  0.00    +0.000 N 
ATOM     15  C   UNL     1      -2.962  13.859  21.173  0.00  0.00    +0.000 A 
ATOM     16  C   UNL     1      -1.907  13.136  20.645  0.00  0.00    +0.000 A 
ATOM     17  C   UNL     1      -2.458  12.338  19.639  0.00  0.00    +0.000 A 
ATOM     18  C   UNL     1      -1.984  11.291  18.740  0.00  0.00    +0.000 A 
ATOM     19  H   UNL     1      -5.033  13.913  20.644  0.00  0.00    +0.000 HD
ENDBRANCH   4   7
BRANCH   1  20
ATOM     20  C   UNL     1       1.541   7.026  20.509  0.00  0.00    +0.000 C 
BRANCH  20  23
ATOM     21  C   UNL     1       4.466   5.129  18.901  0.00  0.00    +0.000 A 
ATOM     22  C   UNL     1       3.705   6.152  19.489  0.00  0.00    +0.000 A 
ATOM     23  C   UNL     1       2.332   5.983  19.737  0.00  0.00    +0.000 A 
ATOM     24  C   UNL     1       1.724   4.767  19.373  0.00  0.00    +0.000 A 
ATOM     25  C   UNL     1       2.465   3.726  18.792  0.00  0.00    +0.000 A 
ATOM     26  C   UNL     1       3.836   3.922  18.559  0.00  0.00    +0.000 A 
BRANCH  21  28
ATOM     27  F   UNL     1       6.688   5.401  19.793  0.00  0.00    +0.000 F 
ATOM     28  C   UNL     1       5.949   5.275  18.657  0.00  0.00    +0.000 C 
ATOM     29  F   UNL     1       6.242   6.365  17.894  0.00  0.00    +0.000 F 
ATOM     30  F   UNL     1       6.468   4.206  17.991  0.00  0.00    +0.000 F 
ENDBRANCH  21  28
BRANCH  25  31
ATOM     31  C   UNL     1       1.841   2.391  18.457  0.00  0.00    +0.000 C 
ATOM     32  F   UNL     1       0.482   2.424  18.381  0.00  0.00    +0.000 F 
ATOM     33  F   UNL     1       2.272   1.898  17.264  0.00  0.00    +0.000 F 
ATOM     34  F   UNL     1       2.140   1.438  19.383  0.00  0.00    +0.000 F 
ENDBRANCH  25  31
ENDBRANCH  20  23
ENDBRANCH   1  20
TORSDOF 5
ENDMDL
MODEL 8
REMARK VINA RESULT:      -8.8      2.442      3.196
REMARK  Name = 
REMARK  5 active torsions:
REMARK  status: ('A' for Active; 'I' for Inactive)
REMARK    1  A    between atoms: C_2  and  C_5
REMARK    2  A    between atoms: C_7  and  C_8
REMARK    3  A    between atoms: C_8  and  N_9
REMARK    4  A    between atoms: C_12  and  C_13
REMARK    5  A    between atoms: C_28  and  C_29
REMARK                            x       y       z     vdW  Elec       q    Type
REMARK                         _______ _______ _______ _____ _____    ______ ____
ROOT
ATOM      1  N   UNL     1       1.893   8.559  19.916  0.00  0.00    +0.000 NA
ATOM      2  C   UNL     1       1.738   8.826  18.475  0.00  0.00    +0.000 C 
ATOM      3  C   UNL     1       1.625  10.317  18.131  0.00  0.00    +0.000 C 
ATOM      4  C   UNL     1       0.555  11.056  18.944  0.00  0.00    +0.000 C 
ATOM      5  C   UNL     1       0.771  10.764  20.428  0.00  0.00    +0.000 C 
ATOM      6  C   UNL     1       0.874   9.268  20.719  0.00  0.00    +0.000 C 
ENDROOT
BRANCH   4   7
ATOM      7  C   UNL     1      -0.850  10.786  18.488  0.00  0.00    +0.000 A 
ATOM      8  N   UNL     1      -1.136   9.833  17.521  0.00  0.00    +0.000 NA
ATOM      9  N   UNL     1      -2.446   9.836  17.276  0.00  0.00    +0.000 NA
ATOM     10  N   UNL     1      -2.987  10.766  18.077  0.00  0.00    +0.000 N 
ATOM     11  C   UNL     1      -4.349  11.096  18.111  0.00  0.00    +0.000 A 
ATOM     12  N   UNL     1      -4.827  11.994  18.946  0.00  0.00    +0.000 NA
ATOM     13  C   UNL     1      -3.887  12.550  19.771  0.00  0.00    +0.000 A 
ATOM     14  N   UNL     1      -4.185  13.438  20.768  0.00  0.00    +0.000 N 
ATOM     15  C   UNL     1      -3.030  13.759  21.450  0.00  0.00    +0.000 A 
ATOM     16  C   UNL     1      -1.967  13.102  20.857  0.00  0.00    +0.000 A 
ATOM     17  C   UNL     1      -2.520  12.334  19.830  0.00  0.00    +0.000 A 
ATOM     18  C   UNL     1      -2.036  11.349  18.866  0.00  0.00    +0.000 A 
ATOM     19  H   UNL     1      -5.117  13.762  20.984  0.00  0.00    +0.000 HD
ENDBRANCH   4   7
BRANCH   1  20
ATOM     20  C   UNL     1       1.741   7.106  20.184  0.00  0.00    +0.000 C 
BRANCH  20  23
ATOM     21  C   UNL     1       4.007   5.669  17.438  0.00  0.00    +0.000 A 
ATOM     22  C   UNL     1       3.368   6.578  18.298  0.00  0.00    +0.000 A 
ATOM     23  C   UNL     1       2.328   6.163  19.147  0.00  0.00    +0.000 A 
ATOM     24  C   UNL     1       1.925   4.815  19.114  0.00  0.00    +0.000 A 
ATOM     25  C   UNL     1       2.553   3.886  18.270  0.00  0.00    +0.000 A 
ATOM     26  C   UNL     1       3.591   4.328  17.435  0.00  0.00    +0.000 A 
BRANCH  21  28
ATOM     27  F   UNL     1       5.737   5.052  15.878  0.00  0.00    +0.000 F 
ATOM     28  C   UNL     1       5.150   6.084  16.542  0.00  0.00    +0.000 C 
ATOM     29  F   UNL     1       6.146   6.706  17.232  0.00  0.00    +0.000 F 
ATOM     30  F   UNL     1       4.755   6.969  15.584  0.00  0.00    +0.000 F 
ENDBRANCH  21  28
BRANCH  25  31
ATOM     31  C   UNL     1       2.176   2.422  18.272  0.00  0.00    +0.000 C 
ATOM     32  F   UNL     1       2.458   1.782  17.104  0.00  0.00    +0.000 F 
ATOM     33  F   UNL     1       2.813   1.721  19.250  0.00  0.00    +0.000 F 
ATOM     34  F   UNL     1       0.844   2.236  18.488  0.00  0.00    +0.000 F 
ENDBRANCH  25  31
ENDBRANCH  20  23
ENDBRANCH   1  20
TORSDOF 5
ENDMDL
MODEL 9
REMARK VINA RESULT:      -8.8      3.018      5.165
REMARK  Name = 
REMARK  5 active torsions:
REMARK  status: ('A' for Active; 'I' for Inactive)
REMARK    1  A    between atoms: C_2  and  C_5
REMARK    2  A    between atoms: C_7  and  C_8
REMARK    3  A    between atoms: C_8  and  N_9
REMARK    4  A    between atoms: C_12  and  C_13
REMARK    5  A    between atoms: C_28  and  C_29
REMARK                            x       y       z     vdW  Elec       q    Type
REMARK                         _______ _______ _______ _____ _____    ______ ____
ROOT
ATOM      1  N   UNL     1       1.246   9.502  20.104  0.00  0.00    +0.000 NA
ATOM      2  C   UNL     1       0.299   9.577  18.977  0.00  0.00    +0.000 C 
ATOM      3  C   UNL     1       0.265  10.947  18.287  0.00  0.00    +0.000 C 
ATOM      4  C   UNL     1       0.058  12.117  19.257  0.00  0.00    +0.000 C 
ATOM      5  C   UNL     1       1.074  12.006  20.392  0.00  0.00    +0.000 C 
ATOM      6  C   UNL     1       1.067  10.626  21.048  0.00  0.00    +0.000 C 
ENDROOT
BRANCH   4   7
ATOM      7  C   UNL     1      -1.357  12.263  19.742  0.00  0.00    +0.000 A 
ATOM      8  N   UNL     1      -1.650  12.729  21.015  0.00  0.00    +0.000 NA
ATOM      9  N   UNL     1      -2.970  12.712  21.195  0.00  0.00    +0.000 NA
ATOM     10  N   UNL     1      -3.509  12.252  20.057  0.00  0.00    +0.000 N 
ATOM     11  C   UNL     1      -4.881  12.064  19.842  0.00  0.00    +0.000 A 
ATOM     12  N   UNL     1      -5.355  11.642  18.689  0.00  0.00    +0.000 NA
ATOM     13  C   UNL     1      -4.398  11.427  17.734  0.00  0.00    +0.000 A 
ATOM     14  N   UNL     1      -4.681  11.073  16.444  0.00  0.00    +0.000 N 
ATOM     15  C   UNL     1      -3.507  10.994  15.726  0.00  0.00    +0.000 A 
ATOM     16  C   UNL     1      -2.448  11.261  16.575  0.00  0.00    +0.000 A 
ATOM     17  C   UNL     1      -3.020  11.554  17.816  0.00  0.00    +0.000 A 
ATOM     18  C   UNL     1      -2.545  11.997  19.123  0.00  0.00    +0.000 A 
ATOM     19  H   UNL     1      -5.614  10.936  16.081  0.00  0.00    +0.000 HD
ENDBRANCH   4   7
BRANCH   1  20
ATOM     20  C   UNL     1       1.036   8.243  20.863  0.00  0.00    +0.000 C 
BRANCH  20  23
ATOM     21  C   UNL     1       1.826   4.570  20.069  0.00  0.00    +0.000 A 
ATOM     22  C   UNL     1       1.289   5.716  20.681  0.00  0.00    +0.000 A 
ATOM     23  C   UNL     1       1.721   7.002  20.316  0.00  0.00    +0.000 A 
ATOM     24  C   UNL     1       2.717   7.127  19.329  0.00  0.00    +0.000 A 
ATOM     25  C   UNL     1       3.263   5.997  18.697  0.00  0.00    +0.000 A 
ATOM     26  C   UNL     1       2.809   4.725  19.079  0.00  0.00    +0.000 A 
BRANCH  21  28
ATOM     27  F   UNL     1       0.249   2.780  19.729  0.00  0.00    +0.000 F 
ATOM     28  C   UNL     1       1.351   3.181  20.420  0.00  0.00    +0.000 C 
ATOM     29  F   UNL     1       1.034   3.062  21.740  0.00  0.00    +0.000 F 
ATOM     30  F   UNL     1       2.305   2.237  20.182  0.00  0.00    +0.000 F 
ENDBRANCH  21  28
BRANCH  25  31
ATOM     31  C   UNL     1       4.285   6.118  17.590  0.00  0.00    +0.000 C 
ATOM     32  F   UNL     1       5.569   6.188  18.034  0.00  0.00    +0.000 F 
ATOM     33  F   UNL     1       4.241   5.067  16.725  0.00  0.00    +0.000 F 
ATOM     34  F   UNL     1       4.090   7.232  16.831  0.00  0.00    +0.000 F 
ENDBRANCH  25  31
ENDBRANCH  20  23
ENDBRANCH   1  20
TORSDOF 5
ENDMDL
