MODEL 1
REMARK VINA RESULT:      -6.9      0.000      0.000
REMARK  Name = 
REMARK  8 active torsions:
REMARK  status: ('A' for Active; 'I' for Inactive)
REMARK    1  A    between atoms: C_1  and  C_2
REMARK    2  A    between atoms: C_2  and  C_3
REMARK    3  A    between atoms: C_2  and  O_7
REMARK    4  A    between atoms: C_3  and  N_4
REMARK    5  A    between atoms: N_4  and  C_5
REMARK    6  A    between atoms: N_4  and  C_6
REMARK    7  A    between atoms: O_7  and  C_8
REMARK    8  A    between atoms: C_25  and  C_26
REMARK                            x       y       z     vdW  Elec       q    Type
REMARK                         _______ _______ _______ _____ _____    ______ ____
ROOT
ATOM      1  C   UNL     1       4.438   4.872  19.014  0.00  0.00    +0.000 A 
ATOM      2  N   UNL     1       3.949   5.602  20.053  0.00  0.00    +0.000 NA
ATOM      3  C   UNL     1       2.695   6.083  19.899  0.00  0.00    +0.000 A 
ATOM      4  N   UNL     1       2.190   6.921  20.905  0.00  0.00    +0.000 N 
ATOM      5  C   UNL     1       1.461   8.101  20.666  0.00  0.00    +0.000 A 
ATOM      6  C   UNL     1       0.758   8.677  21.717  0.00  0.00    +0.000 A 
ATOM      7  C   UNL     1       0.026   9.857  21.512  0.00  0.00    +0.000 A 
ATOM      8  C   UNL     1      -0.693  10.452  22.561  0.00  0.00    +0.000 A 
ATOM      9  C   UNL     1      -1.387  11.647  22.368  0.00  0.00    +0.000 A 
ATOM     10  C   UNL     1      -1.392  12.250  21.113  0.00  0.00    +0.000 A 
ATOM     11  C   UNL     1      -0.708  11.657  20.050  0.00  0.00    +0.000 A 
ATOM     12 CL   UNL     1      -0.789  12.449  18.512  0.00  0.00    +0.000 Cl
ATOM     13  C   UNL     1       0.020  10.457  20.234  0.00  0.00    +0.000 A 
ATOM     14  C   UNL     1       0.753   9.795  19.245  0.00  0.00    +0.000 A 
ATOM     15  N   UNL     1       1.452   8.648  19.434  0.00  0.00    +0.000 NA
ATOM     16  C   UNL     1       1.930   5.733  18.780  0.00  0.00    +0.000 A 
ATOM     17  N   UNL     1       2.369   4.920  17.787  0.00  0.00    +0.000 NA
ATOM     18  C   UNL     1       3.655   4.508  17.922  0.00  0.00    +0.000 A 
ATOM     19  H   UNL     1       2.920   7.070  21.594  0.00  0.00    +0.000 HD
ENDROOT
BRANCH  18  20
ATOM     20  C   UNL     1       4.161   3.661  16.890  0.00  0.00    +0.000 C 
ATOM     21  N   UNL     1       4.589   2.983  16.049  0.00  0.00    +0.000 NA
ENDBRANCH  18  20
BRANCH   1  22
ATOM     22  O   UNL     1       5.744   4.435  19.064  0.00  0.00    +0.000 OA
BRANCH  22  24
ATOM     23  C   UNL     1       7.730   5.495  19.771  0.00  0.00    +0.000 C 
ATOM     24  C   UNL     1       6.712   5.401  18.627  0.00  0.00    +0.000 C 
BRANCH  24  25
ATOM     25  C   UNL     1       7.450   4.927  17.342  0.00  0.00    +0.000 C 
BRANCH  25  26
ATOM     26  N   UNL     1       7.315   5.747  16.116  0.00  0.00    +0.000 NA
ATOM     27  C   UNL     1       7.110   4.938  14.912  0.00  0.00    +0.000 C 
ATOM     28  C   UNL     1       6.170   6.656  16.267  0.00  0.00    +0.000 C 
ENDBRANCH  25  26
ENDBRANCH  24  25
ENDBRANCH  22  24
ENDBRANCH   1  22
TORSDOF 5
ENDMDL
MODEL 2
REMARK VINA RESULT:      -6.7      2.071      3.449
REMARK  Name = 
REMARK  8 active torsions:
REMARK  status: ('A' for Active; 'I' for Inactive)
REMARK    1  A    between atoms: C_1  and  C_2
REMARK    2  A    between atoms: C_2  and  C_3
REMARK    3  A    between atoms: C_2  and  O_7
REMARK    4  A    between atoms: C_3  and  N_4
REMARK    5  A    between atoms: N_4  and  C_5
REMARK    6  A    between atoms: N_4  and  C_6
REMARK    7  A    between atoms: O_7  and  C_8
REMARK    8  A    between atoms: C_25  and  C_26
REMARK                            x       y       z     vdW  Elec       q    Type
REMARK                         _______ _______ _______ _____ _____    ______ ____
ROOT
ATOM      1  C   UNL     1       2.178   5.159  18.719  0.00  0.00    +0.000 A 
ATOM      2  N   UNL     1       2.446   6.395  18.215  0.00  0.00    +0.000 NA
ATOM      3  C   UNL     1       2.224   7.435  19.051  0.00  0.00    +0.000 A 
ATOM      4  N   UNL     1       2.395   8.730  18.540  0.00  0.00    +0.000 N 
ATOM      5  C   UNL     1       1.522   9.805  18.787  0.00  0.00    +0.000 A 
ATOM      6  C   UNL     1       1.947  11.094  18.490  0.00  0.00    +0.000 A 
ATOM      7  C   UNL     1       1.096  12.187  18.719  0.00  0.00    +0.000 A 
ATOM      8  C   UNL     1       1.509  13.497  18.427  0.00  0.00    +0.000 A 
ATOM      9  C   UNL     1       0.649  14.579  18.618  0.00  0.00    +0.000 A 
ATOM     10  C   UNL     1      -0.628  14.368  19.128  0.00  0.00    +0.000 A 
ATOM     11  C   UNL     1      -1.046  13.075  19.453  0.00  0.00    +0.000 A 
ATOM     12 CL   UNL     1      -2.637  12.896  20.114  0.00  0.00    +0.000 Cl
ATOM     13  C   UNL     1      -0.195  11.964  19.245  0.00  0.00    +0.000 A 
ATOM     14  C   UNL     1      -0.521  10.631  19.516  0.00  0.00    +0.000 A 
ATOM     15  N   UNL     1       0.300   9.573  19.307  0.00  0.00    +0.000 NA
ATOM     16  C   UNL     1       1.856   7.212  20.384  0.00  0.00    +0.000 A 
ATOM     17  N   UNL     1       1.687   5.980  20.926  0.00  0.00    +0.000 NA
ATOM     18  C   UNL     1       1.841   4.953  20.053  0.00  0.00    +0.000 A 
ATOM     19  H   UNL     1       2.623   8.657  17.553  0.00  0.00    +0.000 HD
ENDROOT
BRANCH  18  20
ATOM     20  C   UNL     1       1.658   3.640  20.582  0.00  0.00    +0.000 C 
ATOM     21  N   UNL     1       1.493   2.568  21.001  0.00  0.00    +0.000 NA
ENDBRANCH  18  20
BRANCH   1  22
ATOM     22  O   UNL     1       2.289   4.065  17.889  0.00  0.00    +0.000 OA
BRANCH  22  24
ATOM     23  C   UNL     1       3.298   1.935  17.767  0.00  0.00    +0.000 C 
ATOM     24  C   UNL     1       3.580   3.437  17.903  0.00  0.00    +0.000 C 
BRANCH  24  25
ATOM     25  C   UNL     1       4.448   3.891  16.694  0.00  0.00    +0.000 C 
BRANCH  25  26
ATOM     26  N   UNL     1       5.552   4.847  16.946  0.00  0.00    +0.000 NA
ATOM     27  C   UNL     1       5.941   4.906  18.357  0.00  0.00    +0.000 C 
ATOM     28  C   UNL     1       6.725   4.449  16.155  0.00  0.00    +0.000 C 
ENDBRANCH  25  26
ENDBRANCH  24  25
ENDBRANCH  22  24
ENDBRANCH   1  22
TORSDOF 5
ENDMDL
MODEL 3
REMARK VINA RESULT:      -6.7      4.326      8.769
REMARK  Name = 
REMARK  8 active torsions:
REMARK  status: ('A' for Active; 'I' for Inactive)
REMARK    1  A    between atoms: C_1  and  C_2
REMARK    2  A    between atoms: C_2  and  C_3
REMARK    3  A    between atoms: C_2  and  O_7
REMARK    4  A    between atoms: C_3  and  N_4
REMARK    5  A    between atoms: N_4  and  C_5
REMARK    6  A    between atoms: N_4  and  C_6
REMARK    7  A    between atoms: O_7  and  C_8
REMARK    8  A    between atoms: C_25  and  C_26
REMARK                            x       y       z     vdW  Elec       q    Type
REMARK                         _______ _______ _______ _____ _____    ______ ____
ROOT
ATOM      1  C   UNL     1       0.521  12.455  19.565  0.00  0.00    +0.000 A 
ATOM      2  N   UNL     1       1.446  11.691  18.922  0.00  0.00    +0.000 NA
ATOM      3  C   UNL     1       1.095  10.406  18.691  0.00  0.00    +0.000 A 
ATOM      4  N   UNL     1       2.056   9.560  18.118  0.00  0.00    +0.000 N 
ATOM      5  C   UNL     1       2.300   8.237  18.532  0.00  0.00    +0.000 A 
ATOM      6  C   UNL     1       3.047   7.406  17.706  0.00  0.00    +0.000 A 
ATOM      7  C   UNL     1       3.313   6.083  18.094  0.00  0.00    +0.000 A 
ATOM      8  C   UNL     1       4.063   5.227  17.271  0.00  0.00    +0.000 A 
ATOM      9  C   UNL     1       4.361   3.925  17.675  0.00  0.00    +0.000 A 
ATOM     10  C   UNL     1       3.891   3.453  18.896  0.00  0.00    +0.000 A 
ATOM     11  C   UNL     1       3.117   4.280  19.714  0.00  0.00    +0.000 A 
ATOM     12 CL   UNL     1       2.539   3.610  21.203  0.00  0.00    +0.000 Cl
ATOM     13  C   UNL     1       2.824   5.610  19.330  0.00  0.00    +0.000 A 
ATOM     14  C   UNL     1       2.078   6.524  20.081  0.00  0.00    +0.000 A 
ATOM     15  N   UNL     1       1.808   7.799  19.707  0.00  0.00    +0.000 NA
ATOM     16  C   UNL     1      -0.194   9.953  18.999  0.00  0.00    +0.000 A 
ATOM     17  N   UNL     1      -1.160  10.734  19.544  0.00  0.00    +0.000 NA
ATOM     18  C   UNL     1      -0.765  11.999  19.837  0.00  0.00    +0.000 A 
ATOM     19  H   UNL     1       2.921  10.082  18.016  0.00  0.00    +0.000 HD
ENDROOT
BRANCH  18  20
ATOM     20  C   UNL     1      -1.750  12.849  20.426  0.00  0.00    +0.000 C 
ATOM     21  N   UNL     1      -2.540  13.557  20.899  0.00  0.00    +0.000 NA
ENDBRANCH  18  20
BRANCH   1  22
ATOM     22  O   UNL     1       0.852  13.744  19.918  0.00  0.00    +0.000 OA
BRANCH  22  24
ATOM     23  C   UNL     1       0.076  15.747  18.941  0.00  0.00    +0.000 C 
ATOM     24  C   UNL     1       1.107  14.619  18.808  0.00  0.00    +0.000 C 
BRANCH  24  25
ATOM     25  C   UNL     1       2.533  15.236  18.883  0.00  0.00    +0.000 C 
BRANCH  25  26
ATOM     26  N   UNL     1       3.291  15.398  17.621  0.00  0.00    +0.000 NA
ATOM     27  C   UNL     1       3.187  16.750  17.065  0.00  0.00    +0.000 C 
ATOM     28  C   UNL     1       4.710  15.105  17.870  0.00  0.00    +0.000 C 
ENDBRANCH  25  26
ENDBRANCH  24  25
ENDBRANCH  22  24
ENDBRANCH   1  22
TORSDOF 5
ENDMDL
MODEL 4
REMARK VINA RESULT:      -6.5      3.752      9.070
REMARK  Name = 
REMARK  8 active torsions:
REMARK  status: ('A' for Active; 'I' for Inactive)
REMARK    1  A    between atoms: C_1  and  C_2
REMARK    2  A    between atoms: C_2  and  C_3
REMARK    3  A    between atoms: C_2  and  O_7
REMARK    4  A    between atoms: C_3  and  N_4
REMARK    5  A    between atoms: N_4  and  C_5
REMARK    6  A    between atoms: N_4  and  C_6
REMARK    7  A    between atoms: O_7  and  C_8
REMARK    8  A    between atoms: C_25  and  C_26
REMARK                            x       y       z     vdW  Elec       q    Type
REMARK                         _______ _______ _______ _____ _____    ______ ____
ROOT
ATOM      1  C   UNL     1      -0.106  12.074  19.335  0.00  0.00    +0.000 A 
ATOM      2  N   UNL     1       1.071  11.578  18.864  0.00  0.00    +0.000 NA
ATOM      3  C   UNL     1       1.013  10.350  18.302  0.00  0.00    +0.000 A 
ATOM      4  N   UNL     1       2.219   9.762  17.892  0.00  0.00    +0.000 N 
ATOM      5  C   UNL     1       2.559   8.413  18.104  0.00  0.00    +0.000 A 
ATOM      6  C   UNL     1       3.627   7.875  17.396  0.00  0.00    +0.000 A 
ATOM      7  C   UNL     1       3.995   6.534  17.589  0.00  0.00    +0.000 A 
ATOM      8  C   UNL     1       5.069   5.971  16.881  0.00  0.00    +0.000 A 
ATOM      9  C   UNL     1       5.460   4.650  17.103  0.00  0.00    +0.000 A 
ATOM     10  C   UNL     1       4.765   3.865  18.019  0.00  0.00    +0.000 A 
ATOM     11  C   UNL     1       3.674   4.399  18.710  0.00  0.00    +0.000 A 
ATOM     12 CL   UNL     1       2.839   3.351  19.807  0.00  0.00    +0.000 Cl
ATOM     13  C   UNL     1       3.278   5.743  18.514  0.00  0.00    +0.000 A 
ATOM     14  C   UNL     1       2.218   6.379  19.167  0.00  0.00    +0.000 A 
ATOM     15  N   UNL     1       1.850   7.670  18.977  0.00  0.00    +0.000 NA
ATOM     16  C   UNL     1      -0.218   9.706  18.123  0.00  0.00    +0.000 A 
ATOM     17  N   UNL     1      -1.410  10.236  18.494  0.00  0.00    +0.000 NA
ATOM     18  C   UNL     1      -1.324  11.435  19.123  0.00  0.00    +0.000 A 
ATOM     19  H   UNL     1       2.980  10.381  18.151  0.00  0.00    +0.000 HD
ENDROOT
BRANCH  18  20
ATOM     20  C   UNL     1      -2.557  12.021  19.541  0.00  0.00    +0.000 C 
ATOM     21  N   UNL     1      -3.557  12.514  19.870  0.00  0.00    +0.000 NA
ENDBRANCH  18  20
BRANCH   1  22
ATOM     22  O   UNL     1      -0.099  13.277  20.006  0.00  0.00    +0.000 OA
BRANCH  22  24
ATOM     23  C   UNL     1       1.420  14.316  21.483  0.00  0.00    +0.000 C 
ATOM     24  C   UNL     1       0.373  13.201  21.360  0.00  0.00    +0.000 C 
BRANCH  24  25
ATOM     25  C   UNL     1      -0.770  13.477  22.379  0.00  0.00    +0.000 C 
BRANCH  25  26
ATOM     26  N   UNL     1      -1.218  12.361  23.245  0.00  0.00    +0.000 NA
ATOM     27  C   UNL     1      -2.676  12.252  23.321  0.00  0.00    +0.000 C 
ATOM     28  C   UNL     1      -0.681  11.097  22.720  0.00  0.00    +0.000 C 
ENDBRANCH  25  26
ENDBRANCH  24  25
ENDBRANCH  22  24
ENDBRANCH   1  22
TORSDOF 5
ENDMDL
MODEL 5
REMARK VINA RESULT:      -6.5      4.246      8.570
REMARK  Name = 
REMARK  8 active torsions:
REMARK  status: ('A' for Active; 'I' for Inactive)
REMARK    1  A    between atoms: C_1  and  C_2
REMARK    2  A    between atoms: C_2  and  C_3
REMARK    3  A    between atoms: C_2  and  O_7
REMARK    4  A    between atoms: C_3  and  N_4
REMARK    5  A    between atoms: N_4  and  C_5
REMARK    6  A    between atoms: N_4  and  C_6
REMARK    7  A    between atoms: O_7  and  C_8
REMARK    8  A    between atoms: C_25  and  C_26
REMARK                            x       y       z     vdW  Elec       q    Type
REMARK                         _______ _______ _______ _____ _____    ______ ____
ROOT
ATOM      1  C   UNL     1       1.157  12.571  19.170  0.00  0.00    +0.000 A 
ATOM      2  N   UNL     1       1.927  11.631  18.556  0.00  0.00    +0.000 NA
ATOM      3  C   UNL     1       1.405  10.385  18.496  0.00  0.00    +0.000 A 
ATOM      4  N   UNL     1       2.206   9.367  17.959  0.00  0.00    +0.000 N 
ATOM      5  C   UNL     1       2.320   8.074  18.501  0.00  0.00    +0.000 A 
ATOM      6  C   UNL     1       2.891   7.072  17.726  0.00  0.00    +0.000 A 
ATOM      7  C   UNL     1       3.025   5.773  18.242  0.00  0.00    +0.000 A 
ATOM      8  C   UNL     1       3.597   4.747  17.473  0.00  0.00    +0.000 A 
ATOM      9  C   UNL     1       3.766   3.466  18.000  0.00  0.00    +0.000 A 
ATOM     10  C   UNL     1       3.342   3.187  19.296  0.00  0.00    +0.000 A 
ATOM     11  C   UNL     1       2.743   4.188  20.065  0.00  0.00    +0.000 A 
ATOM     12 CL   UNL     1       2.211   3.756  21.655  0.00  0.00    +0.000 Cl
ATOM     13  C   UNL     1       2.584   5.498  19.554  0.00  0.00    +0.000 A 
ATOM     14  C   UNL     1       2.019   6.574  20.246  0.00  0.00    +0.000 A 
ATOM     15  N   UNL     1       1.876   7.828  19.750  0.00  0.00    +0.000 NA
ATOM     16  C   UNL     1       0.099  10.138  18.939  0.00  0.00    +0.000 A 
ATOM     17  N   UNL     1      -0.717  11.089  19.457  0.00  0.00    +0.000 NA
ATOM     18  C   UNL     1      -0.149  12.316  19.578  0.00  0.00    +0.000 A 
ATOM     19  H   UNL     1       3.117   9.759  17.740  0.00  0.00    +0.000 HD
ENDROOT
BRANCH  18  20
ATOM     20  C   UNL     1      -0.972  13.343  20.132  0.00  0.00    +0.000 C 
ATOM     21  N   UNL     1      -1.644  14.187  20.564  0.00  0.00    +0.000 NA
ENDBRANCH  18  20
BRANCH   1  22
ATOM     22  O   UNL     1       1.670  13.836  19.352  0.00  0.00    +0.000 OA
BRANCH  22  24
ATOM     23  C   UNL     1       3.082  14.862  17.763  0.00  0.00    +0.000 C 
ATOM     24  C   UNL     1       3.058  13.970  19.011  0.00  0.00    +0.000 C 
BRANCH  24  25
ATOM     25  C   UNL     1       3.858  14.676  20.143  0.00  0.00    +0.000 C 
BRANCH  25  26
ATOM     26  N   UNL     1       3.626  14.241  21.540  0.00  0.00    +0.000 NA
ATOM     27  C   UNL     1       4.865  13.900  22.242  0.00  0.00    +0.000 C 
ATOM     28  C   UNL     1       2.954  15.321  22.277  0.00  0.00    +0.000 C 
ENDBRANCH  25  26
ENDBRANCH  24  25
ENDBRANCH  22  24
ENDBRANCH   1  22
TORSDOF 5
ENDMDL
MODEL 6
REMARK VINA RESULT:      -6.5      4.218      8.660
REMARK  Name = 
REMARK  8 active torsions:
REMARK  status: ('A' for Active; 'I' for Inactive)
REMARK    1  A    between atoms: C_1  and  C_2
REMARK    2  A    between atoms: C_2  and  C_3
REMARK    3  A    between atoms: C_2  and  O_7
REMARK    4  A    between atoms: C_3  and  N_4
REMARK    5  A    between atoms: N_4  and  C_5
REMARK    6  A    between atoms: N_4  and  C_6
REMARK    7  A    between atoms: O_7  and  C_8
REMARK    8  A    between atoms: C_25  and  C_26
REMARK                            x       y       z     vdW  Elec       q    Type
REMARK                         _______ _______ _______ _____ _____    ______ ____
ROOT
ATOM      1  C   UNL     1       0.993  11.767  20.971  0.00  0.00    +0.000 A 
ATOM      2  N   UNL     1       1.593  10.964  20.051  0.00  0.00    +0.000 NA
ATOM      3  C   UNL     1       1.053   9.734  19.897  0.00  0.00    +0.000 A 
ATOM      4  N   UNL     1       1.700   8.841  19.029  0.00  0.00    +0.000 N 
ATOM      5  C   UNL     1       1.913   7.478  19.305  0.00  0.00    +0.000 A 
ATOM      6  C   UNL     1       2.283   6.635  18.263  0.00  0.00    +0.000 A 
ATOM      7  C   UNL     1       2.509   5.271  18.507  0.00  0.00    +0.000 A 
ATOM      8  C   UNL     1       2.880   4.404  17.467  0.00  0.00    +0.000 A 
ATOM      9  C   UNL     1       3.144   3.057  17.717  0.00  0.00    +0.000 A 
ATOM     10  C   UNL     1       3.015   2.553  19.008  0.00  0.00    +0.000 A 
ATOM     11  C   UNL     1       2.617   3.394  20.050  0.00  0.00    +0.000 A 
ATOM     12 CL   UNL     1       2.446   2.687  21.621  0.00  0.00    +0.000 Cl
ATOM     13  C   UNL     1       2.367   4.768  19.818  0.00  0.00    +0.000 A 
ATOM     14  C   UNL     1       1.985   5.696  20.791  0.00  0.00    +0.000 A 
ATOM     15  N   UNL     1       1.754   7.013  20.560  0.00  0.00    +0.000 NA
ATOM     16  C   UNL     1      -0.125   9.384  20.569  0.00  0.00    +0.000 A 
ATOM     17  N   UNL     1      -0.792  10.213  21.410  0.00  0.00    +0.000 NA
ATOM     18  C   UNL     1      -0.193  11.415  21.609  0.00  0.00    +0.000 A 
ATOM     19  H   UNL     1       2.544   9.286  18.685  0.00  0.00    +0.000 HD
ENDROOT
BRANCH  18  20
ATOM     20  C   UNL     1      -0.857  12.313  22.498  0.00  0.00    +0.000 C 
ATOM     21  N   UNL     1      -1.414  13.045  23.209  0.00  0.00    +0.000 NA
ENDBRANCH  18  20
BRANCH   1  22
ATOM     22  O   UNL     1       1.552  12.995  21.248  0.00  0.00    +0.000 OA
BRANCH  22  24
ATOM     23  C   UNL     1       1.385  14.605  19.531  0.00  0.00    +0.000 C 
ATOM     24  C   UNL     1       2.311  13.560  20.168  0.00  0.00    +0.000 C 
BRANCH  24  25
ATOM     25  C   UNL     1       3.590  14.279  20.685  0.00  0.00    +0.000 C 
BRANCH  25  26
ATOM     26  N   UNL     1       3.840  14.298  22.145  0.00  0.00    +0.000 NA
ATOM     27  C   UNL     1       5.204  13.893  22.493  0.00  0.00    +0.000 C 
ATOM     28  C   UNL     1       3.612  15.657  22.656  0.00  0.00    +0.000 C 
ENDBRANCH  25  26
ENDBRANCH  24  25
ENDBRANCH  22  24
ENDBRANCH   1  22
TORSDOF 5
ENDMDL
MODEL 7
REMARK VINA RESULT:      -6.5      4.385      8.921
REMARK  Name = 
REMARK  8 active torsions:
REMARK  status: ('A' for Active; 'I' for Inactive)
REMARK    1  A    between atoms: C_1  and  C_2
REMARK    2  A    between atoms: C_2  and  C_3
REMARK    3  A    between atoms: C_2  and  O_7
REMARK    4  A    between atoms: C_3  and  N_4
REMARK    5  A    between atoms: N_4  and  C_5
REMARK    6  A    between atoms: N_4  and  C_6
REMARK    7  A    between atoms: O_7  and  C_8
REMARK    8  A    between atoms: C_25  and  C_26
REMARK                            x       y       z     vdW  Elec       q    Type
REMARK                         _______ _______ _______ _____ _____    ______ ____
ROOT
ATOM      1  C   UNL     1       0.054  13.084  19.656  0.00  0.00    +0.000 A 
ATOM      2  N   UNL     1       1.023  12.354  19.038  0.00  0.00    +0.000 NA
ATOM      3  C   UNL     1       0.715  11.064  18.776  0.00  0.00    +0.000 A 
ATOM      4  N   UNL     1       1.720  10.252  18.229  0.00  0.00    +0.000 N 
ATOM      5  C   UNL     1       1.983   8.930  18.633  0.00  0.00    +0.000 A 
ATOM      6  C   UNL     1       2.782   8.131  17.825  0.00  0.00    +0.000 A 
ATOM      7  C   UNL     1       3.069   6.809  18.204  0.00  0.00    +0.000 A 
ATOM      8  C   UNL     1       3.872   5.986  17.399  0.00  0.00    +0.000 A 
ATOM      9  C   UNL     1       4.189   4.686  17.795  0.00  0.00    +0.000 A 
ATOM     10  C   UNL     1       3.686   4.184  18.992  0.00  0.00    +0.000 A 
ATOM     11  C   UNL     1       2.860   4.978  19.791  0.00  0.00    +0.000 A 
ATOM     12 CL   UNL     1       2.246   4.272  21.248  0.00  0.00    +0.000 Cl
ATOM     13  C   UNL     1       2.546   6.306  19.415  0.00  0.00    +0.000 A 
ATOM     14  C   UNL     1       1.750   7.189  20.150  0.00  0.00    +0.000 A 
ATOM     15  N   UNL     1       1.459   8.462  19.783  0.00  0.00    +0.000 NA
ATOM     16  C   UNL     1      -0.572  10.573  19.029  0.00  0.00    +0.000 A 
ATOM     17  N   UNL     1      -1.578  11.320  19.549  0.00  0.00    +0.000 NA
ATOM     18  C   UNL     1      -1.228  12.590  19.874  0.00  0.00    +0.000 A 
ATOM     19  H   UNL     1       2.573  10.797  18.166  0.00  0.00    +0.000 HD
ENDROOT
BRANCH  18  20
ATOM     20  C   UNL     1      -2.256  13.405  20.436  0.00  0.00    +0.000 C 
ATOM     21  N   UNL     1      -3.079  14.081  20.902  0.00  0.00    +0.000 NA
ENDBRANCH  18  20
BRANCH   1  22
ATOM     22  O   UNL     1       0.338  14.376  20.039  0.00  0.00    +0.000 OA
BRANCH  22  24
ATOM     23  C   UNL     1      -0.192  16.149  18.575  0.00  0.00    +0.000 C 
ATOM     24  C   UNL     1       0.922  15.188  19.009  0.00  0.00    +0.000 C 
BRANCH  24  25
ATOM     25  C   UNL     1       2.118  16.023  19.549  0.00  0.00    +0.000 C 
BRANCH  25  26
ATOM     26  N   UNL     1       3.466  15.753  18.997  0.00  0.00    +0.000 NA
ATOM     27  C   UNL     1       4.354  15.101  19.962  0.00  0.00    +0.000 C 
ATOM     28  C   UNL     1       3.339  14.883  17.819  0.00  0.00    +0.000 C 
ENDBRANCH  25  26
ENDBRANCH  24  25
ENDBRANCH  22  24
ENDBRANCH   1  22
TORSDOF 5
ENDMDL
MODEL 8
REMARK VINA RESULT:      -6.4      4.052      9.108
REMARK  Name = 
REMARK  8 active torsions:
REMARK  status: ('A' for Active; 'I' for Inactive)
REMARK    1  A    between atoms: C_1  and  C_2
REMARK    2  A    between atoms: C_2  and  C_3
REMARK    3  A    between atoms: C_2  and  O_7
REMARK    4  A    between atoms: C_3  and  N_4
REMARK    5  A    between atoms: N_4  and  C_5
REMARK    6  A    between atoms: N_4  and  C_6
REMARK    7  A    between atoms: O_7  and  C_8
REMARK    8  A    between atoms: C_25  and  C_26
REMARK                            x       y       z     vdW  Elec       q    Type
REMARK                         _______ _______ _______ _____ _____    ______ ____
ROOT
ATOM      1  C   UNL     1      -0.784  12.508  19.481  0.00  0.00    +0.000 A 
ATOM      2  N   UNL     1      -0.656  11.210  19.870  0.00  0.00    +0.000 NA
ATOM      3  C   UNL     1       0.604  10.718  19.882  0.00  0.00    +0.000 A 
ATOM      4  N   UNL     1       0.770   9.358  20.183  0.00  0.00    +0.000 N 
ATOM      5  C   UNL     1       1.645   8.493  19.500  0.00  0.00    +0.000 A 
ATOM      6  C   UNL     1       1.951   7.264  20.071  0.00  0.00    +0.000 A 
ATOM      7  C   UNL     1       2.816   6.376  19.411  0.00  0.00    +0.000 A 
ATOM      8  C   UNL     1       3.140   5.131  19.974  0.00  0.00    +0.000 A 
ATOM      9  C   UNL     1       3.966   4.233  19.299  0.00  0.00    +0.000 A 
ATOM     10  C   UNL     1       4.502   4.578  18.062  0.00  0.00    +0.000 A 
ATOM     11  C   UNL     1       4.216   5.825  17.500  0.00  0.00    +0.000 A 
ATOM     12 CL   UNL     1       4.946   6.196  15.974  0.00  0.00    +0.000 Cl
ATOM     13  C   UNL     1       3.361   6.739  18.161  0.00  0.00    +0.000 A 
ATOM     14  C   UNL     1       2.995   7.999  17.677  0.00  0.00    +0.000 A 
ATOM     15  N   UNL     1       2.170   8.866  18.316  0.00  0.00    +0.000 NA
ATOM     16  C   UNL     1       1.697  11.554  19.621  0.00  0.00    +0.000 A 
ATOM     17  N   UNL     1       1.589  12.875  19.335  0.00  0.00    +0.000 NA
ATOM     18  C   UNL     1       0.314  13.332  19.255  0.00  0.00    +0.000 A 
ATOM     19  H   UNL     1      -0.148   8.942  20.298  0.00  0.00    +0.000 HD
ENDROOT
BRANCH  18  20
ATOM     20  C   UNL     1       0.156  14.716  18.942  0.00  0.00    +0.000 C 
ATOM     21  N   UNL     1       0.029  15.847  18.707  0.00  0.00    +0.000 NA
ENDBRANCH  18  20
BRANCH   1  22
ATOM     22  O   UNL     1      -2.048  13.041  19.354  0.00  0.00    +0.000 OA
BRANCH  22  24
ATOM     23  C   UNL     1      -3.853  13.105  20.873  0.00  0.00    +0.000 C 
ATOM     24  C   UNL     1      -3.099  12.214  19.877  0.00  0.00    +0.000 C 
BRANCH  24  25
ATOM     25  C   UNL     1      -4.087  11.772  18.759  0.00  0.00    +0.000 C 
BRANCH  25  26
ATOM     26  N   UNL     1      -3.522  11.304  17.472  0.00  0.00    +0.000 NA
ATOM     27  C   UNL     1      -3.040   9.922  17.532  0.00  0.00    +0.000 C 
ATOM     28  C   UNL     1      -4.555  11.393  16.430  0.00  0.00    +0.000 C 
ENDBRANCH  25  26
ENDBRANCH  24  25
ENDBRANCH  22  24
ENDBRANCH   1  22
TORSDOF 5
ENDMDL
MODEL 9
REMARK VINA RESULT:      -6.4      4.543      8.566
REMARK  Name = 
REMARK  8 active torsions:
REMARK  status: ('A' for Active; 'I' for Inactive)
REMARK    1  A    between atoms: C_1  and  C_2
REMARK    2  A    between atoms: C_2  and  C_3
REMARK    3  A    between atoms: C_2  and  O_7
REMARK    4  A    between atoms: C_3  and  N_4
REMARK    5  A    between atoms: N_4  and  C_5
REMARK    6  A    between atoms: N_4  and  C_6
REMARK    7  A    between atoms: O_7  and  C_8
REMARK    8  A    between atoms: C_25  and  C_26
REMARK                            x       y       z     vdW  Elec       q    Type
REMARK                         _______ _______ _______ _____ _____    ______ ____
ROOT
ATOM      1  C   UNL     1       1.104  12.716  19.260  0.00  0.00    +0.000 A 
ATOM      2  N   UNL     1       1.914  11.813  18.644  0.00  0.00    +0.000 NA
ATOM      3  C   UNL     1       1.415  10.562  18.515  0.00  0.00    +0.000 A 
ATOM      4  N   UNL     1       2.254   9.578  17.973  0.00  0.00    +0.000 N 
ATOM      5  C   UNL     1       2.367   8.266  18.470  0.00  0.00    +0.000 A 
ATOM      6  C   UNL     1       2.985   7.303  17.682  0.00  0.00    +0.000 A 
ATOM      7  C   UNL     1       3.119   5.987  18.153  0.00  0.00    +0.000 A 
ATOM      8  C   UNL     1       3.738   5.000  17.370  0.00  0.00    +0.000 A 
ATOM      9  C   UNL     1       3.906   3.702  17.854  0.00  0.00    +0.000 A 
ATOM     10  C   UNL     1       3.434   3.368  19.120  0.00  0.00    +0.000 A 
ATOM     11  C   UNL     1       2.788   4.329  19.901  0.00  0.00    +0.000 A 
ATOM     12 CL   UNL     1       2.198   3.829  21.451  0.00  0.00    +0.000 Cl
ATOM     13  C   UNL     1       2.628   5.656  19.435  0.00  0.00    +0.000 A 
ATOM     14  C   UNL     1       2.018   6.695  20.143  0.00  0.00    +0.000 A 
ATOM     15  N   UNL     1       1.875   7.965  19.689  0.00  0.00    +0.000 NA
ATOM     16  C   UNL     1       0.096  10.279  18.893  0.00  0.00    +0.000 A 
ATOM     17  N   UNL     1      -0.756  11.197  19.412  0.00  0.00    +0.000 NA
ATOM     18  C   UNL     1      -0.213  12.427  19.604  0.00  0.00    +0.000 A 
ATOM     19  H   UNL     1       3.166   9.991  17.807  0.00  0.00    +0.000 HD
ENDROOT
BRANCH  18  20
ATOM     20  C   UNL     1      -1.075  13.419  20.161  0.00  0.00    +0.000 C 
ATOM     21  N   UNL     1      -1.790  14.212  20.619  0.00  0.00    +0.000 NA
ENDBRANCH  18  20
BRANCH   1  22
ATOM     22  O   UNL     1       1.589  13.981  19.512  0.00  0.00    +0.000 OA
BRANCH  22  24
ATOM     23  C   UNL     1       2.036  15.877  18.179  0.00  0.00    +0.000 C 
ATOM     24  C   UNL     1       2.522  14.465  18.534  0.00  0.00    +0.000 C 
BRANCH  24  25
ATOM     25  C   UNL     1       3.960  14.568  19.120  0.00  0.00    +0.000 C 
BRANCH  25  26
ATOM     26  N   UNL     1       4.918  15.488  18.464  0.00  0.00    +0.000 NA
ATOM     27  C   UNL     1       5.520  16.441  19.399  0.00  0.00    +0.000 C 
ATOM     28  C   UNL     1       5.993  14.702  17.841  0.00  0.00    +0.000 C 
ENDBRANCH  25  26
ENDBRANCH  24  25
ENDBRANCH  22  24
ENDBRANCH   1  22
TORSDOF 5
ENDMDL
