MODEL 1
REMARK VINA RESULT:      -7.9      0.000      0.000
REMARK  Name = 
REMARK  4 active torsions:
REMARK  status: ('A' for Active; 'I' for Inactive)
REMARK    1  A    between atoms: C_2  and  C_19
REMARK    2  A    between atoms: N_3  and  C_4
REMARK    3  A    between atoms: C_9  and  C_10
REMARK    4  A    between atoms: N_12  and  C_13
REMARK                            x       y       z     vdW  Elec       q    Type
REMARK                         _______ _______ _______ _____ _____    ______ ____
ROOT
ATOM      1  C   UNL     1       3.426   3.469  19.488  0.00  0.00    +0.000 A 
ATOM      2  C   UNL     1       3.704   2.314  20.236  0.00  0.00    +0.000 A 
ATOM      3  C   UNL     1       3.069   2.080  21.455  0.00  0.00    +0.000 A 
ATOM      4  C   UNL     1       2.131   2.987  21.933  0.00  0.00    +0.000 A 
ATOM      5  C   UNL     1       1.857   4.151  21.212  0.00  0.00    +0.000 A 
ATOM      6  C   UNL     1       2.532   4.426  20.007  0.00  0.00    +0.000 A 
ENDROOT
BRANCH   1   9
ATOM      7  O   UNL     1       6.058   4.425  19.112  0.00  0.00    +0.000 OA
ATOM      8  C   UNL     1       5.348   4.192  18.131  0.00  0.00    +0.000 C 
ATOM      9  N   UNL     1       4.073   3.657  18.242  0.00  0.00    +0.000 N 
ATOM     10  H   UNL     1       3.822   3.010  17.492  0.00  0.00    +0.000 HD
BRANCH   8  11
ATOM     11  C   UNL     1       5.835   4.441  16.780  0.00  0.00    +0.000 A 
ATOM     12  C   UNL     1       5.425   3.778  15.636  0.00  0.00    +0.000 A 
ATOM     13  C   UNL     1       6.190   4.132  14.490  0.00  0.00    +0.000 A 
ATOM     14  C   UNL     1       7.148   5.075  14.788  0.00  0.00    +0.000 A 
ATOM     15  S   UNL     1       7.093   5.549  16.433  0.00  0.00    +0.000 S 
ENDBRANCH   8  11
ENDBRANCH   1   9
BRANCH   6  16
ATOM     16  C   UNL     1       2.223   5.673  19.242  0.00  0.00    +0.000 C 
ATOM     17  O   UNL     1       2.079   5.600  18.028  0.00  0.00    +0.000 OA
ATOM     18  N   UNL     1       2.214   6.845  19.979  0.00  0.00    +0.000 N 
ATOM     19  H   UNL     1       2.612   6.818  20.909  0.00  0.00    +0.000 HD
BRANCH  18  20
ATOM     20  C   UNL     1       1.891   8.130  19.490  0.00  0.00    +0.000 A 
ATOM     21  C   UNL     1       2.302   8.594  18.238  0.00  0.00    +0.000 A 
ATOM     22  C   UNL     1       1.972   9.887  17.821  0.00  0.00    +0.000 A 
ATOM     23  C   UNL     1       1.232  10.721  18.650  0.00  0.00    +0.000 A 
ATOM     24  C   UNL     1       0.799  10.259  19.887  0.00  0.00    +0.000 A 
ATOM     25  C   UNL     1       1.113   8.961  20.300  0.00  0.00    +0.000 A 
ENDBRANCH  18  20
ENDBRANCH   6  16
TORSDOF 4
ENDMDL
MODEL 2
REMARK VINA RESULT:      -7.9      1.982      4.966
REMARK  Name = 
REMARK  4 active torsions:
REMARK  status: ('A' for Active; 'I' for Inactive)
REMARK    1  A    between atoms: C_2  and  C_19
REMARK    2  A    between atoms: N_3  and  C_4
REMARK    3  A    between atoms: C_9  and  C_10
REMARK    4  A    between atoms: N_12  and  C_13
REMARK                            x       y       z     vdW  Elec       q    Type
REMARK                         _______ _______ _______ _____ _____    ______ ____
ROOT
ATOM      1  C   UNL     1       5.029   4.243  16.644  0.00  0.00    +0.000 A 
ATOM      2  C   UNL     1       5.535   3.297  15.737  0.00  0.00    +0.000 A 
ATOM      3  C   UNL     1       6.158   3.699  14.557  0.00  0.00    +0.000 A 
ATOM      4  C   UNL     1       6.306   5.051  14.277  0.00  0.00    +0.000 A 
ATOM      5  C   UNL     1       5.792   6.005  15.157  0.00  0.00    +0.000 A 
ATOM      6  C   UNL     1       5.110   5.613  16.325  0.00  0.00    +0.000 A 
ENDROOT
BRANCH   1   9
ATOM      7  O   UNL     1       2.345   3.412  16.942  0.00  0.00    +0.000 OA
ATOM      8  C   UNL     1       3.081   3.463  17.930  0.00  0.00    +0.000 C 
ATOM      9  N   UNL     1       4.425   3.795  17.844  0.00  0.00    +0.000 N 
ATOM     10  H   UNL     1       5.026   3.292  18.500  0.00  0.00    +0.000 HD
BRANCH   8  11
ATOM     11  C   UNL     1       2.574   3.136  19.257  0.00  0.00    +0.000 A 
ATOM     12  C   UNL     1       1.282   3.347  19.705  0.00  0.00    +0.000 A 
ATOM     13  C   UNL     1       1.127   3.071  21.092  0.00  0.00    +0.000 A 
ATOM     14  C   UNL     1       2.303   2.632  21.658  0.00  0.00    +0.000 A 
ATOM     15  S   UNL     1       3.569   2.525  20.509  0.00  0.00    +0.000 S 
ENDBRANCH   8  11
ENDBRANCH   1   9
BRANCH   6  16
ATOM     16  C   UNL     1       4.571   6.645  17.262  0.00  0.00    +0.000 C 
ATOM     17  O   UNL     1       5.350   7.435  17.782  0.00  0.00    +0.000 OA
ATOM     18  N   UNL     1       3.216   6.562  17.535  0.00  0.00    +0.000 N 
ATOM     19  H   UNL     1       2.734   5.713  17.267  0.00  0.00    +0.000 HD
BRANCH  18  20
ATOM     20  C   UNL     1       2.475   7.458  18.336  0.00  0.00    +0.000 A 
ATOM     21  C   UNL     1       1.935   8.651  17.847  0.00  0.00    +0.000 A 
ATOM     22  C   UNL     1       1.233   9.509  18.698  0.00  0.00    +0.000 A 
ATOM     23  C   UNL     1       1.068   9.184  20.038  0.00  0.00    +0.000 A 
ATOM     24  C   UNL     1       1.582   7.989  20.528  0.00  0.00    +0.000 A 
ATOM     25  C   UNL     1       2.270   7.120  19.676  0.00  0.00    +0.000 A 
ENDBRANCH  18  20
ENDBRANCH   6  16
TORSDOF 4
ENDMDL
MODEL 3
REMARK VINA RESULT:      -7.8      1.968      5.013
REMARK  Name = 
REMARK  4 active torsions:
REMARK  status: ('A' for Active; 'I' for Inactive)
REMARK    1  A    between atoms: C_2  and  C_19
REMARK    2  A    between atoms: N_3  and  C_4
REMARK    3  A    between atoms: C_9  and  C_10
REMARK    4  A    between atoms: N_12  and  C_13
REMARK                            x       y       z     vdW  Elec       q    Type
REMARK                         _______ _______ _______ _____ _____    ______ ____
ROOT
ATOM      1  C   UNL     1       5.021   4.216  16.635  0.00  0.00    +0.000 A 
ATOM      2  C   UNL     1       5.508   3.275  15.714  0.00  0.00    +0.000 A 
ATOM      3  C   UNL     1       6.127   3.683  14.533  0.00  0.00    +0.000 A 
ATOM      4  C   UNL     1       6.287   5.037  14.266  0.00  0.00    +0.000 A 
ATOM      5  C   UNL     1       5.791   5.987  15.161  0.00  0.00    +0.000 A 
ATOM      6  C   UNL     1       5.115   5.589  16.330  0.00  0.00    +0.000 A 
ENDROOT
BRANCH   1   9
ATOM      7  O   UNL     1       2.329   3.419  16.949  0.00  0.00    +0.000 OA
ATOM      8  C   UNL     1       3.075   3.447  17.930  0.00  0.00    +0.000 C 
ATOM      9  N   UNL     1       4.422   3.762  17.835  0.00  0.00    +0.000 N 
ATOM     10  H   UNL     1       5.022   3.242  18.480  0.00  0.00    +0.000 HD
BRANCH   8  11
ATOM     11  C   UNL     1       2.575   3.111  19.258  0.00  0.00    +0.000 A 
ATOM     12  C   UNL     1       1.274   3.275  19.699  0.00  0.00    +0.000 A 
ATOM     13  C   UNL     1       1.125   3.003  21.088  0.00  0.00    +0.000 A 
ATOM     14  C   UNL     1       2.315   2.616  21.662  0.00  0.00    +0.000 A 
ATOM     15  S   UNL     1       3.589   2.550  20.518  0.00  0.00    +0.000 S 
ENDBRANCH   8  11
ENDBRANCH   1   9
BRANCH   6  16
ATOM     16  C   UNL     1       4.595   6.617  17.283  0.00  0.00    +0.000 C 
ATOM     17  O   UNL     1       5.387   7.390  17.807  0.00  0.00    +0.000 OA
ATOM     18  N   UNL     1       3.241   6.548  17.565  0.00  0.00    +0.000 N 
ATOM     19  H   UNL     1       2.747   5.708  17.290  0.00  0.00    +0.000 HD
BRANCH  18  20
ATOM     20  C   UNL     1       2.517   7.443  18.382  0.00  0.00    +0.000 A 
ATOM     21  C   UNL     1       2.262   7.205  19.735  0.00  0.00    +0.000 A 
ATOM     22  C   UNL     1       1.516   8.119  20.485  0.00  0.00    +0.000 A 
ATOM     23  C   UNL     1       1.021   9.272  19.889  0.00  0.00    +0.000 A 
ATOM     24  C   UNL     1       1.288   9.528  18.549  0.00  0.00    +0.000 A 
ATOM     25  C   UNL     1       2.048   8.624  17.801  0.00  0.00    +0.000 A 
ENDBRANCH  18  20
ENDBRANCH   6  16
TORSDOF 4
ENDMDL
MODEL 4
REMARK VINA RESULT:      -7.8      0.240      1.031
REMARK  Name = 
REMARK  4 active torsions:
REMARK  status: ('A' for Active; 'I' for Inactive)
REMARK    1  A    between atoms: C_2  and  C_19
REMARK    2  A    between atoms: N_3  and  C_4
REMARK    3  A    between atoms: C_9  and  C_10
REMARK    4  A    between atoms: N_12  and  C_13
REMARK                            x       y       z     vdW  Elec       q    Type
REMARK                         _______ _______ _______ _____ _____    ______ ____
ROOT
ATOM      1  C   UNL     1       3.422   3.427  19.490  0.00  0.00    +0.000 A 
ATOM      2  C   UNL     1       3.724   2.264  20.217  0.00  0.00    +0.000 A 
ATOM      3  C   UNL     1       3.117   2.009  21.446  0.00  0.00    +0.000 A 
ATOM      4  C   UNL     1       2.181   2.901  21.955  0.00  0.00    +0.000 A 
ATOM      5  C   UNL     1       1.883   4.073  21.255  0.00  0.00    +0.000 A 
ATOM      6  C   UNL     1       2.531   4.369  20.041  0.00  0.00    +0.000 A 
ENDROOT
BRANCH   1   9
ATOM      7  O   UNL     1       6.042   4.397  19.072  0.00  0.00    +0.000 OA
ATOM      8  C   UNL     1       5.311   4.177  18.104  0.00  0.00    +0.000 C 
ATOM      9  N   UNL     1       4.041   3.636  18.234  0.00  0.00    +0.000 N 
ATOM     10  H   UNL     1       3.775   3.000  17.479  0.00  0.00    +0.000 HD
BRANCH   8  11
ATOM     11  C   UNL     1       5.768   4.449  16.746  0.00  0.00    +0.000 A 
ATOM     12  C   UNL     1       5.033   4.253  15.590  0.00  0.00    +0.000 A 
ATOM     13  C   UNL     1       5.799   4.461  14.409  0.00  0.00    +0.000 A 
ATOM     14  C   UNL     1       7.092   4.834  14.699  0.00  0.00    +0.000 A 
ATOM     15  S   UNL     1       7.361   4.963  16.386  0.00  0.00    +0.000 S 
ENDBRANCH   8  11
ENDBRANCH   1   9
BRANCH   6  16
ATOM     16  C   UNL     1       2.197   5.624  19.300  0.00  0.00    +0.000 C 
ATOM     17  O   UNL     1       2.015   5.564  18.090  0.00  0.00    +0.000 OA
ATOM     18  N   UNL     1       2.209   6.788  20.049  0.00  0.00    +0.000 N 
ATOM     19  H   UNL     1       2.637   6.751  20.965  0.00  0.00    +0.000 HD
BRANCH  18  20
ATOM     20  C   UNL     1       1.869   8.077  19.584  0.00  0.00    +0.000 A 
ATOM     21  C   UNL     1       1.121   8.987  20.337  0.00  0.00    +0.000 A 
ATOM     22  C   UNL     1       0.794  10.239  19.810  0.00  0.00    +0.000 A 
ATOM     23  C   UNL     1       1.210  10.590  18.532  0.00  0.00    +0.000 A 
ATOM     24  C   UNL     1       1.973   9.700  17.784  0.00  0.00    +0.000 A 
ATOM     25  C   UNL     1       2.316   8.453  18.315  0.00  0.00    +0.000 A 
ENDBRANCH  18  20
ENDBRANCH   6  16
TORSDOF 4
ENDMDL
MODEL 5
REMARK VINA RESULT:      -7.4      1.060      1.192
REMARK  Name = 
REMARK  4 active torsions:
REMARK  status: ('A' for Active; 'I' for Inactive)
REMARK    1  A    between atoms: C_2  and  C_19
REMARK    2  A    between atoms: N_3  and  C_4
REMARK    3  A    between atoms: C_9  and  C_10
REMARK    4  A    between atoms: N_12  and  C_13
REMARK                            x       y       z     vdW  Elec       q    Type
REMARK                         _______ _______ _______ _____ _____    ______ ____
ROOT
ATOM      1  C   UNL     1       3.608   3.756  19.730  0.00  0.00    +0.000 A 
ATOM      2  C   UNL     1       3.878   2.588  20.461  0.00  0.00    +0.000 A 
ATOM      3  C   UNL     1       2.992   2.133  21.437  0.00  0.00    +0.000 A 
ATOM      4  C   UNL     1       1.814   2.827  21.681  0.00  0.00    +0.000 A 
ATOM      5  C   UNL     1       1.539   4.002  20.978  0.00  0.00    +0.000 A 
ATOM      6  C   UNL     1       2.451   4.502  20.029  0.00  0.00    +0.000 A 
ENDROOT
BRANCH   1   9
ATOM      7  O   UNL     1       3.552   2.987  17.013  0.00  0.00    +0.000 OA
ATOM      8  C   UNL     1       4.469   3.700  17.425  0.00  0.00    +0.000 C 
ATOM      9  N   UNL     1       4.520   4.170  18.729  0.00  0.00    +0.000 N 
ATOM     10  H   UNL     1       4.909   5.112  18.822  0.00  0.00    +0.000 HD
BRANCH   8  11
ATOM     11  C   UNL     1       5.547   4.120  16.538  0.00  0.00    +0.000 A 
ATOM     12  C   UNL     1       6.740   4.701  16.931  0.00  0.00    +0.000 A 
ATOM     13  C   UNL     1       7.527   5.141  15.831  0.00  0.00    +0.000 A 
ATOM     14  C   UNL     1       6.921   4.862  14.627  0.00  0.00    +0.000 A 
ATOM     15  S   UNL     1       5.431   4.042  14.832  0.00  0.00    +0.000 S 
ENDBRANCH   8  11
ENDBRANCH   1   9
BRANCH   6  16
ATOM     16  C   UNL     1       2.140   5.758  19.280  0.00  0.00    +0.000 C 
ATOM     17  O   UNL     1       1.973   5.695  18.068  0.00  0.00    +0.000 OA
ATOM     18  N   UNL     1       2.156   6.925  20.025  0.00  0.00    +0.000 N 
ATOM     19  H   UNL     1       2.572   6.887  20.947  0.00  0.00    +0.000 HD
BRANCH  18  20
ATOM     20  C   UNL     1       1.836   8.216  19.551  0.00  0.00    +0.000 A 
ATOM     21  C   UNL     1       2.260   8.700  18.311  0.00  0.00    +0.000 A 
ATOM     22  C   UNL     1       1.932   9.998  17.909  0.00  0.00    +0.000 A 
ATOM     23  C   UNL     1       1.182  10.818  18.742  0.00  0.00    +0.000 A 
ATOM     24  C   UNL     1       0.737  10.337  19.968  0.00  0.00    +0.000 A 
ATOM     25  C   UNL     1       1.049   9.034  20.365  0.00  0.00    +0.000 A 
ENDBRANCH  18  20
ENDBRANCH   6  16
TORSDOF 4
ENDMDL
MODEL 6
REMARK VINA RESULT:      -7.3      1.054      1.562
REMARK  Name = 
REMARK  4 active torsions:
REMARK  status: ('A' for Active; 'I' for Inactive)
REMARK    1  A    between atoms: C_2  and  C_19
REMARK    2  A    between atoms: N_3  and  C_4
REMARK    3  A    between atoms: C_9  and  C_10
REMARK    4  A    between atoms: N_12  and  C_13
REMARK                            x       y       z     vdW  Elec       q    Type
REMARK                         _______ _______ _______ _____ _____    ______ ____
ROOT
ATOM      1  C   UNL     1       3.571   3.717  19.777  0.00  0.00    +0.000 A 
ATOM      2  C   UNL     1       3.838   2.538  20.491  0.00  0.00    +0.000 A 
ATOM      3  C   UNL     1       2.939   2.057  21.442  0.00  0.00    +0.000 A 
ATOM      4  C   UNL     1       1.749   2.736  21.677  0.00  0.00    +0.000 A 
ATOM      5  C   UNL     1       1.476   3.920  20.990  0.00  0.00    +0.000 A 
ATOM      6  C   UNL     1       2.401   4.446  20.068  0.00  0.00    +0.000 A 
ENDROOT
BRANCH   1   9
ATOM      7  O   UNL     1       3.565   3.006  17.043  0.00  0.00    +0.000 OA
ATOM      8  C   UNL     1       4.470   3.715  17.486  0.00  0.00    +0.000 C 
ATOM      9  N   UNL     1       4.497   4.158  18.801  0.00  0.00    +0.000 N 
ATOM     10  H   UNL     1       4.878   5.099  18.920  0.00  0.00    +0.000 HD
BRANCH   8  11
ATOM     11  C   UNL     1       5.560   4.160  16.627  0.00  0.00    +0.000 A 
ATOM     12  C   UNL     1       6.684   4.855  17.038  0.00  0.00    +0.000 A 
ATOM     13  C   UNL     1       7.495   5.285  15.950  0.00  0.00    +0.000 A 
ATOM     14  C   UNL     1       6.976   4.884  14.739  0.00  0.00    +0.000 A 
ATOM     15  S   UNL     1       5.542   3.966  14.926  0.00  0.00    +0.000 S 
ENDBRANCH   8  11
ENDBRANCH   1   9
BRANCH   6  16
ATOM     16  C   UNL     1       2.091   5.712  19.335  0.00  0.00    +0.000 C 
ATOM     17  O   UNL     1       1.919   5.665  18.123  0.00  0.00    +0.000 OA
ATOM     18  N   UNL     1       2.114   6.870  20.094  0.00  0.00    +0.000 N 
ATOM     19  H   UNL     1       2.533   6.819  21.014  0.00  0.00    +0.000 HD
BRANCH  18  20
ATOM     20  C   UNL     1       1.797   8.168  19.638  0.00  0.00    +0.000 A 
ATOM     21  C   UNL     1       1.036   9.073  20.383  0.00  0.00    +0.000 A 
ATOM     22  C   UNL     1       0.734  10.335  19.864  0.00  0.00    +0.000 A 
ATOM     23  C   UNL     1       1.186  10.699  18.602  0.00  0.00    +0.000 A 
ATOM     24  C   UNL     1       1.962   9.813  17.864  0.00  0.00    +0.000 A 
ATOM     25  C   UNL     1       2.281   8.557  18.387  0.00  0.00    +0.000 A 
ENDBRANCH  18  20
ENDBRANCH   6  16
TORSDOF 4
ENDMDL
MODEL 7
REMARK VINA RESULT:      -7.1      2.032      2.520
REMARK  Name = 
REMARK  4 active torsions:
REMARK  status: ('A' for Active; 'I' for Inactive)
REMARK    1  A    between atoms: C_2  and  C_19
REMARK    2  A    between atoms: N_3  and  C_4
REMARK    3  A    between atoms: C_9  and  C_10
REMARK    4  A    between atoms: N_12  and  C_13
REMARK                            x       y       z     vdW  Elec       q    Type
REMARK                         _______ _______ _______ _____ _____    ______ ____
ROOT
ATOM      1  C   UNL     1       3.263   4.553  19.997  0.00  0.00    +0.000 A 
ATOM      2  C   UNL     1       3.441   3.167  20.131  0.00  0.00    +0.000 A 
ATOM      3  C   UNL     1       2.377   2.339  20.486  0.00  0.00    +0.000 A 
ATOM      4  C   UNL     1       1.114   2.882  20.690  0.00  0.00    +0.000 A 
ATOM      5  C   UNL     1       0.923   4.261  20.580  0.00  0.00    +0.000 A 
ATOM      6  C   UNL     1       2.001   5.114  20.277  0.00  0.00    +0.000 A 
ENDROOT
BRANCH   1   9
ATOM      7  O   UNL     1       4.634   4.411  17.531  0.00  0.00    +0.000 OA
ATOM      8  C   UNL     1       5.029   5.186  18.404  0.00  0.00    +0.000 C 
ATOM      9  N   UNL     1       4.363   5.356  19.609  0.00  0.00    +0.000 N 
ATOM     10  H   UNL     1       4.384   6.312  19.970  0.00  0.00    +0.000 HD
BRANCH   8  11
ATOM     11  C   UNL     1       6.218   6.003  18.195  0.00  0.00    +0.000 A 
ATOM     12  C   UNL     1       7.377   5.955  18.951  0.00  0.00    +0.000 A 
ATOM     13  C   UNL     1       8.303   6.977  18.605  0.00  0.00    +0.000 A 
ATOM     14  C   UNL     1       7.834   7.763  17.576  0.00  0.00    +0.000 A 
ATOM     15  S   UNL     1       6.302   7.240  17.015  0.00  0.00    +0.000 S 
ENDBRANCH   8  11
ENDBRANCH   1   9
BRANCH   6  16
ATOM     16  C   UNL     1       1.780   6.588  20.156  0.00  0.00    +0.000 C 
ATOM     17  O   UNL     1       2.254   7.179  19.193  0.00  0.00    +0.000 OA
ATOM     18  N   UNL     1       1.119   7.188  21.214  0.00  0.00    +0.000 N 
ATOM     19  H   UNL     1       1.021   6.654  22.069  0.00  0.00    +0.000 HD
BRANCH  18  20
ATOM     20  C   UNL     1       0.745   8.547  21.296  0.00  0.00    +0.000 A 
ATOM     21  C   UNL     1       1.002   9.471  20.280  0.00  0.00    +0.000 A 
ATOM     22  C   UNL     1       0.630  10.809  20.431  0.00  0.00    +0.000 A 
ATOM     23  C   UNL     1       0.003  11.233  21.597  0.00  0.00    +0.000 A 
ATOM     24  C   UNL     1      -0.276  10.316  22.604  0.00  0.00    +0.000 A 
ATOM     25  C   UNL     1       0.079   8.973  22.448  0.00  0.00    +0.000 A 
ENDBRANCH  18  20
ENDBRANCH   6  16
TORSDOF 4
ENDMDL
MODEL 8
REMARK VINA RESULT:      -7.0      2.014      2.666
REMARK  Name = 
REMARK  4 active torsions:
REMARK  status: ('A' for Active; 'I' for Inactive)
REMARK    1  A    between atoms: C_2  and  C_19
REMARK    2  A    between atoms: N_3  and  C_4
REMARK    3  A    between atoms: C_9  and  C_10
REMARK    4  A    between atoms: N_12  and  C_13
REMARK                            x       y       z     vdW  Elec       q    Type
REMARK                         _______ _______ _______ _____ _____    ______ ____
ROOT
ATOM      1  C   UNL     1       3.256   4.507  19.955  0.00  0.00    +0.000 A 
ATOM      2  C   UNL     1       3.413   3.116  20.065  0.00  0.00    +0.000 A 
ATOM      3  C   UNL     1       2.333   2.297  20.391  0.00  0.00    +0.000 A 
ATOM      4  C   UNL     1       1.075   2.854  20.589  0.00  0.00    +0.000 A 
ATOM      5  C   UNL     1       0.905   4.237  20.503  0.00  0.00    +0.000 A 
ATOM      6  C   UNL     1       1.999   5.080  20.230  0.00  0.00    +0.000 A 
ENDROOT
BRANCH   1   9
ATOM      7  O   UNL     1       4.511   4.558  17.425  0.00  0.00    +0.000 OA
ATOM      8  C   UNL     1       4.977   5.227  18.350  0.00  0.00    +0.000 C 
ATOM      9  N   UNL     1       4.372   5.301  19.596  0.00  0.00    +0.000 N 
ATOM     10  H   UNL     1       4.451   6.214  20.048  0.00  0.00    +0.000 HD
BRANCH   8  11
ATOM     11  C   UNL     1       6.191   6.013  18.167  0.00  0.00    +0.000 A 
ATOM     12  C   UNL     1       7.321   5.957  18.963  0.00  0.00    +0.000 A 
ATOM     13  C   UNL     1       8.281   6.951  18.629  0.00  0.00    +0.000 A 
ATOM     14  C   UNL     1       7.865   7.725  17.568  0.00  0.00    +0.000 A 
ATOM     15  S   UNL     1       6.342   7.224  16.965  0.00  0.00    +0.000 S 
ENDBRANCH   8  11
ENDBRANCH   1   9
BRANCH   6  16
ATOM     16  C   UNL     1       1.800   6.559  20.134  0.00  0.00    +0.000 C 
ATOM     17  O   UNL     1       2.303   7.162  19.194  0.00  0.00    +0.000 OA
ATOM     18  N   UNL     1       1.123   7.146  21.190  0.00  0.00    +0.000 N 
ATOM     19  H   UNL     1       0.999   6.596  22.031  0.00  0.00    +0.000 HD
BRANCH  18  20
ATOM     20  C   UNL     1       0.766   8.508  21.291  0.00  0.00    +0.000 A 
ATOM     21  C   UNL     1       0.249   9.076  22.459  0.00  0.00    +0.000 A 
ATOM     22  C   UNL     1      -0.111  10.426  22.488  0.00  0.00    +0.000 A 
ATOM     23  C   UNL     1       0.042  11.215  21.355  0.00  0.00    +0.000 A 
ATOM     24  C   UNL     1       0.577  10.664  20.196  0.00  0.00    +0.000 A 
ATOM     25  C   UNL     1       0.953   9.318  20.169  0.00  0.00    +0.000 A 
ENDBRANCH  18  20
ENDBRANCH   6  16
TORSDOF 4
ENDMDL
MODEL 9
REMARK VINA RESULT:      -6.9      2.802      5.380
REMARK  Name = 
REMARK  4 active torsions:
REMARK  status: ('A' for Active; 'I' for Inactive)
REMARK    1  A    between atoms: C_2  and  C_19
REMARK    2  A    between atoms: N_3  and  C_4
REMARK    3  A    between atoms: C_9  and  C_10
REMARK    4  A    between atoms: N_12  and  C_13
REMARK                            x       y       z     vdW  Elec       q    Type
REMARK                         _______ _______ _______ _____ _____    ______ ____
ROOT
ATOM      1  C   UNL     1       2.003   4.209  18.267  0.00  0.00    +0.000 A 
ATOM      2  C   UNL     1       0.888   3.447  18.649  0.00  0.00    +0.000 A 
ATOM      3  C   UNL     1       0.987   2.066  18.817  0.00  0.00    +0.000 A 
ATOM      4  C   UNL     1       2.208   1.431  18.626  0.00  0.00    +0.000 A 
ATOM      5  C   UNL     1       3.323   2.171  18.226  0.00  0.00    +0.000 A 
ATOM      6  C   UNL     1       3.223   3.557  17.999  0.00  0.00    +0.000 A 
ENDROOT
BRANCH   1   9
ATOM      7  O   UNL     1       2.662   6.135  20.225  0.00  0.00    +0.000 OA
ATOM      8  C   UNL     1       2.151   6.496  19.163  0.00  0.00    +0.000 C 
ATOM      9  N   UNL     1       1.867   5.612  18.132  0.00  0.00    +0.000 N 
ATOM     10  H   UNL     1       2.002   6.000  17.196  0.00  0.00    +0.000 HD
BRANCH   8  11
ATOM     11  C   UNL     1       1.847   7.901  18.920  0.00  0.00    +0.000 A 
ATOM     12  C   UNL     1       2.174   8.615  17.780  0.00  0.00    +0.000 A 
ATOM     13  C   UNL     1       1.882  10.003  17.897  0.00  0.00    +0.000 A 
ATOM     14  C   UNL     1       1.318  10.304  19.116  0.00  0.00    +0.000 A 
ATOM     15  S   UNL     1       1.113   8.910  20.091  0.00  0.00    +0.000 S 
ENDBRANCH   8  11
ENDBRANCH   1   9
BRANCH   6  16
ATOM     16  C   UNL     1       4.427   4.336  17.578  0.00  0.00    +0.000 C 
ATOM     17  O   UNL     1       4.863   4.181  16.443  0.00  0.00    +0.000 OA
ATOM     18  N   UNL     1       5.011   5.120  18.558  0.00  0.00    +0.000 N 
ATOM     19  H   UNL     1       4.731   4.958  19.517  0.00  0.00    +0.000 HD
BRANCH  18  20
ATOM     20  C   UNL     1       6.113   5.985  18.381  0.00  0.00    +0.000 A 
ATOM     21  C   UNL     1       7.314   5.844  19.081  0.00  0.00    +0.000 A 
ATOM     22  C   UNL     1       8.359   6.750  18.881  0.00  0.00    +0.000 A 
ATOM     23  C   UNL     1       8.212   7.799  17.982  0.00  0.00    +0.000 A 
ATOM     24  C   UNL     1       7.029   7.934  17.264  0.00  0.00    +0.000 A 
ATOM     25  C   UNL     1       5.988   7.020  17.450  0.00  0.00    +0.000 A 
ENDBRANCH  18  20
ENDBRANCH   6  16
TORSDOF 4
ENDMDL
