MODEL 1
REMARK VINA RESULT:      -7.8      0.000      0.000
REMARK  Name = 
REMARK  7 active torsions:
REMARK  status: ('A' for Active; 'I' for Inactive)
REMARK    1  A    between atoms: C_2  and  C_3
REMARK    2  A    between atoms: C_3  and  O_4
REMARK    3  A    between atoms: C_5  and  C_6
REMARK    4  A    between atoms: C_6  and  O_7
REMARK    5  A    between atoms: C_9  and  N_10
REMARK    6  A    between atoms: C_12  and  C_13
REMARK    7  A    between atoms: C_24  and  O_25
REMARK                            x       y       z     vdW  Elec       q    Type
REMARK                         _______ _______ _______ _____ _____    ______ ____
ROOT
ATOM      1  N   UNL     1       4.121   4.763  17.920  0.00  0.00    +0.000 N 
ATOM      2  C   UNL     1       3.687   5.848  18.654  0.00  0.00    +0.000 A 
ATOM      3  C   UNL     1       2.679   5.443  19.511  0.00  0.00    +0.000 A 
ATOM      4  C   UNL     1       2.482   4.048  19.277  0.00  0.00    +0.000 A 
ATOM      5  C   UNL     1       1.617   3.055  19.769  0.00  0.00    +0.000 A 
ATOM      6  N   UNL     1       0.610   3.282  20.682  0.00  0.00    +0.000 N 
ATOM      7  N   UNL     1       1.740   1.797  19.303  0.00  0.00    +0.000 NA
ATOM      8  C   UNL     1       2.691   1.545  18.389  0.00  0.00    +0.000 A 
ATOM      9  N   UNL     1       3.566   2.407  17.849  0.00  0.00    +0.000 NA
ATOM     10  C   UNL     1       3.410   3.653  18.319  0.00  0.00    +0.000 A 
ATOM     11  H   UNL     1       0.612   4.106  21.263  0.00  0.00    +0.000 HD
ATOM     12  H   UNL     1       0.191   2.439  21.050  0.00  0.00    +0.000 HD
ENDROOT
BRANCH   1  16
ATOM     13  C   UNL     1       7.163   6.296  16.779  0.00  0.00    +0.000 C 
ATOM     14  C   UNL     1       7.406   5.167  17.791  0.00  0.00    +0.000 C 
ATOM     15  O   UNL     1       6.372   4.186  17.567  0.00  0.00    +0.000 OA
ATOM     16  C   UNL     1       5.225   4.830  16.956  0.00  0.00    +0.000 C 
ATOM     17  C   UNL     1       5.661   6.221  16.480  0.00  0.00    +0.000 C 
BRANCH  13  19
ATOM     18  C   UNL     1       7.790   8.812  17.899  0.00  0.00    +0.000 C 
ATOM     19  C   UNL     1       7.500   7.650  17.382  0.00  0.00    +0.000 C 
ENDBRANCH  13  19
BRANCH  13  20
ATOM     20  O   UNL     1       7.899   6.086  15.569  0.00  0.00    +0.000 OA
ATOM     21  H   UNL     1       7.639   5.211  15.227  0.00  0.00    +0.000 HD
ENDBRANCH  13  20
BRANCH  17  22
ATOM     22  O   UNL     1       5.400   6.400  15.076  0.00  0.00    +0.000 OA
ATOM     23  H   UNL     1       6.278   6.380  14.639  0.00  0.00    +0.000 HD
ENDBRANCH  17  22
BRANCH  14  24
ATOM     24  C   UNL     1       7.368   5.599  19.272  0.00  0.00    +0.000 C 
BRANCH  24  25
ATOM     25  O   UNL     1       8.564   5.221  19.946  0.00  0.00    +0.000 OA
ATOM     26  H   UNL     1       9.233   5.054  19.256  0.00  0.00    +0.000 HD
ENDBRANCH  24  25
ENDBRANCH  14  24
ENDBRANCH   1  16
BRANCH   3  27
ATOM     27  C   UNL     1       1.950   6.277  20.501  0.00  0.00    +0.000 C 
ATOM     28  F   UNL     1       2.265   7.593  20.395  0.00  0.00    +0.000 F 
ATOM     29  F   UNL     1       0.602   6.183  20.364  0.00  0.00    +0.000 F 
ATOM     30  F   UNL     1       2.238   5.904  21.774  0.00  0.00    +0.000 F 
ENDBRANCH   3  27
TORSDOF 7
ENDMDL
MODEL 2
REMARK VINA RESULT:      -7.6      1.794      2.820
REMARK  Name = 
REMARK  7 active torsions:
REMARK  status: ('A' for Active; 'I' for Inactive)
REMARK    1  A    between atoms: C_2  and  C_3
REMARK    2  A    between atoms: C_3  and  O_4
REMARK    3  A    between atoms: C_5  and  C_6
REMARK    4  A    between atoms: C_6  and  O_7
REMARK    5  A    between atoms: C_9  and  N_10
REMARK    6  A    between atoms: C_12  and  C_13
REMARK    7  A    between atoms: C_24  and  O_25
REMARK                            x       y       z     vdW  Elec       q    Type
REMARK                         _______ _______ _______ _____ _____    ______ ____
ROOT
ATOM      1  N   UNL     1       4.089   5.262  18.362  0.00  0.00    +0.000 N 
ATOM      2  C   UNL     1       3.753   4.214  19.194  0.00  0.00    +0.000 A 
ATOM      3  C   UNL     1       2.738   4.615  20.045  0.00  0.00    +0.000 A 
ATOM      4  C   UNL     1       2.452   5.977  19.721  0.00  0.00    +0.000 A 
ATOM      5  C   UNL     1       1.580   6.967  20.209  0.00  0.00    +0.000 A 
ATOM      6  N   UNL     1       0.735   6.800  21.285  0.00  0.00    +0.000 N 
ATOM      7  N   UNL     1       1.582   8.179  19.622  0.00  0.00    +0.000 NA
ATOM      8  C   UNL     1       2.416   8.389  18.590  0.00  0.00    +0.000 A 
ATOM      9  N   UNL     1       3.286   7.526  18.044  0.00  0.00    +0.000 NA
ATOM     10  C   UNL     1       3.274   6.333  18.658  0.00  0.00    +0.000 A 
ATOM     11  H   UNL     1       0.483   5.879  21.608  0.00  0.00    +0.000 HD
ATOM     12  H   UNL     1       0.065   7.548  21.400  0.00  0.00    +0.000 HD
ENDROOT
BRANCH   1  16
ATOM     13  C   UNL     1       7.158   6.377  16.866  0.00  0.00    +0.000 C 
ATOM     14  C   UNL     1       7.369   5.270  17.907  0.00  0.00    +0.000 C 
ATOM     15  O   UNL     1       6.213   4.410  17.831  0.00  0.00    +0.000 OA
ATOM     16  C   UNL     1       5.093   5.159  17.297  0.00  0.00    +0.000 C 
ATOM     17  C   UNL     1       5.636   6.469  16.712  0.00  0.00    +0.000 C 
BRANCH  13  19
ATOM     18  C   UNL     1       8.174   8.845  17.791  0.00  0.00    +0.000 C 
ATOM     19  C   UNL     1       7.705   7.705  17.364  0.00  0.00    +0.000 C 
ENDBRANCH  13  19
BRANCH  13  20
ATOM     20  O   UNL     1       7.743   6.032  15.605  0.00  0.00    +0.000 OA
ATOM     21  H   UNL     1       8.184   5.172  15.723  0.00  0.00    +0.000 HD
ENDBRANCH  13  20
BRANCH  17  22
ATOM     22  O   UNL     1       5.260   6.620  15.330  0.00  0.00    +0.000 OA
ATOM     23  H   UNL     1       5.874   7.288  14.961  0.00  0.00    +0.000 HD
ENDBRANCH  17  22
BRANCH  14  24
ATOM     24  C   UNL     1       7.526   5.763  19.362  0.00  0.00    +0.000 C 
BRANCH  24  25
ATOM     25  O   UNL     1       8.629   5.128  20.001  0.00  0.00    +0.000 OA
ATOM     26  H   UNL     1       9.432   5.594  19.700  0.00  0.00    +0.000 HD
ENDBRANCH  24  25
ENDBRANCH  14  24
ENDBRANCH   1  16
BRANCH   3  27
ATOM     27  C   UNL     1       2.055   3.797  21.079  0.00  0.00    +0.000 C 
ATOM     28  F   UNL     1       2.323   4.231  22.337  0.00  0.00    +0.000 F 
ATOM     29  F   UNL     1       0.704   3.808  20.938  0.00  0.00    +0.000 F 
ATOM     30  F   UNL     1       2.441   2.497  21.021  0.00  0.00    +0.000 F 
ENDBRANCH   3  27
TORSDOF 7
ENDMDL
MODEL 3
REMARK VINA RESULT:      -7.4      1.179      1.179
REMARK  Name = 
REMARK  7 active torsions:
REMARK  status: ('A' for Active; 'I' for Inactive)
REMARK    1  A    between atoms: C_2  and  C_3
REMARK    2  A    between atoms: C_3  and  O_4
REMARK    3  A    between atoms: C_5  and  C_6
REMARK    4  A    between atoms: C_6  and  O_7
REMARK    5  A    between atoms: C_9  and  N_10
REMARK    6  A    between atoms: C_12  and  C_13
REMARK    7  A    between atoms: C_24  and  O_25
REMARK                            x       y       z     vdW  Elec       q    Type
REMARK                         _______ _______ _______ _____ _____    ______ ____
ROOT
ATOM      1  N   UNL     1       4.393   4.694  18.447  0.00  0.00    +0.000 N 
ATOM      2  C   UNL     1       3.481   5.696  18.706  0.00  0.00    +0.000 A 
ATOM      3  C   UNL     1       2.728   5.350  19.814  0.00  0.00    +0.000 A 
ATOM      4  C   UNL     1       3.197   4.071  20.241  0.00  0.00    +0.000 A 
ATOM      5  C   UNL     1       2.855   3.158  21.255  0.00  0.00    +0.000 A 
ATOM      6  N   UNL     1       1.814   3.333  22.141  0.00  0.00    +0.000 N 
ATOM      7  N   UNL     1       3.557   2.014  21.362  0.00  0.00    +0.000 NA
ATOM      8  C   UNL     1       4.560   1.796  20.495  0.00  0.00    +0.000 A 
ATOM      9  N   UNL     1       4.972   2.588  19.494  0.00  0.00    +0.000 NA
ATOM     10  C   UNL     1       4.246   3.712  19.401  0.00  0.00    +0.000 A 
ATOM     11  H   UNL     1       1.415   4.245  22.300  0.00  0.00    +0.000 HD
ATOM     12  H   UNL     1       1.807   2.668  22.902  0.00  0.00    +0.000 HD
ENDROOT
BRANCH   1  16
ATOM     13  C   UNL     1       7.216   6.316  16.929  0.00  0.00    +0.000 C 
ATOM     14  C   UNL     1       7.621   5.254  17.962  0.00  0.00    +0.000 C 
ATOM     15  O   UNL     1       6.625   4.212  17.891  0.00  0.00    +0.000 OA
ATOM     16  C   UNL     1       5.389   4.766  17.372  0.00  0.00    +0.000 C 
ATOM     17  C   UNL     1       5.699   6.151  16.790  0.00  0.00    +0.000 C 
BRANCH  13  19
ATOM     18  C   UNL     1       7.812   8.914  17.861  0.00  0.00    +0.000 C 
ATOM     19  C   UNL     1       7.537   7.714  17.431  0.00  0.00    +0.000 C 
ENDBRANCH  13  19
BRANCH  13  20
ATOM     20  O   UNL     1       7.838   6.080  15.661  0.00  0.00    +0.000 OA
ATOM     21  H   UNL     1       8.337   6.885  15.436  0.00  0.00    +0.000 HD
ENDBRANCH  13  20
BRANCH  17  22
ATOM     22  O   UNL     1       5.288   6.243  15.413  0.00  0.00    +0.000 OA
ATOM     23  H   UNL     1       5.041   7.181  15.274  0.00  0.00    +0.000 HD
ENDBRANCH  17  22
BRANCH  14  24
ATOM     24  C   UNL     1       7.708   5.760  19.418  0.00  0.00    +0.000 C 
BRANCH  24  25
ATOM     25  O   UNL     1       8.758   5.107  20.124  0.00  0.00    +0.000 OA
ATOM     26  H   UNL     1       9.435   5.786  20.310  0.00  0.00    +0.000 HD
ENDBRANCH  24  25
ENDBRANCH  14  24
ENDBRANCH   1  16
BRANCH   3  27
ATOM     27  C   UNL     1       1.655   6.151  20.458  0.00  0.00    +0.000 C 
ATOM     28  F   UNL     1       1.406   7.307  19.792  0.00  0.00    +0.000 F 
ATOM     29  F   UNL     1       0.478   5.477  20.530  0.00  0.00    +0.000 F 
ATOM     30  F   UNL     1       1.985   6.493  21.731  0.00  0.00    +0.000 F 
ENDBRANCH   3  27
TORSDOF 7
ENDMDL
MODEL 4
REMARK VINA RESULT:      -6.9      1.787      2.786
REMARK  Name = 
REMARK  7 active torsions:
REMARK  status: ('A' for Active; 'I' for Inactive)
REMARK    1  A    between atoms: C_2  and  C_3
REMARK    2  A    between atoms: C_3  and  O_4
REMARK    3  A    between atoms: C_5  and  C_6
REMARK    4  A    between atoms: C_6  and  O_7
REMARK    5  A    between atoms: C_9  and  N_10
REMARK    6  A    between atoms: C_12  and  C_13
REMARK    7  A    between atoms: C_24  and  O_25
REMARK                            x       y       z     vdW  Elec       q    Type
REMARK                         _______ _______ _______ _____ _____    ______ ____
ROOT
ATOM      1  N   UNL     1       4.155   4.568  17.857  0.00  0.00    +0.000 N 
ATOM      2  C   UNL     1       3.621   3.375  18.298  0.00  0.00    +0.000 A 
ATOM      3  C   UNL     1       2.571   3.637  19.160  0.00  0.00    +0.000 A 
ATOM      4  C   UNL     1       2.470   5.059  19.257  0.00  0.00    +0.000 A 
ATOM      5  C   UNL     1       1.665   5.967  19.967  0.00  0.00    +0.000 A 
ATOM      6  N   UNL     1       0.697   5.602  20.878  0.00  0.00    +0.000 N 
ATOM      7  N   UNL     1       1.861   7.287  19.787  0.00  0.00    +0.000 NA
ATOM      8  C   UNL     1       2.818   7.680  18.930  0.00  0.00    +0.000 A 
ATOM      9  N   UNL     1       3.642   6.910  18.204  0.00  0.00    +0.000 NA
ATOM     10  C   UNL     1       3.436   5.602  18.415  0.00  0.00    +0.000 A 
ATOM     11  H   UNL     1       0.313   4.670  20.882  0.00  0.00    +0.000 HD
ATOM     12  H   UNL     1       0.104   6.365  21.174  0.00  0.00    +0.000 HD
ENDROOT
BRANCH   1  16
ATOM     13  C   UNL     1       7.147   6.167  16.675  0.00  0.00    +0.000 C 
ATOM     14  C   UNL     1       7.427   5.057  17.698  0.00  0.00    +0.000 C 
ATOM     15  O   UNL     1       6.418   4.047  17.493  0.00  0.00    +0.000 OA
ATOM     16  C   UNL     1       5.250   4.653  16.884  0.00  0.00    +0.000 C 
ATOM     17  C   UNL     1       5.646   6.049  16.389  0.00  0.00    +0.000 C 
BRANCH  13  19
ATOM     18  C   UNL     1       7.714   8.712  17.760  0.00  0.00    +0.000 C 
ATOM     19  C   UNL     1       7.452   7.537  17.259  0.00  0.00    +0.000 C 
ENDBRANCH  13  19
BRANCH  13  20
ATOM     20  O   UNL     1       7.880   5.962  15.462  0.00  0.00    +0.000 OA
ATOM     21  H   UNL     1       8.695   6.489  15.531  0.00  0.00    +0.000 HD
ENDBRANCH  13  20
BRANCH  17  22
ATOM     22  O   UNL     1       5.369   6.204  14.984  0.00  0.00    +0.000 OA
ATOM     23  H   UNL     1       5.617   7.127  14.767  0.00  0.00    +0.000 HD
ENDBRANCH  17  22
BRANCH  14  24
ATOM     24  C   UNL     1       7.388   5.506  19.175  0.00  0.00    +0.000 C 
BRANCH  24  25
ATOM     25  O   UNL     1       8.603   5.178  19.842  0.00  0.00    +0.000 OA
ATOM     26  H   UNL     1       8.379   5.048  20.783  0.00  0.00    +0.000 HD
ENDBRANCH  24  25
ENDBRANCH  14  24
ENDBRANCH   1  16
BRANCH   3  27
ATOM     27  C   UNL     1       1.696   2.648  19.841  0.00  0.00    +0.000 C 
ATOM     28  F   UNL     1       1.868   2.652  21.187  0.00  0.00    +0.000 F 
ATOM     29  F   UNL     1       0.377   2.879  19.611  0.00  0.00    +0.000 F 
ATOM     30  F   UNL     1       1.949   1.384  19.415  0.00  0.00    +0.000 F 
ENDBRANCH   3  27
TORSDOF 7
ENDMDL
MODEL 5
REMARK VINA RESULT:      -6.8      3.434      6.214
REMARK  Name = 
REMARK  7 active torsions:
REMARK  status: ('A' for Active; 'I' for Inactive)
REMARK    1  A    between atoms: C_2  and  C_3
REMARK    2  A    between atoms: C_3  and  O_4
REMARK    3  A    between atoms: C_5  and  C_6
REMARK    4  A    between atoms: C_6  and  O_7
REMARK    5  A    between atoms: C_9  and  N_10
REMARK    6  A    between atoms: C_12  and  C_13
REMARK    7  A    between atoms: C_24  and  O_25
REMARK                            x       y       z     vdW  Elec       q    Type
REMARK                         _______ _______ _______ _____ _____    ______ ____
ROOT
ATOM      1  N   UNL     1       4.616   3.532  17.288  0.00  0.00    +0.000 N 
ATOM      2  C   UNL     1       5.260   4.077  18.380  0.00  0.00    +0.000 A 
ATOM      3  C   UNL     1       6.285   4.897  17.942  0.00  0.00    +0.000 A 
ATOM      4  C   UNL     1       6.270   4.837  16.515  0.00  0.00    +0.000 A 
ATOM      5  C   UNL     1       7.041   5.387  15.475  0.00  0.00    +0.000 A 
ATOM      6  N   UNL     1       8.153   6.178  15.664  0.00  0.00    +0.000 N 
ATOM      7  N   UNL     1       6.706   5.106  14.201  0.00  0.00    +0.000 NA
ATOM      8  C   UNL     1       5.645   4.312  13.979  0.00  0.00    +0.000 A 
ATOM      9  N   UNL     1       4.844   3.734  14.885  0.00  0.00    +0.000 NA
ATOM     10  C   UNL     1       5.209   4.018  16.144  0.00  0.00    +0.000 A 
ATOM     11  H   UNL     1       8.317   6.641  16.544  0.00  0.00    +0.000 HD
ATOM     12  H   UNL     1       8.491   6.621  14.820  0.00  0.00    +0.000 HD
ENDROOT
BRANCH   1  16
ATOM     13  C   UNL     1       1.784   2.346  19.154  0.00  0.00    +0.000 C 
ATOM     14  C   UNL     1       1.460   3.573  18.290  0.00  0.00    +0.000 C 
ATOM     15  O   UNL     1       2.274   3.467  17.104  0.00  0.00    +0.000 OA
ATOM     16  C   UNL     1       3.442   2.658  17.395  0.00  0.00    +0.000 C 
ATOM     17  C   UNL     1       3.207   1.956  18.738  0.00  0.00    +0.000 C 
BRANCH  13  19
ATOM     18  C   UNL     1       1.737   2.999  21.901  0.00  0.00    +0.000 C 
ATOM     19  C   UNL     1       1.759   2.697  20.632  0.00  0.00    +0.000 C 
ENDBRANCH  13  19
BRANCH  13  20
ATOM     20  O   UNL     1       0.894   1.259  18.879  0.00  0.00    +0.000 OA
ATOM     21  H   UNL     1       1.227   0.488  19.373  0.00  0.00    +0.000 HD
ENDBRANCH  13  20
BRANCH  17  22
ATOM     22  O   UNL     1       3.340   0.528  18.611  0.00  0.00    +0.000 OA
ATOM     23  H   UNL     1       3.681   0.216  19.476  0.00  0.00    +0.000 HD
ENDBRANCH  17  22
BRANCH  14  24
ATOM     24  C   UNL     1       1.736   4.936  18.963  0.00  0.00    +0.000 C 
BRANCH  24  25
ATOM     25  O   UNL     1       2.220   5.884  18.017  0.00  0.00    +0.000 OA
ATOM     26  H   UNL     1       2.980   6.333  18.435  0.00  0.00    +0.000 HD
ENDBRANCH  24  25
ENDBRANCH  14  24
ENDBRANCH   1  16
BRANCH   3  27
ATOM     27  C   UNL     1       7.211   5.704  18.776  0.00  0.00    +0.000 C 
ATOM     28  F   UNL     1       7.265   7.000  18.377  0.00  0.00    +0.000 F 
ATOM     29  F   UNL     1       6.854   5.710  20.087  0.00  0.00    +0.000 F 
ATOM     30  F   UNL     1       8.479   5.222  18.721  0.00  0.00    +0.000 F 
ENDBRANCH   3  27
TORSDOF 7
ENDMDL
MODEL 6
REMARK VINA RESULT:      -6.4      3.642      6.205
REMARK  Name = 
REMARK  7 active torsions:
REMARK  status: ('A' for Active; 'I' for Inactive)
REMARK    1  A    between atoms: C_2  and  C_3
REMARK    2  A    between atoms: C_3  and  O_4
REMARK    3  A    between atoms: C_5  and  C_6
REMARK    4  A    between atoms: C_6  and  O_7
REMARK    5  A    between atoms: C_9  and  N_10
REMARK    6  A    between atoms: C_12  and  C_13
REMARK    7  A    between atoms: C_24  and  O_25
REMARK                            x       y       z     vdW  Elec       q    Type
REMARK                         _______ _______ _______ _____ _____    ______ ____
ROOT
ATOM      1  N   UNL     1       4.176   4.131  17.263  0.00  0.00    +0.000 N 
ATOM      2  C   UNL     1       4.995   4.550  18.291  0.00  0.00    +0.000 A 
ATOM      3  C   UNL     1       6.218   4.936  17.770  0.00  0.00    +0.000 A 
ATOM      4  C   UNL     1       6.143   4.729  16.359  0.00  0.00    +0.000 A 
ATOM      5  C   UNL     1       7.019   4.879  15.270  0.00  0.00    +0.000 A 
ATOM      6  N   UNL     1       8.334   5.276  15.377  0.00  0.00    +0.000 N 
ATOM      7  N   UNL     1       6.573   4.585  14.033  0.00  0.00    +0.000 NA
ATOM      8  C   UNL     1       5.305   4.163  13.894  0.00  0.00    +0.000 A 
ATOM      9  N   UNL     1       4.386   3.982  14.854  0.00  0.00    +0.000 NA
ATOM     10  C   UNL     1       4.861   4.267  16.075  0.00  0.00    +0.000 A 
ATOM     11  H   UNL     1       8.666   5.754  16.200  0.00  0.00    +0.000 HD
ATOM     12  H   UNL     1       8.772   5.489  14.490  0.00  0.00    +0.000 HD
ENDROOT
BRANCH   1  16
ATOM     13  C   UNL     1       1.456   3.321  19.464  0.00  0.00    +0.000 C 
ATOM     14  C   UNL     1       1.515   4.814  19.111  0.00  0.00    +0.000 C 
ATOM     15  O   UNL     1       2.011   4.897  17.759  0.00  0.00    +0.000 OA
ATOM     16  C   UNL     1       2.785   3.708  17.459  0.00  0.00    +0.000 C 
ATOM     17  C   UNL     1       2.512   2.675  18.560  0.00  0.00    +0.000 C 
BRANCH  13  19
ATOM     18  C   UNL     1       2.127   2.893  22.173  0.00  0.00    +0.000 C 
ATOM     19  C   UNL     1       1.817   3.090  20.922  0.00  0.00    +0.000 C 
ENDBRANCH  13  19
BRANCH  13  20
ATOM     20  O   UNL     1       0.171   2.761  19.168  0.00  0.00    +0.000 OA
ATOM     21  H   UNL     1       0.304   1.806  19.027  0.00  0.00    +0.000 HD
ENDBRANCH  13  20
BRANCH  17  22
ATOM     22  O   UNL     1       2.037   1.435  18.006  0.00  0.00    +0.000 OA
ATOM     23  H   UNL     1       1.921   0.832  18.771  0.00  0.00    +0.000 HD
ENDBRANCH  17  22
BRANCH  14  24
ATOM     24  C   UNL     1       2.422   5.665  20.026  0.00  0.00    +0.000 C 
BRANCH  24  25
ATOM     25  O   UNL     1       1.655   6.591  20.789  0.00  0.00    +0.000 OA
ATOM     26  H   UNL     1       0.811   6.714  20.313  0.00  0.00    +0.000 HD
ENDBRANCH  24  25
ENDBRANCH  14  24
ENDBRANCH   1  16
BRANCH   3  27
ATOM     27  C   UNL     1       7.382   5.481  18.515  0.00  0.00    +0.000 C 
ATOM     28  F   UNL     1       8.458   4.656  18.462  0.00  0.00    +0.000 F 
ATOM     29  F   UNL     1       7.785   6.686  18.035  0.00  0.00    +0.000 F 
ATOM     30  F   UNL     1       7.091   5.665  19.829  0.00  0.00    +0.000 F 
ENDBRANCH   3  27
TORSDOF 7
ENDMDL
MODEL 7
REMARK VINA RESULT:      -6.3      4.100      6.543
REMARK  Name = 
REMARK  7 active torsions:
REMARK  status: ('A' for Active; 'I' for Inactive)
REMARK    1  A    between atoms: C_2  and  C_3
REMARK    2  A    between atoms: C_3  and  O_4
REMARK    3  A    between atoms: C_5  and  C_6
REMARK    4  A    between atoms: C_6  and  O_7
REMARK    5  A    between atoms: C_9  and  N_10
REMARK    6  A    between atoms: C_12  and  C_13
REMARK    7  A    between atoms: C_24  and  O_25
REMARK                            x       y       z     vdW  Elec       q    Type
REMARK                         _______ _______ _______ _____ _____    ______ ____
ROOT
ATOM      1  N   UNL     1       4.386   3.459  16.821  0.00  0.00    +0.000 N 
ATOM      2  C   UNL     1       4.853   3.568  15.528  0.00  0.00    +0.000 A 
ATOM      3  C   UNL     1       5.895   4.479  15.496  0.00  0.00    +0.000 A 
ATOM      4  C   UNL     1       6.059   4.955  16.832  0.00  0.00    +0.000 A 
ATOM      5  C   UNL     1       6.890   5.890  17.474  0.00  0.00    +0.000 A 
ATOM      6  N   UNL     1       7.819   6.678  16.829  0.00  0.00    +0.000 N 
ATOM      7  N   UNL     1       6.761   6.069  18.803  0.00  0.00    +0.000 NA
ATOM      8  C   UNL     1       5.843   5.340  19.459  0.00  0.00    +0.000 A 
ATOM      9  N   UNL     1       5.000   4.426  18.955  0.00  0.00    +0.000 NA
ATOM     10  C   UNL     1       5.140   4.280  17.629  0.00  0.00    +0.000 A 
ATOM     11  H   UNL     1       8.159   6.435  15.912  0.00  0.00    +0.000 HD
ATOM     12  H   UNL     1       8.441   7.174  17.454  0.00  0.00    +0.000 HD
ENDROOT
BRANCH   1  16
ATOM     13  C   UNL     1       1.996   2.334  19.256  0.00  0.00    +0.000 C 
ATOM     14  C   UNL     1       1.438   3.425  18.331  0.00  0.00    +0.000 C 
ATOM     15  O   UNL     1       2.058   3.227  17.043  0.00  0.00    +0.000 OA
ATOM     16  C   UNL     1       3.319   2.533  17.219  0.00  0.00    +0.000 C 
ATOM     17  C   UNL     1       3.360   1.985  18.651  0.00  0.00    +0.000 C 
BRANCH  13  19
ATOM     18  C   UNL     1       2.337   3.309  21.884  0.00  0.00    +0.000 C 
ATOM     19  C   UNL     1       2.179   2.859  20.670  0.00  0.00    +0.000 C 
ENDBRANCH  13  19
BRANCH  13  20
ATOM     20  O   UNL     1       1.164   1.168  19.255  0.00  0.00    +0.000 OA
ATOM     21  H   UNL     1       1.745   0.405  19.427  0.00  0.00    +0.000 HD
ENDBRANCH  13  20
BRANCH  17  22
ATOM     22  O   UNL     1       3.586   0.563  18.660  0.00  0.00    +0.000 OA
ATOM     23  H   UNL     1       4.158   0.391  19.438  0.00  0.00    +0.000 HD
ENDBRANCH  17  22
BRANCH  14  24
ATOM     24  C   UNL     1       1.707   4.873  18.794  0.00  0.00    +0.000 C 
BRANCH  24  25
ATOM     25  O   UNL     1       2.126   5.690  17.705  0.00  0.00    +0.000 OA
ATOM     26  H   UNL     1       2.042   6.616  18.002  0.00  0.00    +0.000 HD
ENDBRANCH  24  25
ENDBRANCH  14  24
ENDBRANCH   1  16
BRANCH   3  27
ATOM     27  C   UNL     1       6.706   4.877  14.317  0.00  0.00    +0.000 C 
ATOM     28  F   UNL     1       6.472   6.160  13.941  0.00  0.00    +0.000 F 
ATOM     29  F   UNL     1       8.041   4.771  14.548  0.00  0.00    +0.000 F 
ATOM     30  F   UNL     1       6.436   4.095  13.240  0.00  0.00    +0.000 F 
ENDBRANCH   3  27
TORSDOF 7
ENDMDL
MODEL 8
REMARK VINA RESULT:      -5.9      4.024      5.984
REMARK  Name = 
REMARK  7 active torsions:
REMARK  status: ('A' for Active; 'I' for Inactive)
REMARK    1  A    between atoms: C_2  and  C_3
REMARK    2  A    between atoms: C_3  and  O_4
REMARK    3  A    between atoms: C_5  and  C_6
REMARK    4  A    between atoms: C_6  and  O_7
REMARK    5  A    between atoms: C_9  and  N_10
REMARK    6  A    between atoms: C_12  and  C_13
REMARK    7  A    between atoms: C_24  and  O_25
REMARK                            x       y       z     vdW  Elec       q    Type
REMARK                         _______ _______ _______ _____ _____    ______ ____
ROOT
ATOM      1  N   UNL     1       2.381   7.047  19.098  0.00  0.00    +0.000 N 
ATOM      2  C   UNL     1       1.661   6.160  19.871  0.00  0.00    +0.000 A 
ATOM      3  C   UNL     1       1.992   4.866  19.507  0.00  0.00    +0.000 A 
ATOM      4  C   UNL     1       2.951   4.973  18.454  0.00  0.00    +0.000 A 
ATOM      5  C   UNL     1       3.652   4.072  17.634  0.00  0.00    +0.000 A 
ATOM      6  N   UNL     1       3.494   2.704  17.667  0.00  0.00    +0.000 N 
ATOM      7  N   UNL     1       4.517   4.560  16.723  0.00  0.00    +0.000 NA
ATOM      8  C   UNL     1       4.673   5.892  16.641  0.00  0.00    +0.000 A 
ATOM      9  N   UNL     1       4.061   6.841  17.365  0.00  0.00    +0.000 NA
ATOM     10  C   UNL     1       3.196   6.328  18.251  0.00  0.00    +0.000 A 
ATOM     11  H   UNL     1       3.082   2.248  18.466  0.00  0.00    +0.000 HD
ATOM     12  H   UNL     1       4.187   2.197  17.133  0.00  0.00    +0.000 HD
ENDROOT
BRANCH   1  16
ATOM     13  C   UNL     1       0.458  10.080  19.168  0.00  0.00    +0.000 C 
ATOM     14  C   UNL     1       0.536   9.390  20.537  0.00  0.00    +0.000 C 
ATOM     15  O   UNL     1       1.834   8.763  20.607  0.00  0.00    +0.000 OA
ATOM     16  C   UNL     1       2.313   8.503  19.264  0.00  0.00    +0.000 C 
ATOM     17  C   UNL     1       1.425   9.282  18.286  0.00  0.00    +0.000 C 
BRANCH  13  19
ATOM     18  C   UNL     1      -2.153   9.928  18.104  0.00  0.00    +0.000 C 
ATOM     19  C   UNL     1      -0.947   9.998  18.595  0.00  0.00    +0.000 C 
ENDBRANCH  13  19
BRANCH  13  20
ATOM     20  O   UNL     1       0.895  11.443  19.240  0.00  0.00    +0.000 OA
ATOM     21  H   UNL     1       1.034  11.744  18.324  0.00  0.00    +0.000 HD
ENDBRANCH  13  20
BRANCH  17  22
ATOM     22  O   UNL     1       2.208  10.154  17.450  0.00  0.00    +0.000 OA
ATOM     23  H   UNL     1       2.298   9.687  16.592  0.00  0.00    +0.000 HD
ENDBRANCH  17  22
BRANCH  14  24
ATOM     24  C   UNL     1      -0.547   8.320  20.791  0.00  0.00    +0.000 C 
BRANCH  24  25
ATOM     25  O   UNL     1      -0.792   8.160  22.185  0.00  0.00    +0.000 OA
ATOM     26  H   UNL     1      -0.224   7.425  22.486  0.00  0.00    +0.000 HD
ENDBRANCH  24  25
ENDBRANCH  14  24
ENDBRANCH   1  16
BRANCH   3  27
ATOM     27  C   UNL     1       1.478   3.605  20.100  0.00  0.00    +0.000 C 
ATOM     28  F   UNL     1       0.713   2.901  19.228  0.00  0.00    +0.000 F 
ATOM     29  F   UNL     1       2.477   2.778  20.504  0.00  0.00    +0.000 F 
ATOM     30  F   UNL     1       0.708   3.846  21.193  0.00  0.00    +0.000 F 
ENDBRANCH   3  27
TORSDOF 7
ENDMDL
MODEL 9
REMARK VINA RESULT:      -5.9      2.939      4.641
REMARK  Name = 
REMARK  7 active torsions:
REMARK  status: ('A' for Active; 'I' for Inactive)
REMARK    1  A    between atoms: C_2  and  C_3
REMARK    2  A    between atoms: C_3  and  O_4
REMARK    3  A    between atoms: C_5  and  C_6
REMARK    4  A    between atoms: C_6  and  O_7
REMARK    5  A    between atoms: C_9  and  N_10
REMARK    6  A    between atoms: C_12  and  C_13
REMARK    7  A    between atoms: C_24  and  O_25
REMARK                            x       y       z     vdW  Elec       q    Type
REMARK                         _______ _______ _______ _____ _____    ______ ____
ROOT
ATOM      1  N   UNL     1       2.082   5.982  19.782  0.00  0.00    +0.000 N 
ATOM      2  C   UNL     1       1.360   6.454  20.858  0.00  0.00    +0.000 A 
ATOM      3  C   UNL     1       1.122   7.807  20.689  0.00  0.00    +0.000 A 
ATOM      4  C   UNL     1       1.740   8.177  19.455  0.00  0.00    +0.000 A 
ATOM      5  C   UNL     1       1.902   9.368  18.726  0.00  0.00    +0.000 A 
ATOM      6  N   UNL     1       1.464  10.605  19.148  0.00  0.00    +0.000 N 
ATOM      7  N   UNL     1       2.558   9.325  17.551  0.00  0.00    +0.000 NA
ATOM      8  C   UNL     1       3.027   8.141  17.123  0.00  0.00    +0.000 A 
ATOM      9  N   UNL     1       2.934   6.949  17.730  0.00  0.00    +0.000 NA
ATOM     10  C   UNL     1       2.290   7.024  18.905  0.00  0.00    +0.000 A 
ATOM     11  H   UNL     1       0.757  10.690  19.861  0.00  0.00    +0.000 HD
ATOM     12  H   UNL     1       1.515  11.322  18.437  0.00  0.00    +0.000 HD
ENDROOT
BRANCH   1  16
ATOM     13  C   UNL     1       4.036   3.460  18.131  0.00  0.00    +0.000 C 
ATOM     14  C   UNL     1       4.744   4.059  19.355  0.00  0.00    +0.000 C 
ATOM     15  O   UNL     1       3.712   4.374  20.312  0.00  0.00    +0.000 OA
ATOM     16  C   UNL     1       2.456   4.573  19.615  0.00  0.00    +0.000 C 
ATOM     17  C   UNL     1       2.624   4.054  18.181  0.00  0.00    +0.000 C 
BRANCH  13  19
ATOM     18  C   UNL     1       5.316   4.239  15.738  0.00  0.00    +0.000 C 
ATOM     19  C   UNL     1       4.725   3.879  16.843  0.00  0.00    +0.000 C 
ENDBRANCH  13  19
BRANCH  13  20
ATOM     20  O   UNL     1       3.954   2.032  18.217  0.00  0.00    +0.000 OA
ATOM     21  H   UNL     1       3.869   1.810  19.162  0.00  0.00    +0.000 HD
ENDBRANCH  13  20
BRANCH  17  22
ATOM     22  O   UNL     1       1.630   3.063  17.864  0.00  0.00    +0.000 OA
ATOM     23  H   UNL     1       2.064   2.442  17.242  0.00  0.00    +0.000 HD
ENDBRANCH  17  22
BRANCH  14  24
ATOM     24  C   UNL     1       5.567   5.334  19.073  0.00  0.00    +0.000 C 
BRANCH  24  25
ATOM     25  O   UNL     1       6.790   5.325  19.802  0.00  0.00    +0.000 OA
ATOM     26  H   UNL     1       7.267   4.516  19.538  0.00  0.00    +0.000 HD
ENDBRANCH  24  25
ENDBRANCH  14  24
ENDBRANCH   1  16
BRANCH   3  27
ATOM     27  C   UNL     1       0.357   8.706  21.590  0.00  0.00    +0.000 C 
ATOM     28  F   UNL     1      -0.555   9.454  20.918  0.00  0.00    +0.000 F 
ATOM     29  F   UNL     1      -0.323   8.023  22.547  0.00  0.00    +0.000 F 
ATOM     30  F   UNL     1       1.175   9.573  22.240  0.00  0.00    +0.000 F 
ENDBRANCH   3  27
TORSDOF 7
ENDMDL
