MODEL 1
REMARK VINA RESULT:      -7.0      0.000      0.000
REMARK  Name = 
REMARK  15 active torsions:
REMARK  status: ('A' for Active; 'I' for Inactive)
REMARK    1  A    between atoms: C_1  and  C_2
REMARK    2  A    between atoms: C_2  and  O_3
REMARK    3  A    between atoms: O_3  and  C_4
REMARK    4  A    between atoms: C_7  and  N_8
REMARK    5  A    between atoms: C_9  and  C_11
REMARK    6  A    between atoms: C_11  and  N_12
REMARK    7  A    between atoms: N_12  and  C_13
REMARK    8  A    between atoms: C_14  and  C_16
REMARK    9  A    between atoms: C_16  and  S_17
REMARK   10  A    between atoms: S_17  and  C_18
REMARK   11  A    between atoms: C_18  and  C_19
REMARK   12  A    between atoms: C_23  and  C_24
REMARK   13  A    between atoms: C_27  and  O_28
REMARK   14  A    between atoms: O_28  and  C_29
REMARK   15  A    between atoms: C_29  and  C_30
REMARK                            x       y       z     vdW  Elec       q    Type
REMARK                         _______ _______ _______ _____ _____    ______ ____
ROOT
ATOM      1  N   UNL     1      -0.356   9.872  17.555  0.00  0.00    +0.000 N 
ATOM      2  C   UNL     1       0.671  10.448  18.285  0.00  0.00    +0.000 C 
ATOM      3  O   UNL     1       0.639  11.555  18.818  0.00  0.00    +0.000 OA
ATOM      4  H   UNL     1      -0.114   9.102  16.941  0.00  0.00    +0.000 HD
ENDROOT
BRANCH   1   8
ATOM      5  C   UNL     1      -4.203  11.608  17.126  0.00  0.00    +0.000 A 
ATOM      6  C   UNL     1      -3.636  11.452  18.395  0.00  0.00    +0.000 A 
ATOM      7  C   UNL     1      -2.380  10.863  18.553  0.00  0.00    +0.000 A 
ATOM      8  C   UNL     1      -1.666  10.396  17.449  0.00  0.00    +0.000 A 
ATOM      9  C   UNL     1      -2.285  10.437  16.197  0.00  0.00    +0.000 A 
ATOM     10  C   UNL     1      -3.557  11.022  16.027  0.00  0.00    +0.000 A 
BRANCH   5  11
ATOM     11  O   UNL     1      -5.352  12.332  16.927  0.00  0.00    +0.000 OA
BRANCH  11  13
ATOM     12  C   UNL     1      -6.911  11.059  18.237  0.00  0.00    +0.000 C 
ATOM     13  C   UNL     1      -6.246  12.408  18.044  0.00  0.00    +0.000 C 
ENDBRANCH  11  13
ENDBRANCH   5  11
BRANCH  10  14
ATOM     14  O   UNL     1      -3.992  10.987  14.725  0.00  0.00    +0.000 OA
BRANCH  14  15
ATOM     15  C   UNL     1      -3.388  10.031  13.853  0.00  0.00    +0.000 C 
ATOM     16  C   UNL     1      -4.332   9.803  12.682  0.00  0.00    +0.000 C 
ENDBRANCH  14  15
ENDBRANCH  10  14
ENDBRANCH   1   8
BRANCH   2  17
ATOM     17  C   UNL     1       1.963   9.630  18.311  0.00  0.00    +0.000 C 
BRANCH  17  18
ATOM     18  N   UNL     1       1.875   8.432  19.150  0.00  0.00    +0.000 N 
ATOM     19  C   UNL     1       1.260   8.569  20.465  0.00  0.00    +0.000 C 
ATOM     20  C   UNL     1       2.446   7.252  18.688  0.00  0.00    +0.000 C 
ATOM     21  O   UNL     1       3.040   7.225  17.608  0.00  0.00    +0.000 OA
BRANCH  20  22
ATOM     22  C   UNL     1       2.274   6.010  19.563  0.00  0.00    +0.000 C 
BRANCH  22  23
ATOM     23  S   UNL     1       2.627   4.468  18.679  0.00  0.00    +0.000 S 
BRANCH  23  24
ATOM     24  C   UNL     1       4.294   4.129  19.345  0.00  0.00    +0.000 C 
BRANCH  24  25
ATOM     25  C   UNL     1       5.313   4.245  18.245  0.00  0.00    +0.000 A 
ATOM     26  C   UNL     1       6.645   4.552  18.548  0.00  0.00    +0.000 A 
ATOM     27  C   UNL     1       7.567   4.763  17.524  0.00  0.00    +0.000 A 
ATOM     28  C   UNL     1       7.164   4.677  16.192  0.00  0.00    +0.000 A 
ATOM     29  C   UNL     1       5.838   4.368  15.869  0.00  0.00    +0.000 A 
ATOM     30  C   UNL     1       5.385   4.301  14.443  0.00  0.00    +0.000 C 
ATOM     31  C   UNL     1       4.921   4.142  16.902  0.00  0.00    +0.000 A 
ENDBRANCH  24  25
ENDBRANCH  23  24
ENDBRANCH  22  23
ENDBRANCH  20  22
ENDBRANCH  17  18
ENDBRANCH   2  17
TORSDOF 11
ENDMDL
MODEL 2
REMARK VINA RESULT:      -7.0      4.039      5.748
REMARK  Name = 
REMARK  15 active torsions:
REMARK  status: ('A' for Active; 'I' for Inactive)
REMARK    1  A    between atoms: C_1  and  C_2
REMARK    2  A    between atoms: C_2  and  O_3
REMARK    3  A    between atoms: O_3  and  C_4
REMARK    4  A    between atoms: C_7  and  N_8
REMARK    5  A    between atoms: C_9  and  C_11
REMARK    6  A    between atoms: C_11  and  N_12
REMARK    7  A    between atoms: N_12  and  C_13
REMARK    8  A    between atoms: C_14  and  C_16
REMARK    9  A    between atoms: C_16  and  S_17
REMARK   10  A    between atoms: S_17  and  C_18
REMARK   11  A    between atoms: C_18  and  C_19
REMARK   12  A    between atoms: C_23  and  C_24
REMARK   13  A    between atoms: C_27  and  O_28
REMARK   14  A    between atoms: O_28  and  C_29
REMARK   15  A    between atoms: C_29  and  C_30
REMARK                            x       y       z     vdW  Elec       q    Type
REMARK                         _______ _______ _______ _____ _____    ______ ____
ROOT
ATOM      1  N   UNL     1       2.503   6.198  20.487  0.00  0.00    +0.000 N 
ATOM      2  C   UNL     1       1.654   5.129  20.719  0.00  0.00    +0.000 C 
ATOM      3  O   UNL     1       0.426   5.160  20.649  0.00  0.00    +0.000 OA
ATOM      4  H   UNL     1       3.449   6.126  20.845  0.00  0.00    +0.000 HD
ENDROOT
BRANCH   1   8
ATOM      5  C   UNL     1       1.098   9.895  18.951  0.00  0.00    +0.000 A 
ATOM      6  C   UNL     1       1.871   9.046  18.152  0.00  0.00    +0.000 A 
ATOM      7  C   UNL     1       2.357   7.836  18.651  0.00  0.00    +0.000 A 
ATOM      8  C   UNL     1       2.103   7.452  19.967  0.00  0.00    +0.000 A 
ATOM      9  C   UNL     1       1.441   8.356  20.802  0.00  0.00    +0.000 A 
ATOM     10  C   UNL     1       0.951   9.584  20.312  0.00  0.00    +0.000 A 
BRANCH   5  11
ATOM     11  O   UNL     1       0.468  11.001  18.440  0.00  0.00    +0.000 OA
BRANCH  11  13
ATOM     12  C   UNL     1       0.195  13.272  19.173  0.00  0.00    +0.000 C 
ATOM     13  C   UNL     1       1.157  12.246  18.603  0.00  0.00    +0.000 C 
ENDBRANCH  11  13
ENDBRANCH   5  11
BRANCH  10  14
ATOM     14  O   UNL     1       0.312  10.328  21.273  0.00  0.00    +0.000 OA
BRANCH  14  15
ATOM     15  C   UNL     1      -0.203   9.635  22.410  0.00  0.00    +0.000 C 
ATOM     16  C   UNL     1      -1.092  10.597  23.183  0.00  0.00    +0.000 C 
ENDBRANCH  14  15
ENDBRANCH  10  14
ENDBRANCH   1   8
BRANCH   2  17
ATOM     17  C   UNL     1       2.355   3.857  21.195  0.00  0.00    +0.000 C 
BRANCH  17  18
ATOM     18  N   UNL     1       2.490   2.841  20.146  0.00  0.00    +0.000 N 
ATOM     19  C   UNL     1       1.292   2.111  19.752  0.00  0.00    +0.000 C 
ATOM     20  C   UNL     1       3.755   2.573  19.638  0.00  0.00    +0.000 C 
ATOM     21  O   UNL     1       4.746   3.157  20.084  0.00  0.00    +0.000 OA
BRANCH  20  22
ATOM     22  C   UNL     1       3.844   1.556  18.500  0.00  0.00    +0.000 C 
BRANCH  22  23
ATOM     23  S   UNL     1       3.330   2.236  16.901  0.00  0.00    +0.000 S 
BRANCH  23  24
ATOM     24  C   UNL     1       3.488   4.016  17.279  0.00  0.00    +0.000 C 
BRANCH  24  25
ATOM     25  C   UNL     1       4.769   4.547  16.697  0.00  0.00    +0.000 A 
ATOM     26  C   UNL     1       5.368   3.902  15.607  0.00  0.00    +0.000 A 
ATOM     27  C   UNL     1       6.608   4.330  15.133  0.00  0.00    +0.000 A 
ATOM     28  C   UNL     1       7.260   5.398  15.748  0.00  0.00    +0.000 A 
ATOM     29  C   UNL     1       6.676   6.057  16.835  0.00  0.00    +0.000 A 
ATOM     30  C   UNL     1       7.378   7.187  17.524  0.00  0.00    +0.000 C 
ATOM     31  C   UNL     1       5.425   5.632  17.296  0.00  0.00    +0.000 A 
ENDBRANCH  24  25
ENDBRANCH  23  24
ENDBRANCH  22  23
ENDBRANCH  20  22
ENDBRANCH  17  18
ENDBRANCH   2  17
TORSDOF 11
ENDMDL
MODEL 3
REMARK VINA RESULT:      -6.9      3.641     10.751
REMARK  Name = 
REMARK  15 active torsions:
REMARK  status: ('A' for Active; 'I' for Inactive)
REMARK    1  A    between atoms: C_1  and  C_2
REMARK    2  A    between atoms: C_2  and  O_3
REMARK    3  A    between atoms: O_3  and  C_4
REMARK    4  A    between atoms: C_7  and  N_8
REMARK    5  A    between atoms: C_9  and  C_11
REMARK    6  A    between atoms: C_11  and  N_12
REMARK    7  A    between atoms: N_12  and  C_13
REMARK    8  A    between atoms: C_14  and  C_16
REMARK    9  A    between atoms: C_16  and  S_17
REMARK   10  A    between atoms: S_17  and  C_18
REMARK   11  A    between atoms: C_18  and  C_19
REMARK   12  A    between atoms: C_23  and  C_24
REMARK   13  A    between atoms: C_27  and  O_28
REMARK   14  A    between atoms: O_28  and  C_29
REMARK   15  A    between atoms: C_29  and  C_30
REMARK                            x       y       z     vdW  Elec       q    Type
REMARK                         _______ _______ _______ _____ _____    ______ ____
ROOT
ATOM      1  N   UNL     1       2.310   7.601  19.225  0.00  0.00    +0.000 N 
ATOM      2  C   UNL     1       1.658   8.756  18.826  0.00  0.00    +0.000 C 
ATOM      3  O   UNL     1       1.683   9.240  17.696  0.00  0.00    +0.000 OA
ATOM      4  H   UNL     1       2.446   7.466  20.221  0.00  0.00    +0.000 HD
ENDROOT
BRANCH   1   8
ATOM      5  C   UNL     1       4.354   4.794  16.788  0.00  0.00    +0.000 A 
ATOM      6  C   UNL     1       4.748   6.136  16.803  0.00  0.00    +0.000 A 
ATOM      7  C   UNL     1       4.072   7.075  17.584  0.00  0.00    +0.000 A 
ATOM      8  C   UNL     1       2.970   6.702  18.355  0.00  0.00    +0.000 A 
ATOM      9  C   UNL     1       2.499   5.392  18.243  0.00  0.00    +0.000 A 
ATOM     10  C   UNL     1       3.170   4.436  17.451  0.00  0.00    +0.000 A 
BRANCH   5  11
ATOM     11  O   UNL     1       5.100   3.824  16.167  0.00  0.00    +0.000 OA
BRANCH  11  13
ATOM     12  C   UNL     1       6.167   3.919  14.018  0.00  0.00    +0.000 C 
ATOM     13  C   UNL     1       6.277   4.277  15.488  0.00  0.00    +0.000 C 
ENDBRANCH  11  13
ENDBRANCH   5  11
BRANCH  10  14
ATOM     14  O   UNL     1       2.571   3.201  17.481  0.00  0.00    +0.000 OA
BRANCH  14  15
ATOM     15  C   UNL     1       1.407   3.051  18.294  0.00  0.00    +0.000 C 
ATOM     16  C   UNL     1       1.724   2.042  19.387  0.00  0.00    +0.000 C 
ENDBRANCH  14  15
ENDBRANCH  10  14
ENDBRANCH   1   8
BRANCH   2  17
ATOM     17  C   UNL     1       0.946   9.502  19.955  0.00  0.00    +0.000 C 
BRANCH  17  18
ATOM     18  N   UNL     1       0.504  10.847  19.575  0.00  0.00    +0.000 N 
ATOM     19  C   UNL     1       1.451  11.943  19.742  0.00  0.00    +0.000 C 
ATOM     20  C   UNL     1      -0.807  11.022  19.151  0.00  0.00    +0.000 C 
ATOM     21  O   UNL     1      -1.590  10.070  19.125  0.00  0.00    +0.000 OA
BRANCH  20  22
ATOM     22  C   UNL     1      -1.207  12.427  18.700  0.00  0.00    +0.000 C 
BRANCH  22  23
ATOM     23  S   UNL     1      -1.783  13.471  20.065  0.00  0.00    +0.000 S 
BRANCH  23  24
ATOM     24  C   UNL     1      -3.476  12.810  20.240  0.00  0.00    +0.000 C 
BRANCH  24  25
ATOM     25  C   UNL     1      -3.869  12.798  21.692  0.00  0.00    +0.000 A 
ATOM     26  C   UNL     1      -2.925  12.473  22.675  0.00  0.00    +0.000 A 
ATOM     27  C   UNL     1      -3.312  12.359  24.009  0.00  0.00    +0.000 A 
ATOM     28  C   UNL     1      -4.643  12.561  24.370  0.00  0.00    +0.000 A 
ATOM     29  C   UNL     1      -5.600  12.891  23.404  0.00  0.00    +0.000 A 
ATOM     30  C   UNL     1      -7.039  13.083  23.772  0.00  0.00    +0.000 C 
ATOM     31  C   UNL     1      -5.202  13.019  22.068  0.00  0.00    +0.000 A 
ENDBRANCH  24  25
ENDBRANCH  23  24
ENDBRANCH  22  23
ENDBRANCH  20  22
ENDBRANCH  17  18
ENDBRANCH   2  17
TORSDOF 11
ENDMDL
MODEL 4
REMARK VINA RESULT:      -6.8      2.183      4.032
REMARK  Name = 
REMARK  15 active torsions:
REMARK  status: ('A' for Active; 'I' for Inactive)
REMARK    1  A    between atoms: C_1  and  C_2
REMARK    2  A    between atoms: C_2  and  O_3
REMARK    3  A    between atoms: O_3  and  C_4
REMARK    4  A    between atoms: C_7  and  N_8
REMARK    5  A    between atoms: C_9  and  C_11
REMARK    6  A    between atoms: C_11  and  N_12
REMARK    7  A    between atoms: N_12  and  C_13
REMARK    8  A    between atoms: C_14  and  C_16
REMARK    9  A    between atoms: C_16  and  S_17
REMARK   10  A    between atoms: S_17  and  C_18
REMARK   11  A    between atoms: C_18  and  C_19
REMARK   12  A    between atoms: C_23  and  C_24
REMARK   13  A    between atoms: C_27  and  O_28
REMARK   14  A    between atoms: O_28  and  C_29
REMARK   15  A    between atoms: C_29  and  C_30
REMARK                            x       y       z     vdW  Elec       q    Type
REMARK                         _______ _______ _______ _____ _____    ______ ____
ROOT
ATOM      1  N   UNL     1      -1.664  10.860  19.469  0.00  0.00    +0.000 N 
ATOM      2  C   UNL     1      -0.877  11.925  19.876  0.00  0.00    +0.000 C 
ATOM      3  O   UNL     1      -0.459  12.826  19.152  0.00  0.00    +0.000 OA
ATOM      4  H   UNL     1      -1.703  10.052  20.079  0.00  0.00    +0.000 HD
ENDROOT
BRANCH   1   8
ATOM      5  C   UNL     1      -3.586  10.361  15.720  0.00  0.00    +0.000 A 
ATOM      6  C   UNL     1      -2.319   9.814  15.942  0.00  0.00    +0.000 A 
ATOM      7  C   UNL     1      -1.665   9.987  17.163  0.00  0.00    +0.000 A 
ATOM      8  C   UNL     1      -2.251  10.731  18.188  0.00  0.00    +0.000 A 
ATOM      9  C   UNL     1      -3.458  11.383  17.923  0.00  0.00    +0.000 A 
ATOM     10  C   UNL     1      -4.124  11.221  16.690  0.00  0.00    +0.000 A 
BRANCH   5  11
ATOM     11  O   UNL     1      -4.320  10.065  14.599  0.00  0.00    +0.000 OA
BRANCH  11  13
ATOM     12  C   UNL     1      -4.558   9.872  12.216  0.00  0.00    +0.000 C 
ATOM     13  C   UNL     1      -3.583   9.971  13.374  0.00  0.00    +0.000 C 
ENDBRANCH  11  13
ENDBRANCH   5  11
BRANCH  10  14
ATOM     14  O   UNL     1      -5.303  11.922  16.623  0.00  0.00    +0.000 OA
BRANCH  14  15
ATOM     15  C   UNL     1      -5.851  12.412  17.846  0.00  0.00    +0.000 C 
ATOM     16  C   UNL     1      -6.712  13.624  17.523  0.00  0.00    +0.000 C 
ENDBRANCH  14  15
ENDBRANCH  10  14
ENDBRANCH   1   8
BRANCH   2  17
ATOM     17  C   UNL     1      -0.443  11.865  21.341  0.00  0.00    +0.000 C 
BRANCH  17  18
ATOM     18  N   UNL     1      -0.089  10.514  21.787  0.00  0.00    +0.000 N 
ATOM     19  C   UNL     1      -0.718  10.017  23.005  0.00  0.00    +0.000 C 
ATOM     20  C   UNL     1       0.876   9.811  21.078  0.00  0.00    +0.000 C 
ATOM     21  O   UNL     1       1.444  10.327  20.112  0.00  0.00    +0.000 OA
BRANCH  20  22
ATOM     22  C   UNL     1       1.168   8.382  21.536  0.00  0.00    +0.000 C 
BRANCH  22  23
ATOM     23  S   UNL     1       1.913   7.361  20.237  0.00  0.00    +0.000 S 
BRANCH  23  24
ATOM     24  C   UNL     1       1.557   5.709  20.928  0.00  0.00    +0.000 C 
BRANCH  24  25
ATOM     25  C   UNL     1       1.694   4.668  19.851  0.00  0.00    +0.000 A 
ATOM     26  C   UNL     1       0.914   3.505  19.892  0.00  0.00    +0.000 A 
ATOM     27  C   UNL     1       1.114   2.493  18.954  0.00  0.00    +0.000 A 
ATOM     28  C   UNL     1       2.098   2.631  17.976  0.00  0.00    +0.000 A 
ATOM     29  C   UNL     1       2.884   3.787  17.916  0.00  0.00    +0.000 A 
ATOM     30  C   UNL     1       3.964   3.937  16.889  0.00  0.00    +0.000 C 
ATOM     31  C   UNL     1       2.668   4.806  18.851  0.00  0.00    +0.000 A 
ENDBRANCH  24  25
ENDBRANCH  23  24
ENDBRANCH  22  23
ENDBRANCH  20  22
ENDBRANCH  17  18
ENDBRANCH   2  17
TORSDOF 11
ENDMDL
MODEL 5
REMARK VINA RESULT:      -6.7      5.433     10.123
REMARK  Name = 
REMARK  15 active torsions:
REMARK  status: ('A' for Active; 'I' for Inactive)
REMARK    1  A    between atoms: C_1  and  C_2
REMARK    2  A    between atoms: C_2  and  O_3
REMARK    3  A    between atoms: O_3  and  C_4
REMARK    4  A    between atoms: C_7  and  N_8
REMARK    5  A    between atoms: C_9  and  C_11
REMARK    6  A    between atoms: C_11  and  N_12
REMARK    7  A    between atoms: N_12  and  C_13
REMARK    8  A    between atoms: C_14  and  C_16
REMARK    9  A    between atoms: C_16  and  S_17
REMARK   10  A    between atoms: S_17  and  C_18
REMARK   11  A    between atoms: C_18  and  C_19
REMARK   12  A    between atoms: C_23  and  C_24
REMARK   13  A    between atoms: C_27  and  O_28
REMARK   14  A    between atoms: O_28  and  C_29
REMARK   15  A    between atoms: C_29  and  C_30
REMARK                            x       y       z     vdW  Elec       q    Type
REMARK                         _______ _______ _______ _____ _____    ______ ____
ROOT
ATOM      1  N   UNL     1       8.536   8.052  18.927  0.00  0.00    +0.000 N 
ATOM      2  C   UNL     1       7.839   7.239  18.049  0.00  0.00    +0.000 C 
ATOM      3  O   UNL     1       7.189   7.622  17.078  0.00  0.00    +0.000 OA
ATOM      4  H   UNL     1       8.786   7.657  19.827  0.00  0.00    +0.000 HD
ENDROOT
BRANCH   1   8
ATOM      5  C   UNL     1       9.059  12.246  18.564  0.00  0.00    +0.000 A 
ATOM      6  C   UNL     1       8.421  11.523  17.551  0.00  0.00    +0.000 A 
ATOM      7  C   UNL     1       8.260  10.140  17.647  0.00  0.00    +0.000 A 
ATOM      8  C   UNL     1       8.752   9.439  18.748  0.00  0.00    +0.000 A 
ATOM      9  C   UNL     1       9.499  10.140  19.698  0.00  0.00    +0.000 A 
ATOM     10  C   UNL     1       9.674  11.537  19.608  0.00  0.00    +0.000 A 
BRANCH   5  11
ATOM     11  O   UNL     1       9.080  13.618  18.576  0.00  0.00    +0.000 OA
BRANCH  11  13
ATOM     12  C   UNL     1       8.060  15.769  18.255  0.00  0.00    +0.000 C 
ATOM     13  C   UNL     1       7.881  14.267  18.136  0.00  0.00    +0.000 C 
ENDBRANCH  11  13
ENDBRANCH   5  11
BRANCH  10  14
ATOM     14  O   UNL     1      10.419  12.051  20.640  0.00  0.00    +0.000 OA
BRANCH  14  15
ATOM     15  C   UNL     1       9.797  13.018  21.486  0.00  0.00    +0.000 C 
ATOM     16  C   UNL     1       8.641  12.339  22.204  0.00  0.00    +0.000 C 
ENDBRANCH  14  15
ENDBRANCH  10  14
ENDBRANCH   1   8
BRANCH   2  17
ATOM     17  C   UNL     1       7.831   5.758  18.430  0.00  0.00    +0.000 C 
BRANCH  17  18
ATOM     18  N   UNL     1       6.693   5.020  17.873  0.00  0.00    +0.000 N 
ATOM     19  C   UNL     1       6.786   4.577  16.487  0.00  0.00    +0.000 C 
ATOM     20  C   UNL     1       5.562   4.848  18.661  0.00  0.00    +0.000 C 
ATOM     21  O   UNL     1       5.508   5.334  19.794  0.00  0.00    +0.000 OA
BRANCH  20  22
ATOM     22  C   UNL     1       4.425   4.017  18.068  0.00  0.00    +0.000 C 
BRANCH  22  23
ATOM     23  S   UNL     1       2.910   4.976  17.803  0.00  0.00    +0.000 S 
BRANCH  23  24
ATOM     24  C   UNL     1       3.627   6.656  17.811  0.00  0.00    +0.000 C 
BRANCH  24  25
ATOM     25  C   UNL     1       2.632   7.630  18.379  0.00  0.00    +0.000 A 
ATOM     26  C   UNL     1       2.162   8.693  17.598  0.00  0.00    +0.000 A 
ATOM     27  C   UNL     1       1.321   9.655  18.156  0.00  0.00    +0.000 A 
ATOM     28  C   UNL     1       0.951   9.567  19.497  0.00  0.00    +0.000 A 
ATOM     29  C   UNL     1       1.406   8.509  20.292  0.00  0.00    +0.000 A 
ATOM     30  C   UNL     1       1.039   8.416  21.741  0.00  0.00    +0.000 C 
ATOM     31  C   UNL     1       2.237   7.538  19.722  0.00  0.00    +0.000 A 
ENDBRANCH  24  25
ENDBRANCH  23  24
ENDBRANCH  22  23
ENDBRANCH  20  22
ENDBRANCH  17  18
ENDBRANCH   2  17
TORSDOF 11
ENDMDL
MODEL 6
REMARK VINA RESULT:      -6.6      3.447      5.728
REMARK  Name = 
REMARK  15 active torsions:
REMARK  status: ('A' for Active; 'I' for Inactive)
REMARK    1  A    between atoms: C_1  and  C_2
REMARK    2  A    between atoms: C_2  and  O_3
REMARK    3  A    between atoms: O_3  and  C_4
REMARK    4  A    between atoms: C_7  and  N_8
REMARK    5  A    between atoms: C_9  and  C_11
REMARK    6  A    between atoms: C_11  and  N_12
REMARK    7  A    between atoms: N_12  and  C_13
REMARK    8  A    between atoms: C_14  and  C_16
REMARK    9  A    between atoms: C_16  and  S_17
REMARK   10  A    between atoms: S_17  and  C_18
REMARK   11  A    between atoms: C_18  and  C_19
REMARK   12  A    between atoms: C_23  and  C_24
REMARK   13  A    between atoms: C_27  and  O_28
REMARK   14  A    between atoms: O_28  and  C_29
REMARK   15  A    between atoms: C_29  and  C_30
REMARK                            x       y       z     vdW  Elec       q    Type
REMARK                         _______ _______ _______ _____ _____    ______ ____
ROOT
ATOM      1  N   UNL     1       2.703   6.280  20.049  0.00  0.00    +0.000 N 
ATOM      2  C   UNL     1       2.185   4.998  20.146  0.00  0.00    +0.000 C 
ATOM      3  O   UNL     1       1.037   4.711  20.479  0.00  0.00    +0.000 OA
ATOM      4  H   UNL     1       3.712   6.373  20.046  0.00  0.00    +0.000 HD
ENDROOT
BRANCH   1   8
ATOM      5  C   UNL     1       0.612   9.958  20.363  0.00  0.00    +0.000 A 
ATOM      6  C   UNL     1       0.537   9.012  21.391  0.00  0.00    +0.000 A 
ATOM      7  C   UNL     1       1.202   7.789  21.292  0.00  0.00    +0.000 A 
ATOM      8  C   UNL     1       1.944   7.469  20.155  0.00  0.00    +0.000 A 
ATOM      9  C   UNL     1       1.916   8.358  19.077  0.00  0.00    +0.000 A 
ATOM     10  C   UNL     1       1.241   9.593  19.162  0.00  0.00    +0.000 A 
BRANCH   5  11
ATOM     11  O   UNL     1       0.112  11.227  20.505  0.00  0.00    +0.000 OA
BRANCH  11  13
ATOM     12  C   UNL     1      -1.623  11.852  18.965  0.00  0.00    +0.000 C 
ATOM     13  C   UNL     1      -1.308  11.361  20.366  0.00  0.00    +0.000 C 
ENDBRANCH  11  13
ENDBRANCH   5  11
BRANCH  10  14
ATOM     14  O   UNL     1       1.342  10.338  18.013  0.00  0.00    +0.000 OA
BRANCH  14  15
ATOM     15  C   UNL     1       2.516  11.132  17.842  0.00  0.00    +0.000 C 
ATOM     16  C   UNL     1       2.159  12.574  18.167  0.00  0.00    +0.000 C 
ENDBRANCH  14  15
ENDBRANCH  10  14
ENDBRANCH   1   8
BRANCH   2  17
ATOM     17  C   UNL     1       3.205   3.886  19.902  0.00  0.00    +0.000 C 
BRANCH  17  18
ATOM     18  N   UNL     1       3.540   3.704  18.486  0.00  0.00    +0.000 N 
ATOM     19  C   UNL     1       2.466   3.310  17.582  0.00  0.00    +0.000 C 
ATOM     20  C   UNL     1       4.865   3.841  18.093  0.00  0.00    +0.000 C 
ATOM     21  O   UNL     1       5.744   4.079  18.924  0.00  0.00    +0.000 OA
BRANCH  20  22
ATOM     22  C   UNL     1       5.161   3.710  16.599  0.00  0.00    +0.000 C 
BRANCH  22  23
ATOM     23  S   UNL     1       5.421   5.309  15.786  0.00  0.00    +0.000 S 
BRANCH  23  24
ATOM     24  C   UNL     1       6.795   4.848  14.674  0.00  0.00    +0.000 C 
BRANCH  24  25
ATOM     25  C   UNL     1       6.253   4.130  13.469  0.00  0.00    +0.000 A 
ATOM     26  C   UNL     1       4.880   4.153  13.192  0.00  0.00    +0.000 A 
ATOM     27  C   UNL     1       4.365   3.402  12.137  0.00  0.00    +0.000 A 
ATOM     28  C   UNL     1       5.213   2.618  11.357  0.00  0.00    +0.000 A 
ATOM     29  C   UNL     1       6.588   2.584  11.615  0.00  0.00    +0.000 A 
ATOM     30  C   UNL     1       7.508   1.724  10.804  0.00  0.00    +0.000 C 
ATOM     31  C   UNL     1       7.102   3.352  12.667  0.00  0.00    +0.000 A 
ENDBRANCH  24  25
ENDBRANCH  23  24
ENDBRANCH  22  23
ENDBRANCH  20  22
ENDBRANCH  17  18
ENDBRANCH   2  17
TORSDOF 11
ENDMDL
MODEL 7
REMARK VINA RESULT:      -6.6      3.311      9.274
REMARK  Name = 
REMARK  15 active torsions:
REMARK  status: ('A' for Active; 'I' for Inactive)
REMARK    1  A    between atoms: C_1  and  C_2
REMARK    2  A    between atoms: C_2  and  O_3
REMARK    3  A    between atoms: O_3  and  C_4
REMARK    4  A    between atoms: C_7  and  N_8
REMARK    5  A    between atoms: C_9  and  C_11
REMARK    6  A    between atoms: C_11  and  N_12
REMARK    7  A    between atoms: N_12  and  C_13
REMARK    8  A    between atoms: C_14  and  C_16
REMARK    9  A    between atoms: C_16  and  S_17
REMARK   10  A    between atoms: S_17  and  C_18
REMARK   11  A    between atoms: C_18  and  C_19
REMARK   12  A    between atoms: C_23  and  C_24
REMARK   13  A    between atoms: C_27  and  O_28
REMARK   14  A    between atoms: O_28  and  C_29
REMARK   15  A    between atoms: C_29  and  C_30
REMARK                            x       y       z     vdW  Elec       q    Type
REMARK                         _______ _______ _______ _____ _____    ______ ____
ROOT
ATOM      1  N   UNL     1       1.990   7.383  21.275  0.00  0.00    +0.000 N 
ATOM      2  C   UNL     1       1.364   8.590  21.015  0.00  0.00    +0.000 C 
ATOM      3  O   UNL     1       0.831   8.909  19.954  0.00  0.00    +0.000 OA
ATOM      4  H   UNL     1       2.625   7.349  22.064  0.00  0.00    +0.000 HD
ENDROOT
BRANCH   1   8
ATOM      5  C   UNL     1       1.820   4.132  18.554  0.00  0.00    +0.000 A 
ATOM      6  C   UNL     1       1.153   4.062  19.781  0.00  0.00    +0.000 A 
ATOM      7  C   UNL     1       1.218   5.115  20.695  0.00  0.00    +0.000 A 
ATOM      8  C   UNL     1       1.967   6.258  20.416  0.00  0.00    +0.000 A 
ATOM      9  C   UNL     1       2.734   6.276  19.248  0.00  0.00    +0.000 A 
ATOM     10  C   UNL     1       2.683   5.215  18.321  0.00  0.00    +0.000 A 
BRANCH   5  11
ATOM     11  O   UNL     1       1.637   3.192  17.571  0.00  0.00    +0.000 OA
BRANCH  11  13
ATOM     12  C   UNL     1       3.649   1.944  17.978  0.00  0.00    +0.000 C 
ATOM     13  C   UNL     1       2.138   1.881  17.858  0.00  0.00    +0.000 C 
ENDBRANCH  11  13
ENDBRANCH   5  11
BRANCH  10  14
ATOM     14  O   UNL     1       3.487   5.420  17.227  0.00  0.00    +0.000 OA
BRANCH  14  15
ATOM     15  C   UNL     1       4.873   5.669  17.465  0.00  0.00    +0.000 C 
ATOM     16  C   UNL     1       5.317   6.781  16.527  0.00  0.00    +0.000 C 
ENDBRANCH  14  15
ENDBRANCH  10  14
ENDBRANCH   1   8
BRANCH   2  17
ATOM     17  C   UNL     1       1.465   9.611  22.149  0.00  0.00    +0.000 C 
BRANCH  17  18
ATOM     18  N   UNL     1       0.261  10.433  22.300  0.00  0.00    +0.000 N 
ATOM     19  C   UNL     1      -0.880   9.843  22.991  0.00  0.00    +0.000 C 
ATOM     20  C   UNL     1       0.238  11.693  21.717  0.00  0.00    +0.000 C 
ATOM     21  O   UNL     1       1.201  12.098  21.061  0.00  0.00    +0.000 OA
BRANCH  20  22
ATOM     22  C   UNL     1      -1.009  12.545  21.955  0.00  0.00    +0.000 C 
BRANCH  22  23
ATOM     23  S   UNL     1      -2.364  12.148  20.818  0.00  0.00    +0.000 S 
BRANCH  23  24
ATOM     24  C   UNL     1      -1.424  11.212  19.563  0.00  0.00    +0.000 C 
BRANCH  24  25
ATOM     25  C   UNL     1      -2.267  11.024  18.332  0.00  0.00    +0.000 A 
ATOM     26  C   UNL     1      -1.732  10.396  17.201  0.00  0.00    +0.000 A 
ATOM     27  C   UNL     1      -2.478  10.315  16.026  0.00  0.00    +0.000 A 
ATOM     28  C   UNL     1      -3.757  10.866  15.970  0.00  0.00    +0.000 A 
ATOM     29  C   UNL     1      -4.310  11.494  17.091  0.00  0.00    +0.000 A 
ATOM     30  C   UNL     1      -5.672  12.116  17.037  0.00  0.00    +0.000 C 
ATOM     31  C   UNL     1      -3.563  11.559  18.272  0.00  0.00    +0.000 A 
ENDBRANCH  24  25
ENDBRANCH  23  24
ENDBRANCH  22  23
ENDBRANCH  20  22
ENDBRANCH  17  18
ENDBRANCH   2  17
TORSDOF 11
ENDMDL
MODEL 8
REMARK VINA RESULT:      -6.5      3.013     10.390
REMARK  Name = 
REMARK  15 active torsions:
REMARK  status: ('A' for Active; 'I' for Inactive)
REMARK    1  A    between atoms: C_1  and  C_2
REMARK    2  A    between atoms: C_2  and  O_3
REMARK    3  A    between atoms: O_3  and  C_4
REMARK    4  A    between atoms: C_7  and  N_8
REMARK    5  A    between atoms: C_9  and  C_11
REMARK    6  A    between atoms: C_11  and  N_12
REMARK    7  A    between atoms: N_12  and  C_13
REMARK    8  A    between atoms: C_14  and  C_16
REMARK    9  A    between atoms: C_16  and  S_17
REMARK   10  A    between atoms: S_17  and  C_18
REMARK   11  A    between atoms: C_18  and  C_19
REMARK   12  A    between atoms: C_23  and  C_24
REMARK   13  A    between atoms: C_27  and  O_28
REMARK   14  A    between atoms: O_28  and  C_29
REMARK   15  A    between atoms: C_29  and  C_30
REMARK                            x       y       z     vdW  Elec       q    Type
REMARK                         _______ _______ _______ _____ _____    ______ ____
ROOT
ATOM      1  N   UNL     1       1.504   9.085  19.938  0.00  0.00    +0.000 N 
ATOM      2  C   UNL     1       1.152   9.902  18.876  0.00  0.00    +0.000 C 
ATOM      3  O   UNL     1       1.268   9.621  17.685  0.00  0.00    +0.000 OA
ATOM      4  H   UNL     1       1.626   9.526  20.842  0.00  0.00    +0.000 HD
ENDROOT
BRANCH   1   8
ATOM      5  C   UNL     1       2.552   5.007  19.414  0.00  0.00    +0.000 A 
ATOM      6  C   UNL     1       1.880   5.421  20.568  0.00  0.00    +0.000 A 
ATOM      7  C   UNL     1       1.547   6.763  20.764  0.00  0.00    +0.000 A 
ATOM      8  C   UNL     1       1.896   7.730  19.821  0.00  0.00    +0.000 A 
ATOM      9  C   UNL     1       2.677   7.338  18.731  0.00  0.00    +0.000 A 
ATOM     10  C   UNL     1       3.025   5.987  18.526  0.00  0.00    +0.000 A 
BRANCH   5  11
ATOM     11  O   UNL     1       2.740   3.681  19.118  0.00  0.00    +0.000 OA
BRANCH  11  13
ATOM     12  C   UNL     1       0.764   2.357  18.782  0.00  0.00    +0.000 C 
ATOM     13  C   UNL     1       1.849   2.762  19.762  0.00  0.00    +0.000 C 
ENDBRANCH  11  13
ENDBRANCH   5  11
BRANCH  10  14
ATOM     14  O   UNL     1       3.777   5.793  17.394  0.00  0.00    +0.000 OA
BRANCH  14  15
ATOM     15  C   UNL     1       5.183   5.606  17.558  0.00  0.00    +0.000 C 
ATOM     16  C   UNL     1       5.886   6.848  17.029  0.00  0.00    +0.000 C 
ENDBRANCH  14  15
ENDBRANCH  10  14
ENDBRANCH   1   8
BRANCH   2  17
ATOM     17  C   UNL     1       0.677  11.297  19.284  0.00  0.00    +0.000 C 
BRANCH  17  18
ATOM     18  N   UNL     1      -0.760  11.362  19.567  0.00  0.00    +0.000 N 
ATOM     19  C   UNL     1      -1.212  10.923  20.882  0.00  0.00    +0.000 C 
ATOM     20  C   UNL     1      -1.620  11.763  18.553  0.00  0.00    +0.000 C 
ATOM     21  O   UNL     1      -1.185  12.028  17.430  0.00  0.00    +0.000 OA
BRANCH  20  22
ATOM     22  C   UNL     1      -3.103  11.882  18.908  0.00  0.00    +0.000 C 
BRANCH  22  23
ATOM     23  S   UNL     1      -4.183  11.024  17.734  0.00  0.00    +0.000 S 
BRANCH  23  24
ATOM     24  C   UNL     1      -5.651  12.104  17.850  0.00  0.00    +0.000 C 
BRANCH  24  25
ATOM     25  C   UNL     1      -6.508  11.674  19.009  0.00  0.00    +0.000 A 
ATOM     26  C   UNL     1      -6.965  12.619  19.936  0.00  0.00    +0.000 A 
ATOM     27  C   UNL     1      -7.669  12.209  21.067  0.00  0.00    +0.000 A 
ATOM     28  C   UNL     1      -7.916  10.854  21.284  0.00  0.00    +0.000 A 
ATOM     29  C   UNL     1      -7.471   9.895  20.366  0.00  0.00    +0.000 A 
ATOM     30  C   UNL     1      -7.703   8.434  20.600  0.00  0.00    +0.000 C 
ATOM     31  C   UNL     1      -6.777  10.315  19.226  0.00  0.00    +0.000 A 
ENDBRANCH  24  25
ENDBRANCH  23  24
ENDBRANCH  22  23
ENDBRANCH  20  22
ENDBRANCH  17  18
ENDBRANCH   2  17
TORSDOF 11
ENDMDL
MODEL 9
REMARK VINA RESULT:      -6.5      1.981      3.525
REMARK  Name = 
REMARK  15 active torsions:
REMARK  status: ('A' for Active; 'I' for Inactive)
REMARK    1  A    between atoms: C_1  and  C_2
REMARK    2  A    between atoms: C_2  and  O_3
REMARK    3  A    between atoms: O_3  and  C_4
REMARK    4  A    between atoms: C_7  and  N_8
REMARK    5  A    between atoms: C_9  and  C_11
REMARK    6  A    between atoms: C_11  and  N_12
REMARK    7  A    between atoms: N_12  and  C_13
REMARK    8  A    between atoms: C_14  and  C_16
REMARK    9  A    between atoms: C_16  and  S_17
REMARK   10  A    between atoms: S_17  and  C_18
REMARK   11  A    between atoms: C_18  and  C_19
REMARK   12  A    between atoms: C_23  and  C_24
REMARK   13  A    between atoms: C_27  and  O_28
REMARK   14  A    between atoms: O_28  and  C_29
REMARK   15  A    between atoms: C_29  and  C_30
REMARK                            x       y       z     vdW  Elec       q    Type
REMARK                         _______ _______ _______ _____ _____    ______ ____
ROOT
ATOM      1  N   UNL     1       0.174   9.983  19.304  0.00  0.00    +0.000 N 
ATOM      2  C   UNL     1       0.382   9.094  20.346  0.00  0.00    +0.000 C 
ATOM      3  O   UNL     1      -0.430   8.820  21.228  0.00  0.00    +0.000 OA
ATOM      4  H   UNL     1       0.994  10.332  18.821  0.00  0.00    +0.000 HD
ENDROOT
BRANCH   1   8
ATOM      5  C   UNL     1      -3.626  11.711  18.548  0.00  0.00    +0.000 A 
ATOM      6  C   UNL     1      -3.076  10.792  17.649  0.00  0.00    +0.000 A 
ATOM      7  C   UNL     1      -1.818  10.231  17.874  0.00  0.00    +0.000 A 
ATOM      8  C   UNL     1      -1.066  10.590  18.993  0.00  0.00    +0.000 A 
ATOM      9  C   UNL     1      -1.558  11.600  19.823  0.00  0.00    +0.000 A 
ATOM     10  C   UNL     1      -2.825  12.179  19.601  0.00  0.00    +0.000 A 
BRANCH   5  11
ATOM     11  O   UNL     1      -4.923  12.146  18.441  0.00  0.00    +0.000 OA
BRANCH  11  13
ATOM     12  C   UNL     1      -7.288  11.803  18.682  0.00  0.00    +0.000 C 
ATOM     13  C   UNL     1      -5.933  11.135  18.541  0.00  0.00    +0.000 C 
ENDBRANCH  11  13
ENDBRANCH   5  11
BRANCH  10  14
ATOM     14  O   UNL     1      -3.145  13.138  20.530  0.00  0.00    +0.000 OA
BRANCH  14  15
ATOM     15  C   UNL     1      -4.002  12.756  21.606  0.00  0.00    +0.000 C 
ATOM     16  C   UNL     1      -3.187  12.793  22.890  0.00  0.00    +0.000 C 
ENDBRANCH  14  15
ENDBRANCH  10  14
ENDBRANCH   1   8
BRANCH   2  17
ATOM     17  C   UNL     1       1.794   8.512  20.407  0.00  0.00    +0.000 C 
BRANCH  17  18
ATOM     18  N   UNL     1       2.174   7.781  19.194  0.00  0.00    +0.000 N 
ATOM     19  C   UNL     1       2.426   8.558  17.986  0.00  0.00    +0.000 C 
ATOM     20  C   UNL     1       2.201   6.393  19.234  0.00  0.00    +0.000 C 
ATOM     21  O   UNL     1       1.881   5.790  20.261  0.00  0.00    +0.000 OA
BRANCH  20  22
ATOM     22  C   UNL     1       2.667   5.672  17.969  0.00  0.00    +0.000 C 
BRANCH  22  23
ATOM     23  S   UNL     1       2.146   3.937  17.911  0.00  0.00    +0.000 S 
BRANCH  23  24
ATOM     24  C   UNL     1       3.679   3.154  18.522  0.00  0.00    +0.000 C 
BRANCH  24  25
ATOM     25  C   UNL     1       4.874   3.838  17.917  0.00  0.00    +0.000 A 
ATOM     26  C   UNL     1       5.161   3.682  16.555  0.00  0.00    +0.000 A 
ATOM     27  C   UNL     1       6.325   4.229  16.016  0.00  0.00    +0.000 A 
ATOM     28  C   UNL     1       7.213   4.926  16.833  0.00  0.00    +0.000 A 
ATOM     29  C   UNL     1       6.942   5.096  18.196  0.00  0.00    +0.000 A 
ATOM     30  C   UNL     1       7.901   5.818  19.092  0.00  0.00    +0.000 C 
ATOM     31  C   UNL     1       5.764   4.558  18.728  0.00  0.00    +0.000 A 
ENDBRANCH  24  25
ENDBRANCH  23  24
ENDBRANCH  22  23
ENDBRANCH  20  22
ENDBRANCH  17  18
ENDBRANCH   2  17
TORSDOF 11
ENDMDL
