MODEL 1
REMARK VINA RESULT:      -7.7      0.000      0.000
REMARK  Name = 
REMARK  3 active torsions:
REMARK  status: ('A' for Active; 'I' for Inactive)
REMARK    1  A    between atoms: C_1  and  N_2
REMARK    2  A    between atoms: C_7  and  C_8
REMARK    3  A    between atoms: N_10  and  C_11
REMARK                            x       y       z     vdW  Elec       q    Type
REMARK                         _______ _______ _______ _____ _____    ______ ____
ROOT
ATOM      1  C   UNL     1       2.124   8.286  18.382  0.00  0.00    +0.000 C 
ATOM      2  O   UNL     1       2.227   8.698  17.233  0.00  0.00    +0.000 OA
ATOM      3  N   UNL     1       2.607   7.085  18.869  0.00  0.00    +0.000 N 
ATOM      4  H   UNL     1       2.292   6.795  19.786  0.00  0.00    +0.000 HD
ENDROOT
BRANCH   1  11
ATOM      5  C   UNL     1      -1.777  12.054  22.386  0.00  0.00    +0.000 C 
ATOM      6  N   UNL     1      -0.823  10.975  22.306  0.00  0.00    +0.000 N 
ATOM      7  N   UNL     1      -0.476  10.320  23.433  0.00  0.00    +0.000 NA
ATOM      8  C   UNL     1       0.392   9.402  23.006  0.00  0.00    +0.000 A 
ATOM      9  C   UNL     1       0.615   9.470  21.615  0.00  0.00    +0.000 A 
ATOM     10  C   UNL     1       1.393   8.761  20.689  0.00  0.00    +0.000 A 
ATOM     11  C   UNL     1       1.339   9.122  19.331  0.00  0.00    +0.000 A 
ATOM     12  C   UNL     1       0.521  10.174  18.904  0.00  0.00    +0.000 A 
ATOM     13  C   UNL     1      -0.261  10.892  19.822  0.00  0.00    +0.000 A 
ATOM     14  C   UNL     1      -0.194  10.513  21.173  0.00  0.00    +0.000 A 
ENDBRANCH   1  11
BRANCH   3  15
ATOM     15  C   UNL     1       3.311   6.120  18.106  0.00  0.00    +0.000 A 
ATOM     16  C   UNL     1       2.781   4.865  17.778  0.00  0.00    +0.000 A 
ATOM     17  C   UNL     1       3.541   3.922  17.081  0.00  0.00    +0.000 A 
ATOM     18  C   UNL     1       4.837   4.234  16.699  0.00  0.00    +0.000 A 
ATOM     19  F   UNL     1       5.560   3.306  16.053  0.00  0.00    +0.000 F 
ATOM     20  C   UNL     1       5.371   5.486  16.987  0.00  0.00    +0.000 A 
ATOM     21 CL   UNL     1       6.981   5.877  16.517  0.00  0.00    +0.000 Cl
ATOM     22  C   UNL     1       4.607   6.435  17.678  0.00  0.00    +0.000 A 
ENDBRANCH   3  15
TORSDOF 2
ENDMDL
MODEL 2
REMARK VINA RESULT:      -7.7      1.275      1.642
REMARK  Name = 
REMARK  3 active torsions:
REMARK  status: ('A' for Active; 'I' for Inactive)
REMARK    1  A    between atoms: C_1  and  N_2
REMARK    2  A    between atoms: C_7  and  C_8
REMARK    3  A    between atoms: N_10  and  C_11
REMARK                            x       y       z     vdW  Elec       q    Type
REMARK                         _______ _______ _______ _____ _____    ______ ____
ROOT
ATOM      1  C   UNL     1       1.913   8.549  18.467  0.00  0.00    +0.000 C 
ATOM      2  O   UNL     1       1.996   8.928  17.304  0.00  0.00    +0.000 OA
ATOM      3  N   UNL     1       2.435   7.379  18.987  0.00  0.00    +0.000 N 
ATOM      4  H   UNL     1       2.135   7.109  19.915  0.00  0.00    +0.000 HD
ENDROOT
BRANCH   1  11
ATOM      5  C   UNL     1      -2.055  12.368  22.354  0.00  0.00    +0.000 C 
ATOM      6  N   UNL     1      -1.150  11.247  22.294  0.00  0.00    +0.000 N 
ATOM      7  N   UNL     1      -0.906  10.539  23.416  0.00  0.00    +0.000 NA
ATOM      8  C   UNL     1      -0.056   9.594  23.011  0.00  0.00    +0.000 A 
ATOM      9  C   UNL     1       0.258   9.697  21.640  0.00  0.00    +0.000 A 
ATOM     10  C   UNL     1       1.059   8.982  20.739  0.00  0.00    +0.000 A 
ATOM     11  C   UNL     1       1.109   9.391  19.394  0.00  0.00    +0.000 A 
ATOM     12  C   UNL     1       0.370  10.494  18.955  0.00  0.00    +0.000 A 
ATOM     13  C   UNL     1      -0.435  11.219  19.849  0.00  0.00    +0.000 A 
ATOM     14  C   UNL     1      -0.471  10.793  21.186  0.00  0.00    +0.000 A 
ENDBRANCH   1  11
BRANCH   3  15
ATOM     15  C   UNL     1       3.164   6.412  18.249  0.00  0.00    +0.000 A 
ATOM     16  C   UNL     1       4.331   6.713  17.533  0.00  0.00    +0.000 A 
ATOM     17  C   UNL     1       4.976   5.739  16.767  0.00  0.00    +0.000 A 
ATOM     18  C   UNL     1       4.460   4.452  16.717  0.00  0.00    +0.000 A 
ATOM     19  F   UNL     1       5.078   3.538  15.956  0.00  0.00    +0.000 F 
ATOM     20  C   UNL     1       3.320   4.126  17.446  0.00  0.00    +0.000 A 
ATOM     21 CL   UNL     1       2.675   2.530  17.387  0.00  0.00    +0.000 Cl
ATOM     22  C   UNL     1       2.678   5.098  18.222  0.00  0.00    +0.000 A 
ENDBRANCH   3  15
TORSDOF 2
ENDMDL
MODEL 3
REMARK VINA RESULT:      -7.7      2.076      2.160
REMARK  Name = 
REMARK  3 active torsions:
REMARK  status: ('A' for Active; 'I' for Inactive)
REMARK    1  A    between atoms: C_1  and  N_2
REMARK    2  A    between atoms: C_7  and  C_8
REMARK    3  A    between atoms: N_10  and  C_11
REMARK                            x       y       z     vdW  Elec       q    Type
REMARK                         _______ _______ _______ _____ _____    ______ ____
ROOT
ATOM      1  C   UNL     1       2.220   7.359  19.128  0.00  0.00    +0.000 C 
ATOM      2  O   UNL     1       2.797   7.604  18.075  0.00  0.00    +0.000 OA
ATOM      3  N   UNL     1       2.036   6.109  19.689  0.00  0.00    +0.000 N 
ATOM      4  H   UNL     1       1.387   6.038  20.463  0.00  0.00    +0.000 HD
ENDROOT
BRANCH   1  11
ATOM      5  C   UNL     1      -0.895  12.620  21.967  0.00  0.00    +0.000 C 
ATOM      6  N   UNL     1      -0.375  11.287  22.151  0.00  0.00    +0.000 N 
ATOM      7  N   UNL     1      -0.517  10.687  23.351  0.00  0.00    +0.000 NA
ATOM      8  C   UNL     1       0.053   9.494  23.173  0.00  0.00    +0.000 A 
ATOM      9  C   UNL     1       0.570   9.327  21.871  0.00  0.00    +0.000 A 
ATOM     10  C   UNL     1       1.232   8.304  21.180  0.00  0.00    +0.000 A 
ATOM     11  C   UNL     1       1.590   8.507  19.835  0.00  0.00    +0.000 A 
ATOM     12  C   UNL     1       1.291   9.712  19.191  0.00  0.00    +0.000 A 
ATOM     13  C   UNL     1       0.630  10.745  19.874  0.00  0.00    +0.000 A 
ATOM     14  C   UNL     1       0.280  10.520  21.215  0.00  0.00    +0.000 A 
ENDBRANCH   1  11
BRANCH   3  15
ATOM     15  C   UNL     1       2.492   4.888  19.131  0.00  0.00    +0.000 A 
ATOM     16  C   UNL     1       2.108   4.434  17.862  0.00  0.00    +0.000 A 
ATOM     17  C   UNL     1       2.532   3.192  17.383  0.00  0.00    +0.000 A 
ATOM     18  C   UNL     1       3.352   2.397  18.170  0.00  0.00    +0.000 A 
ATOM     19  F   UNL     1       3.728   1.197  17.704  0.00  0.00    +0.000 F 
ATOM     20  C   UNL     1       3.771   2.844  19.420  0.00  0.00    +0.000 A 
ATOM     21 CL   UNL     1       4.788   1.860  20.402  0.00  0.00    +0.000 Cl
ATOM     22  C   UNL     1       3.354   4.093  19.897  0.00  0.00    +0.000 A 
ENDBRANCH   3  15
TORSDOF 2
ENDMDL
MODEL 4
REMARK VINA RESULT:      -7.3      2.333      2.591
REMARK  Name = 
REMARK  3 active torsions:
REMARK  status: ('A' for Active; 'I' for Inactive)
REMARK    1  A    between atoms: C_1  and  N_2
REMARK    2  A    between atoms: C_7  and  C_8
REMARK    3  A    between atoms: N_10  and  C_11
REMARK                            x       y       z     vdW  Elec       q    Type
REMARK                         _______ _______ _______ _____ _____    ______ ____
ROOT
ATOM      1  C   UNL     1       2.036   7.573  19.388  0.00  0.00    +0.000 C 
ATOM      2  O   UNL     1       2.220   7.621  18.178  0.00  0.00    +0.000 OA
ATOM      3  N   UNL     1       2.256   6.481  20.208  0.00  0.00    +0.000 N 
ATOM      4  H   UNL     1       1.890   6.527  21.151  0.00  0.00    +0.000 HD
ENDROOT
BRANCH   1  11
ATOM      5  C   UNL     1      -0.842  13.127  21.903  0.00  0.00    +0.000 C 
ATOM      6  N   UNL     1      -0.477  11.750  22.135  0.00  0.00    +0.000 N 
ATOM      7  N   UNL     1      -0.807  11.172  23.308  0.00  0.00    +0.000 NA
ATOM      8  C   UNL     1      -0.340   9.929  23.186  0.00  0.00    +0.000 A 
ATOM      9  C   UNL     1       0.297   9.706  21.947  0.00  0.00    +0.000 A 
ATOM     10  C   UNL     1       0.928   8.620  21.326  0.00  0.00    +0.000 A 
ATOM     11  C   UNL     1       1.447   8.780  20.029  0.00  0.00    +0.000 A 
ATOM     12  C   UNL     1       1.339  10.005  19.364  0.00  0.00    +0.000 A 
ATOM     13  C   UNL     1       0.711  11.101  19.976  0.00  0.00    +0.000 A 
ATOM     14  C   UNL     1       0.197  10.918  21.270  0.00  0.00    +0.000 A 
ENDBRANCH   1  11
BRANCH   3  15
ATOM     15  C   UNL     1       2.739   5.220  19.775  0.00  0.00    +0.000 A 
ATOM     16  C   UNL     1       4.095   4.959  19.537  0.00  0.00    +0.000 A 
ATOM     17  C   UNL     1       4.514   3.720  19.047  0.00  0.00    +0.000 A 
ATOM     18  C   UNL     1       3.576   2.728  18.798  0.00  0.00    +0.000 A 
ATOM     19  F   UNL     1       3.995   1.554  18.304  0.00  0.00    +0.000 F 
ATOM     20  C   UNL     1       2.228   2.957  19.059  0.00  0.00    +0.000 A 
ATOM     21 CL   UNL     1       1.060   1.730  18.750  0.00  0.00    +0.000 Cl
ATOM     22  C   UNL     1       1.809   4.196  19.558  0.00  0.00    +0.000 A 
ENDBRANCH   3  15
TORSDOF 2
ENDMDL
MODEL 5
REMARK VINA RESULT:      -7.3      1.563      1.872
REMARK  Name = 
REMARK  3 active torsions:
REMARK  status: ('A' for Active; 'I' for Inactive)
REMARK    1  A    between atoms: C_1  and  N_2
REMARK    2  A    between atoms: C_7  and  C_8
REMARK    3  A    between atoms: N_10  and  C_11
REMARK                            x       y       z     vdW  Elec       q    Type
REMARK                         _______ _______ _______ _____ _____    ______ ____
ROOT
ATOM      1  C   UNL     1       2.256   7.130  19.564  0.00  0.00    +0.000 C 
ATOM      2  O   UNL     1       2.299   6.138  20.282  0.00  0.00    +0.000 OA
ATOM      3  N   UNL     1       2.875   7.280  18.336  0.00  0.00    +0.000 N 
ATOM      4  H   UNL     1       2.904   8.212  17.941  0.00  0.00    +0.000 HD
ENDROOT
BRANCH   1  11
ATOM      5  C   UNL     1      -1.282  12.498  21.592  0.00  0.00    +0.000 C 
ATOM      6  N   UNL     1      -0.682  11.240  21.967  0.00  0.00    +0.000 N 
ATOM      7  N   UNL     1      -0.823  10.798  23.234  0.00  0.00    +0.000 NA
ATOM      8  C   UNL     1      -0.172   9.633  23.232  0.00  0.00    +0.000 A 
ATOM      9  C   UNL     1       0.396   9.330  21.977  0.00  0.00    +0.000 A 
ATOM     10  C   UNL     1       1.145   8.271  21.446  0.00  0.00    +0.000 A 
ATOM     11  C   UNL     1       1.531   8.316  20.094  0.00  0.00    +0.000 A 
ATOM     12  C   UNL     1       1.175   9.400  19.286  0.00  0.00    +0.000 A 
ATOM     13  C   UNL     1       0.426  10.468  19.808  0.00  0.00    +0.000 A 
ATOM     14  C   UNL     1       0.050  10.401  21.159  0.00  0.00    +0.000 A 
ENDBRANCH   1  11
BRANCH   3  15
ATOM     15  C   UNL     1       3.672   6.296  17.698  0.00  0.00    +0.000 A 
ATOM     16  C   UNL     1       4.713   6.607  16.814  0.00  0.00    +0.000 A 
ATOM     17  C   UNL     1       5.426   5.600  16.158  0.00  0.00    +0.000 A 
ATOM     18  C   UNL     1       5.105   4.271  16.390  0.00  0.00    +0.000 A 
ATOM     19  F   UNL     1       5.783   3.320  15.732  0.00  0.00    +0.000 F 
ATOM     20  C   UNL     1       4.095   3.940  17.289  0.00  0.00    +0.000 A 
ATOM     21 CL   UNL     1       3.692   2.291  17.579  0.00  0.00    +0.000 Cl
ATOM     22  C   UNL     1       3.386   4.949  17.953  0.00  0.00    +0.000 A 
ENDBRANCH   3  15
TORSDOF 2
ENDMDL
MODEL 6
REMARK VINA RESULT:      -7.3      1.133      1.182
REMARK  Name = 
REMARK  3 active torsions:
REMARK  status: ('A' for Active; 'I' for Inactive)
REMARK    1  A    between atoms: C_1  and  N_2
REMARK    2  A    between atoms: C_7  and  C_8
REMARK    3  A    between atoms: N_10  and  C_11
REMARK                            x       y       z     vdW  Elec       q    Type
REMARK                         _______ _______ _______ _____ _____    ______ ____
ROOT
ATOM      1  C   UNL     1       2.165   7.024  19.682  0.00  0.00    +0.000 C 
ATOM      2  O   UNL     1       2.229   6.067  20.444  0.00  0.00    +0.000 OA
ATOM      3  N   UNL     1       2.704   7.096  18.410  0.00  0.00    +0.000 N 
ATOM      4  H   UNL     1       2.731   8.006  17.968  0.00  0.00    +0.000 HD
ENDROOT
BRANCH   1  11
ATOM      5  C   UNL     1      -1.049  12.614  21.648  0.00  0.00    +0.000 C 
ATOM      6  N   UNL     1      -0.535  11.323  22.035  0.00  0.00    +0.000 N 
ATOM      7  N   UNL     1      -0.718  10.895  23.301  0.00  0.00    +0.000 NA
ATOM      8  C   UNL     1      -0.142   9.692  23.311  0.00  0.00    +0.000 A 
ATOM      9  C   UNL     1       0.420   9.348  22.064  0.00  0.00    +0.000 A 
ATOM     10  C   UNL     1       1.106   8.242  21.546  0.00  0.00    +0.000 A 
ATOM     11  C   UNL     1       1.510   8.256  20.199  0.00  0.00    +0.000 A 
ATOM     12  C   UNL     1       1.233   9.357  19.383  0.00  0.00    +0.000 A 
ATOM     13  C   UNL     1       0.548  10.472  19.891  0.00  0.00    +0.000 A 
ATOM     14  C   UNL     1       0.152  10.435  21.238  0.00  0.00    +0.000 A 
ENDBRANCH   1  11
BRANCH   3  15
ATOM     15  C   UNL     1       3.428   6.058  17.771  0.00  0.00    +0.000 A 
ATOM     16  C   UNL     1       2.920   4.764  17.595  0.00  0.00    +0.000 A 
ATOM     17  C   UNL     1       3.699   3.757  17.019  0.00  0.00    +0.000 A 
ATOM     18  C   UNL     1       4.992   4.043  16.606  0.00  0.00    +0.000 A 
ATOM     19  F   UNL     1       5.733   3.057  16.079  0.00  0.00    +0.000 F 
ATOM     20  C   UNL     1       5.504   5.330  16.743  0.00  0.00    +0.000 A 
ATOM     21 CL   UNL     1       7.110   5.688  16.234  0.00  0.00    +0.000 Cl
ATOM     22  C   UNL     1       4.721   6.341  17.312  0.00  0.00    +0.000 A 
ENDBRANCH   3  15
TORSDOF 2
ENDMDL
MODEL 7
REMARK VINA RESULT:      -7.3      0.653      1.654
REMARK  Name = 
REMARK  3 active torsions:
REMARK  status: ('A' for Active; 'I' for Inactive)
REMARK    1  A    between atoms: C_1  and  N_2
REMARK    2  A    between atoms: C_7  and  C_8
REMARK    3  A    between atoms: N_10  and  C_11
REMARK                            x       y       z     vdW  Elec       q    Type
REMARK                         _______ _______ _______ _____ _____    ______ ____
ROOT
ATOM      1  C   UNL     1       2.200   8.089  18.445  0.00  0.00    +0.000 C 
ATOM      2  O   UNL     1       2.412   8.619  17.361  0.00  0.00    +0.000 OA
ATOM      3  N   UNL     1       2.639   6.840  18.846  0.00  0.00    +0.000 N 
ATOM      4  H   UNL     1       2.239   6.457  19.694  0.00  0.00    +0.000 HD
ENDROOT
BRANCH   1  11
ATOM      5  C   UNL     1      -1.426  11.417  23.052  0.00  0.00    +0.000 C 
ATOM      6  N   UNL     1      -1.059  11.305  21.661  0.00  0.00    +0.000 N 
ATOM      7  N   UNL     1      -1.558  12.193  20.777  0.00  0.00    +0.000 NA
ATOM      8  C   UNL     1      -1.021  11.814  19.616  0.00  0.00    +0.000 A 
ATOM      9  C   UNL     1      -0.190  10.682  19.746  0.00  0.00    +0.000 A 
ATOM     10  C   UNL     1       0.594   9.910  18.878  0.00  0.00    +0.000 A 
ATOM     11  C   UNL     1       1.324   8.825  19.397  0.00  0.00    +0.000 A 
ATOM     12  C   UNL     1       1.272   8.517  20.760  0.00  0.00    +0.000 A 
ATOM     13  C   UNL     1       0.489   9.282  21.639  0.00  0.00    +0.000 A 
ATOM     14  C   UNL     1      -0.230  10.361  21.100  0.00  0.00    +0.000 A 
ENDBRANCH   1  11
BRANCH   3  15
ATOM     15  C   UNL     1       3.418   5.957  18.057  0.00  0.00    +0.000 A 
ATOM     16  C   UNL     1       2.968   4.694  17.648  0.00  0.00    +0.000 A 
ATOM     17  C   UNL     1       3.798   3.833  16.927  0.00  0.00    +0.000 A 
ATOM     18  C   UNL     1       5.086   4.233  16.603  0.00  0.00    +0.000 A 
ATOM     19  F   UNL     1       5.877   3.383  15.933  0.00  0.00    +0.000 F 
ATOM     20  C   UNL     1       5.541   5.496  16.972  0.00  0.00    +0.000 A 
ATOM     21 CL   UNL     1       7.140   5.998  16.573  0.00  0.00    +0.000 Cl
ATOM     22  C   UNL     1       4.706   6.364  17.687  0.00  0.00    +0.000 A 
ENDBRANCH   3  15
TORSDOF 2
ENDMDL
MODEL 8
REMARK VINA RESULT:      -7.2      4.210      8.171
REMARK  Name = 
REMARK  3 active torsions:
REMARK  status: ('A' for Active; 'I' for Inactive)
REMARK    1  A    between atoms: C_1  and  N_2
REMARK    2  A    between atoms: C_7  and  C_8
REMARK    3  A    between atoms: N_10  and  C_11
REMARK                            x       y       z     vdW  Elec       q    Type
REMARK                         _______ _______ _______ _____ _____    ______ ____
ROOT
ATOM      1  C   UNL     1       2.106   6.762  20.018  0.00  0.00    +0.000 C 
ATOM      2  O   UNL     1       1.468   6.008  20.742  0.00  0.00    +0.000 OA
ATOM      3  N   UNL     1       2.015   8.142  19.988  0.00  0.00    +0.000 N 
ATOM      4  H   UNL     1       2.465   8.621  19.218  0.00  0.00    +0.000 HD
ENDROOT
BRANCH   1  11
ATOM      5  C   UNL     1       5.920   3.570  15.468  0.00  0.00    +0.000 C 
ATOM      6  N   UNL     1       5.385   4.832  15.916  0.00  0.00    +0.000 N 
ATOM      7  N   UNL     1       5.657   5.949  15.209  0.00  0.00    +0.000 NA
ATOM      8  C   UNL     1       5.015   6.907  15.879  0.00  0.00    +0.000 A 
ATOM      9  C   UNL     1       4.342   6.417  17.017  0.00  0.00    +0.000 A 
ATOM     10  C   UNL     1       3.541   6.973  18.024  0.00  0.00    +0.000 A 
ATOM     11  C   UNL     1       3.014   6.133  19.021  0.00  0.00    +0.000 A 
ATOM     12  C   UNL     1       3.282   4.760  19.014  0.00  0.00    +0.000 A 
ATOM     13  C   UNL     1       4.085   4.192  18.012  0.00  0.00    +0.000 A 
ATOM     14  C   UNL     1       4.599   5.049  17.024  0.00  0.00    +0.000 A 
ENDBRANCH   1  11
BRANCH   3  15
ATOM     15  C   UNL     1       1.155   8.921  20.804  0.00  0.00    +0.000 A 
ATOM     16  C   UNL     1       1.076   8.773  22.195  0.00  0.00    +0.000 A 
ATOM     17  C   UNL     1       0.164   9.518  22.947  0.00  0.00    +0.000 A 
ATOM     18  C   UNL     1      -0.672  10.423  22.311  0.00  0.00    +0.000 A 
ATOM     19  F   UNL     1      -1.558  11.110  23.047  0.00  0.00    +0.000 F 
ATOM     20  C   UNL     1      -0.587  10.608  20.934  0.00  0.00    +0.000 A 
ATOM     21 CL   UNL     1      -1.624  11.729  20.139  0.00  0.00    +0.000 Cl
ATOM     22  C   UNL     1       0.333   9.868  20.180  0.00  0.00    +0.000 A 
ENDBRANCH   3  15
TORSDOF 2
ENDMDL
MODEL 9
REMARK VINA RESULT:      -7.1      1.323      2.271
REMARK  Name = 
REMARK  3 active torsions:
REMARK  status: ('A' for Active; 'I' for Inactive)
REMARK    1  A    between atoms: C_1  and  N_2
REMARK    2  A    between atoms: C_7  and  C_8
REMARK    3  A    between atoms: N_10  and  C_11
REMARK                            x       y       z     vdW  Elec       q    Type
REMARK                         _______ _______ _______ _____ _____    ______ ____
ROOT
ATOM      1  C   UNL     1       2.055   8.334  18.440  0.00  0.00    +0.000 C 
ATOM      2  O   UNL     1       2.167   8.799  17.312  0.00  0.00    +0.000 OA
ATOM      3  N   UNL     1       2.608   7.153  18.898  0.00  0.00    +0.000 N 
ATOM      4  H   UNL     1       2.284   6.804  19.792  0.00  0.00    +0.000 HD
ENDROOT
BRANCH   1  11
ATOM      5  C   UNL     1      -1.575  11.686  23.026  0.00  0.00    +0.000 C 
ATOM      6  N   UNL     1      -1.233  11.545  21.632  0.00  0.00    +0.000 N 
ATOM      7  N   UNL     1      -1.775  12.393  20.734  0.00  0.00    +0.000 NA
ATOM      8  C   UNL     1      -1.250  11.997  19.573  0.00  0.00    +0.000 A 
ATOM      9  C   UNL     1      -0.384  10.893  19.717  0.00  0.00    +0.000 A 
ATOM     10  C   UNL     1       0.405  10.119  18.855  0.00  0.00    +0.000 A 
ATOM     11  C   UNL     1       1.177   9.071  19.389  0.00  0.00    +0.000 A 
ATOM     12  C   UNL     1       1.161   8.800  20.760  0.00  0.00    +0.000 A 
ATOM     13  C   UNL     1       0.373   9.567  21.634  0.00  0.00    +0.000 A 
ATOM     14  C   UNL     1      -0.388  10.610  21.080  0.00  0.00    +0.000 A 
ENDBRANCH   1  11
BRANCH   3  15
ATOM     15  C   UNL     1       3.409   6.273  18.127  0.00  0.00    +0.000 A 
ATOM     16  C   UNL     1       4.416   6.716  17.258  0.00  0.00    +0.000 A 
ATOM     17  C   UNL     1       5.133   5.813  16.468  0.00  0.00    +0.000 A 
ATOM     18  C   UNL     1       4.851   4.458  16.549  0.00  0.00    +0.000 A 
ATOM     19  F   UNL     1       5.533   3.610  15.765  0.00  0.00    +0.000 F 
ATOM     20  C   UNL     1       3.878   3.995  17.429  0.00  0.00    +0.000 A 
ATOM     21 CL   UNL     1       3.524   2.312  17.532  0.00  0.00    +0.000 Cl
ATOM     22  C   UNL     1       3.165   4.898  18.228  0.00  0.00    +0.000 A 
ENDBRANCH   3  15
TORSDOF 2
ENDMDL
