MODEL 1
REMARK VINA RESULT:      -8.8      0.000      0.000
REMARK  Name = 
REMARK  12 active torsions:
REMARK  status: ('A' for Active; 'I' for Inactive)
REMARK    1  A    between atoms: C_1  and  C_2
REMARK    2  A    between atoms: C_2  and  C_3
REMARK    3  A    between atoms: C_3  and  N_4
REMARK    4  A    between atoms: C_9  and  C_10
REMARK    5  A    between atoms: C_12  and  C_13
REMARK    6  A    between atoms: C_13  and  C_14
REMARK    7  A    between atoms: N_15  and  C_16
REMARK    8  A    between atoms: C_16  and  C_17
REMARK    9  A    between atoms: N_19  and  C_20
REMARK   10  A    between atoms: N_30  and  C_31
REMARK   11  A    between atoms: C_31  and  C_32
REMARK   12  A    between atoms: C_32  and  C_33
REMARK                            x       y       z     vdW  Elec       q    Type
REMARK                         _______ _______ _______ _____ _____    ______ ____
ROOT
ATOM      1  C   UNL     1       0.926   8.847  20.793  0.00  0.00    +0.000 A 
ATOM      2  C   UNL     1       0.226   8.856  22.012  0.00  0.00    +0.000 A 
ATOM      3  C   UNL     1      -0.275  10.137  22.142  0.00  0.00    +0.000 A 
ATOM      4  N   UNL     1       0.056  10.771  20.967  0.00  0.00    +0.000 N 
ATOM      5  N   UNL     1       0.826  10.017  20.152  0.00  0.00    +0.000 NA
ENDROOT
BRANCH   1  11
ATOM      6  N   UNL     1       4.474   4.952  18.066  0.00  0.00    +0.000 N 
ATOM      7  C   UNL     1       4.088   6.290  17.946  0.00  0.00    +0.000 A 
ATOM      8  O   UNL     1       4.516   7.075  17.107  0.00  0.00    +0.000 OA
ATOM      9  C   UNL     1       3.130   6.671  18.914  0.00  0.00    +0.000 A 
ATOM     10  N   UNL     1       2.541   7.875  19.145  0.00  0.00    +0.000 N 
ATOM     11  C   UNL     1       1.706   7.714  20.225  0.00  0.00    +0.000 A 
ATOM     12  N   UNL     1       1.719   6.465  20.662  0.00  0.00    +0.000 NA
ATOM     13  C   UNL     1       2.604   5.828  19.842  0.00  0.00    +0.000 A 
ATOM     14  N   UNL     1       2.992   4.507  19.901  0.00  0.00    +0.000 N 
ATOM     15  C   UNL     1       4.006   4.057  19.052  0.00  0.00    +0.000 A 
ATOM     16  O   UNL     1       4.464   2.916  19.151  0.00  0.00    +0.000 OA
ATOM     17  H   UNL     1       2.702   8.748  18.660  0.00  0.00    +0.000 HD
BRANCH   6  18
ATOM     18  C   UNL     1       5.470   4.449  17.123  0.00  0.00    +0.000 C 
BRANCH  18  20
ATOM     19  C   UNL     1       5.920   4.058  14.642  0.00  0.00    +0.000 C 
ATOM     20  C   UNL     1       4.886   4.064  15.757  0.00  0.00    +0.000 C 
ENDBRANCH  18  20
ENDBRANCH   6  18
BRANCH  14  21
ATOM     21  C   UNL     1       2.366   3.573  20.835  0.00  0.00    +0.000 C 
BRANCH  21  22
ATOM     22  C   UNL     1       0.924   3.205  20.456  0.00  0.00    +0.000 C 
ATOM     23  C   UNL     1       0.785   2.484  19.121  0.00  0.00    +0.000 C 
ENDBRANCH  21  22
ENDBRANCH  14  21
ENDBRANCH   1  11
BRANCH   3  24
ATOM     24  C   UNL     1      -1.052  10.782  23.248  0.00  0.00    +0.000 C 
ATOM     25  C   UNL     1      -2.127  11.734  22.739  0.00  0.00    +0.000 C 
ENDBRANCH   3  24
BRANCH   4  26
ATOM     26  C   UNL     1      -0.309  12.098  20.519  0.00  0.00    +0.000 C 
BRANCH  26  27
ATOM     27  C   UNL     1      -0.910  12.106  19.133  0.00  0.00    +0.000 C 
ATOM     28  O   UNL     1      -0.502  12.924  18.310  0.00  0.00    +0.000 OA
ATOM     29  N   UNL     1      -1.875  11.135  18.888  0.00  0.00    +0.000 N 
ATOM     30  H   UNL     1      -2.278  10.663  19.695  0.00  0.00    +0.000 HD
BRANCH  29  31
ATOM     31  C   UNL     1      -2.452  10.849  17.628  0.00  0.00    +0.000 A 
ATOM     32  C   UNL     1      -1.889   9.939  16.723  0.00  0.00    +0.000 A 
ATOM     33  C   UNL     1      -2.491   9.682  15.488  0.00  0.00    +0.000 A 
ATOM     34  C   UNL     1      -3.669  10.332  15.144  0.00  0.00    +0.000 A 
ATOM     35 CL   UNL     1      -4.404  10.018  13.621  0.00  0.00    +0.000 Cl
ATOM     36  C   UNL     1      -4.254  11.231  16.034  0.00  0.00    +0.000 A 
ATOM     37  C   UNL     1      -3.653  11.481  17.276  0.00  0.00    +0.000 A 
ENDBRANCH  29  31
ENDBRANCH  26  27
ENDBRANCH   4  26
TORSDOF 9
ENDMDL
MODEL 2
REMARK VINA RESULT:      -8.5      3.368      4.491
REMARK  Name = 
REMARK  12 active torsions:
REMARK  status: ('A' for Active; 'I' for Inactive)
REMARK    1  A    between atoms: C_1  and  C_2
REMARK    2  A    between atoms: C_2  and  C_3
REMARK    3  A    between atoms: C_3  and  N_4
REMARK    4  A    between atoms: C_9  and  C_10
REMARK    5  A    between atoms: C_12  and  C_13
REMARK    6  A    between atoms: C_13  and  C_14
REMARK    7  A    between atoms: N_15  and  C_16
REMARK    8  A    between atoms: C_16  and  C_17
REMARK    9  A    between atoms: N_19  and  C_20
REMARK   10  A    between atoms: N_30  and  C_31
REMARK   11  A    between atoms: C_31  and  C_32
REMARK   12  A    between atoms: C_32  and  C_33
REMARK                            x       y       z     vdW  Elec       q    Type
REMARK                         _______ _______ _______ _____ _____    ______ ____
ROOT
ATOM      1  C   UNL     1       1.265   9.001  19.439  0.00  0.00    +0.000 A 
ATOM      2  C   UNL     1       0.682   9.227  20.698  0.00  0.00    +0.000 A 
ATOM      3  C   UNL     1      -0.022  10.410  20.573  0.00  0.00    +0.000 A 
ATOM      4  N   UNL     1       0.091  10.754  19.246  0.00  0.00    +0.000 N 
ATOM      5  N   UNL     1       0.908   9.934  18.549  0.00  0.00    +0.000 NA
ENDROOT
BRANCH   1  11
ATOM      6  N   UNL     1       5.283   5.138  17.408  0.00  0.00    +0.000 N 
ATOM      7  C   UNL     1       4.749   6.383  17.063  0.00  0.00    +0.000 A 
ATOM      8  O   UNL     1       5.099   7.059  16.101  0.00  0.00    +0.000 OA
ATOM      9  C   UNL     1       3.737   6.808  17.953  0.00  0.00    +0.000 A 
ATOM     10  N   UNL     1       3.010   7.958  17.977  0.00  0.00    +0.000 N 
ATOM     11  C   UNL     1       2.180   7.887  19.070  0.00  0.00    +0.000 A 
ATOM     12  N   UNL     1       2.327   6.740  19.713  0.00  0.00    +0.000 NA
ATOM     13  C   UNL     1       3.294   6.079  19.012  0.00  0.00    +0.000 A 
ATOM     14  N   UNL     1       3.829   4.842  19.294  0.00  0.00    +0.000 N 
ATOM     15  C   UNL     1       4.903   4.375  18.532  0.00  0.00    +0.000 A 
ATOM     16  O   UNL     1       5.487   3.328  18.823  0.00  0.00    +0.000 OA
ATOM     17  H   UNL     1       3.079   8.749  17.350  0.00  0.00    +0.000 HD
BRANCH   6  18
ATOM     18  C   UNL     1       6.347   4.601  16.562  0.00  0.00    +0.000 C 
BRANCH  18  20
ATOM     19  C   UNL     1       6.290   4.249  14.035  0.00  0.00    +0.000 C 
ATOM     20  C   UNL     1       5.834   3.745  15.396  0.00  0.00    +0.000 C 
ENDBRANCH  18  20
ENDBRANCH   6  18
BRANCH  14  21
ATOM     21  C   UNL     1       3.298   4.013  20.375  0.00  0.00    +0.000 C 
BRANCH  21  22
ATOM     22  C   UNL     1       2.189   3.053  19.918  0.00  0.00    +0.000 C 
ATOM     23  C   UNL     1       0.776   3.516  20.252  0.00  0.00    +0.000 C 
ENDBRANCH  21  22
ENDBRANCH  14  21
ENDBRANCH   1  11
BRANCH   3  24
ATOM     24  C   UNL     1      -0.801  11.201  21.578  0.00  0.00    +0.000 C 
ATOM     25  C   UNL     1      -0.844  10.538  22.949  0.00  0.00    +0.000 C 
ENDBRANCH   3  24
BRANCH   4  26
ATOM     26  C   UNL     1      -0.538  11.849  18.537  0.00  0.00    +0.000 C 
BRANCH  26  27
ATOM     27  C   UNL     1       0.293  13.110  18.547  0.00  0.00    +0.000 C 
ATOM     28  O   UNL     1      -0.275  14.200  18.493  0.00  0.00    +0.000 OA
ATOM     29  N   UNL     1       1.668  12.926  18.659  0.00  0.00    +0.000 N 
ATOM     30  H   UNL     1       2.029  11.992  18.482  0.00  0.00    +0.000 HD
BRANCH  29  31
ATOM     31  C   UNL     1       2.621  13.954  18.851  0.00  0.00    +0.000 A 
ATOM     32  C   UNL     1       3.097  14.322  20.116  0.00  0.00    +0.000 A 
ATOM     33  C   UNL     1       4.042  15.342  20.265  0.00  0.00    +0.000 A 
ATOM     34  C   UNL     1       4.525  16.005  19.144  0.00  0.00    +0.000 A 
ATOM     35 CL   UNL     1       5.682  17.264  19.330  0.00  0.00    +0.000 Cl
ATOM     36  C   UNL     1       4.076  15.647  17.874  0.00  0.00    +0.000 A 
ATOM     37  C   UNL     1       3.134  14.618  17.728  0.00  0.00    +0.000 A 
ENDBRANCH  29  31
ENDBRANCH  26  27
ENDBRANCH   4  26
TORSDOF 9
ENDMDL
MODEL 3
REMARK VINA RESULT:      -8.4      3.480      4.862
REMARK  Name = 
REMARK  12 active torsions:
REMARK  status: ('A' for Active; 'I' for Inactive)
REMARK    1  A    between atoms: C_1  and  C_2
REMARK    2  A    between atoms: C_2  and  C_3
REMARK    3  A    between atoms: C_3  and  N_4
REMARK    4  A    between atoms: C_9  and  C_10
REMARK    5  A    between atoms: C_12  and  C_13
REMARK    6  A    between atoms: C_13  and  C_14
REMARK    7  A    between atoms: N_15  and  C_16
REMARK    8  A    between atoms: C_16  and  C_17
REMARK    9  A    between atoms: N_19  and  C_20
REMARK   10  A    between atoms: N_30  and  C_31
REMARK   11  A    between atoms: C_31  and  C_32
REMARK   12  A    between atoms: C_32  and  C_33
REMARK                            x       y       z     vdW  Elec       q    Type
REMARK                         _______ _______ _______ _____ _____    ______ ____
ROOT
ATOM      1  C   UNL     1       1.165   9.353  18.925  0.00  0.00    +0.000 A 
ATOM      2  C   UNL     1       0.255   9.878  17.991  0.00  0.00    +0.000 A 
ATOM      3  C   UNL     1      -0.416  10.886  18.655  0.00  0.00    +0.000 A 
ATOM      4  N   UNL     1       0.195  10.974  19.884  0.00  0.00    +0.000 N 
ATOM      5  N   UNL     1       1.129  10.018  20.085  0.00  0.00    +0.000 NA
ENDROOT
BRANCH   1  11
ATOM      6  N   UNL     1       5.216   5.260  17.501  0.00  0.00    +0.000 N 
ATOM      7  C   UNL     1       4.709   6.461  16.997  0.00  0.00    +0.000 A 
ATOM      8  O   UNL     1       5.102   7.021  15.979  0.00  0.00    +0.000 OA
ATOM      9  C   UNL     1       3.669   6.990  17.794  0.00  0.00    +0.000 A 
ATOM     10  N   UNL     1       2.953   8.140  17.660  0.00  0.00    +0.000 N 
ATOM     11  C   UNL     1       2.082   8.198  18.721  0.00  0.00    +0.000 A 
ATOM     12  N   UNL     1       2.193   7.130  19.495  0.00  0.00    +0.000 NA
ATOM     13  C   UNL     1       3.178   6.389  18.910  0.00  0.00    +0.000 A 
ATOM     14  N   UNL     1       3.690   5.188  19.351  0.00  0.00    +0.000 N 
ATOM     15  C   UNL     1       4.787   4.631  18.688  0.00  0.00    +0.000 A 
ATOM     16  O   UNL     1       5.348   3.621  19.118  0.00  0.00    +0.000 OA
ATOM     17  H   UNL     1       3.054   8.854  16.950  0.00  0.00    +0.000 HD
BRANCH   6  18
ATOM     18  C   UNL     1       6.306   4.624  16.763  0.00  0.00    +0.000 C 
BRANCH  18  20
ATOM     19  C   UNL     1       6.258   4.156  14.255  0.00  0.00    +0.000 C 
ATOM     20  C   UNL     1       5.829   3.695  15.639  0.00  0.00    +0.000 C 
ENDBRANCH  18  20
ENDBRANCH   6  18
BRANCH  14  21
ATOM     21  C   UNL     1       3.110   4.490  20.497  0.00  0.00    +0.000 C 
BRANCH  21  22
ATOM     22  C   UNL     1       1.829   3.713  20.154  0.00  0.00    +0.000 C 
ATOM     23  C   UNL     1       1.336   2.789  21.261  0.00  0.00    +0.000 C 
ENDBRANCH  21  22
ENDBRANCH  14  21
ENDBRANCH   1  11
BRANCH   3  24
ATOM     24  C   UNL     1      -1.540  11.774  18.216  0.00  0.00    +0.000 C 
ATOM     25  C   UNL     1      -2.357  11.175  17.078  0.00  0.00    +0.000 C 
ENDBRANCH   3  24
BRANCH   4  26
ATOM     26  C   UNL     1      -0.037  11.930  20.946  0.00  0.00    +0.000 C 
BRANCH  26  27
ATOM     27  C   UNL     1       0.907  13.108  20.891  0.00  0.00    +0.000 C 
ATOM     28  O   UNL     1       0.951  13.882  21.847  0.00  0.00    +0.000 OA
ATOM     29  N   UNL     1       1.696  13.198  19.749  0.00  0.00    +0.000 N 
ATOM     30  H   UNL     1       1.422  12.634  18.948  0.00  0.00    +0.000 HD
BRANCH  29  31
ATOM     31  C   UNL     1       2.756  14.114  19.553  0.00  0.00    +0.000 A 
ATOM     32  C   UNL     1       3.770  14.317  20.499  0.00  0.00    +0.000 A 
ATOM     33  C   UNL     1       4.803  15.230  20.267  0.00  0.00    +0.000 A 
ATOM     34  C   UNL     1       4.836  15.949  19.080  0.00  0.00    +0.000 A 
ATOM     35 CL   UNL     1       6.105  17.076  18.800  0.00  0.00    +0.000 Cl
ATOM     36  C   UNL     1       3.846  15.753  18.118  0.00  0.00    +0.000 A 
ATOM     37  C   UNL     1       2.815  14.832  18.350  0.00  0.00    +0.000 A 
ENDBRANCH  29  31
ENDBRANCH  26  27
ENDBRANCH   4  26
TORSDOF 9
ENDMDL
MODEL 4
REMARK VINA RESULT:      -8.3      3.386      4.609
REMARK  Name = 
REMARK  12 active torsions:
REMARK  status: ('A' for Active; 'I' for Inactive)
REMARK    1  A    between atoms: C_1  and  C_2
REMARK    2  A    between atoms: C_2  and  C_3
REMARK    3  A    between atoms: C_3  and  N_4
REMARK    4  A    between atoms: C_9  and  C_10
REMARK    5  A    between atoms: C_12  and  C_13
REMARK    6  A    between atoms: C_13  and  C_14
REMARK    7  A    between atoms: N_15  and  C_16
REMARK    8  A    between atoms: C_16  and  C_17
REMARK    9  A    between atoms: N_19  and  C_20
REMARK   10  A    between atoms: N_30  and  C_31
REMARK   11  A    between atoms: C_31  and  C_32
REMARK   12  A    between atoms: C_32  and  C_33
REMARK                            x       y       z     vdW  Elec       q    Type
REMARK                         _______ _______ _______ _____ _____    ______ ____
ROOT
ATOM      1  C   UNL     1       1.550   8.626  19.168  0.00  0.00    +0.000 A 
ATOM      2  C   UNL     1       1.248   8.747  20.536  0.00  0.00    +0.000 A 
ATOM      3  C   UNL     1       0.520   9.917  20.652  0.00  0.00    +0.000 A 
ATOM      4  N   UNL     1       0.343  10.357  19.361  0.00  0.00    +0.000 N 
ATOM      5  N   UNL     1       1.001   9.610  18.447  0.00  0.00    +0.000 NA
ENDROOT
BRANCH   1  11
ATOM      6  N   UNL     1       5.500   5.000  16.631  0.00  0.00    +0.000 N 
ATOM      7  C   UNL     1       5.341   6.362  16.901  0.00  0.00    +0.000 A 
ATOM      8  O   UNL     1       6.163   7.234  16.639  0.00  0.00    +0.000 OA
ATOM      9  C   UNL     1       4.108   6.653  17.527  0.00  0.00    +0.000 A 
ATOM     10  N   UNL     1       3.603   7.836  17.973  0.00  0.00    +0.000 N 
ATOM     11  C   UNL     1       2.377   7.565  18.532  0.00  0.00    +0.000 A 
ATOM     12  N   UNL     1       2.075   6.281  18.432  0.00  0.00    +0.000 NA
ATOM     13  C   UNL     1       3.154   5.726  17.808  0.00  0.00    +0.000 A 
ATOM     14  N   UNL     1       3.343   4.398  17.493  0.00  0.00    +0.000 N 
ATOM     15  C   UNL     1       4.570   3.992  16.961  0.00  0.00    +0.000 A 
ATOM     16  O   UNL     1       4.822   2.799  16.775  0.00  0.00    +0.000 OA
ATOM     17  H   UNL     1       4.044   8.746  17.950  0.00  0.00    +0.000 HD
BRANCH   6  18
ATOM     18  C   UNL     1       6.745   4.578  15.993  0.00  0.00    +0.000 C 
BRANCH  18  20
ATOM     19  C   UNL     1       6.146   3.812  13.634  0.00  0.00    +0.000 C 
ATOM     20  C   UNL     1       6.802   4.884  14.490  0.00  0.00    +0.000 C 
ENDBRANCH  18  20
ENDBRANCH   6  18
BRANCH  14  21
ATOM     21  C   UNL     1       2.288   3.409  17.708  0.00  0.00    +0.000 C 
BRANCH  21  22
ATOM     22  C   UNL     1       2.273   2.832  19.132  0.00  0.00    +0.000 C 
ATOM     23  C   UNL     1       1.006   3.135  19.923  0.00  0.00    +0.000 C 
ENDBRANCH  21  22
ENDBRANCH  14  21
ENDBRANCH   1  11
BRANCH   3  24
ATOM     24  C   UNL     1      -0.035  10.614  21.855  0.00  0.00    +0.000 C 
ATOM     25  C   UNL     1      -0.233   9.679  23.042  0.00  0.00    +0.000 C 
ENDBRANCH   3  24
BRANCH   4  26
ATOM     26  C   UNL     1      -0.434  11.481  18.885  0.00  0.00    +0.000 C 
BRANCH  26  27
ATOM     27  C   UNL     1       0.373  12.754  18.786  0.00  0.00    +0.000 C 
ATOM     28  O   UNL     1      -0.216  13.825  18.645  0.00  0.00    +0.000 OA
ATOM     29  N   UNL     1       1.751  12.605  18.903  0.00  0.00    +0.000 N 
ATOM     30  H   UNL     1       2.129  11.666  18.801  0.00  0.00    +0.000 HD
BRANCH  29  31
ATOM     31  C   UNL     1       2.686  13.663  19.004  0.00  0.00    +0.000 A 
ATOM     32  C   UNL     1       3.179  14.127  20.230  0.00  0.00    +0.000 A 
ATOM     33  C   UNL     1       4.104  15.174  20.288  0.00  0.00    +0.000 A 
ATOM     34  C   UNL     1       4.551  15.767  19.115  0.00  0.00    +0.000 A 
ATOM     35 CL   UNL     1       5.685  17.058  19.189  0.00  0.00    +0.000 Cl
ATOM     36  C   UNL     1       4.085  15.312  17.882  0.00  0.00    +0.000 A 
ATOM     37  C   UNL     1       3.163  14.257  17.827  0.00  0.00    +0.000 A 
ENDBRANCH  29  31
ENDBRANCH  26  27
ENDBRANCH   4  26
TORSDOF 9
ENDMDL
MODEL 5
REMARK VINA RESULT:      -8.2      2.717      3.638
REMARK  Name = 
REMARK  12 active torsions:
REMARK  status: ('A' for Active; 'I' for Inactive)
REMARK    1  A    between atoms: C_1  and  C_2
REMARK    2  A    between atoms: C_2  and  C_3
REMARK    3  A    between atoms: C_3  and  N_4
REMARK    4  A    between atoms: C_9  and  C_10
REMARK    5  A    between atoms: C_12  and  C_13
REMARK    6  A    between atoms: C_13  and  C_14
REMARK    7  A    between atoms: N_15  and  C_16
REMARK    8  A    between atoms: C_16  and  C_17
REMARK    9  A    between atoms: N_19  and  C_20
REMARK   10  A    between atoms: N_30  and  C_31
REMARK   11  A    between atoms: C_31  and  C_32
REMARK   12  A    between atoms: C_32  and  C_33
REMARK                            x       y       z     vdW  Elec       q    Type
REMARK                         _______ _______ _______ _____ _____    ______ ____
ROOT
ATOM      1  C   UNL     1       0.903   9.937  18.709  0.00  0.00    +0.000 A 
ATOM      2  C   UNL     1       1.106  11.054  19.539  0.00  0.00    +0.000 A 
ATOM      3  C   UNL     1       0.146  11.974  19.164  0.00  0.00    +0.000 A 
ATOM      4  N   UNL     1      -0.625  11.324  18.228  0.00  0.00    +0.000 N 
ATOM      5  N   UNL     1      -0.153  10.100  17.904  0.00  0.00    +0.000 NA
ENDROOT
BRANCH   1  11
ATOM      6  N   UNL     1       4.650   5.404  17.933  0.00  0.00    +0.000 N 
ATOM      7  C   UNL     1       4.278   6.587  17.287  0.00  0.00    +0.000 A 
ATOM      8  O   UNL     1       4.774   7.009  16.248  0.00  0.00    +0.000 OA
ATOM      9  C   UNL     1       3.247   7.277  17.964  0.00  0.00    +0.000 A 
ATOM     10  N   UNL     1       2.643   8.462  17.678  0.00  0.00    +0.000 N 
ATOM     11  C   UNL     1       1.724   8.697  18.672  0.00  0.00    +0.000 A 
ATOM     12  N   UNL     1       1.699   7.706  19.549  0.00  0.00    +0.000 NA
ATOM     13  C   UNL     1       2.645   6.831  19.100  0.00  0.00    +0.000 A 
ATOM     14  N   UNL     1       3.024   5.642  19.682  0.00  0.00    +0.000 N 
ATOM     15  C   UNL     1       4.103   4.934  19.145  0.00  0.00    +0.000 A 
ATOM     16  O   UNL     1       4.549   3.928  19.703  0.00  0.00    +0.000 OA
ATOM     17  H   UNL     1       2.845   9.092  16.912  0.00  0.00    +0.000 HD
BRANCH   6  18
ATOM     18  C   UNL     1       5.718   4.611  17.328  0.00  0.00    +0.000 C 
BRANCH  18  20
ATOM     19  C   UNL     1       6.101   3.978  14.886  0.00  0.00    +0.000 C 
ATOM     20  C   UNL     1       5.256   3.767  16.133  0.00  0.00    +0.000 C 
ENDBRANCH  18  20
ENDBRANCH   6  18
BRANCH  14  21
ATOM     21  C   UNL     1       2.324   5.112  20.851  0.00  0.00    +0.000 C 
BRANCH  21  22
ATOM     22  C   UNL     1       1.148   4.190  20.491  0.00  0.00    +0.000 C 
ATOM     23  C   UNL     1       1.309   2.749  20.961  0.00  0.00    +0.000 C 
ENDBRANCH  21  22
ENDBRANCH  14  21
ENDBRANCH   1  11
BRANCH   3  24
ATOM     24  C   UNL     1      -0.114  13.372  19.634  0.00  0.00    +0.000 C 
ATOM     25  C   UNL     1      -0.658  13.426  21.056  0.00  0.00    +0.000 C 
ENDBRANCH   3  24
BRANCH   4  26
ATOM     26  C   UNL     1      -1.834  11.780  17.574  0.00  0.00    +0.000 C 
BRANCH  26  27
ATOM     27  C   UNL     1      -3.078  11.514  18.389  0.00  0.00    +0.000 C 
ATOM     28  O   UNL     1      -3.537  10.374  18.422  0.00  0.00    +0.000 OA
ATOM     29  N   UNL     1      -3.590  12.607  19.081  0.00  0.00    +0.000 N 
ATOM     30  H   UNL     1      -3.258  13.529  18.810  0.00  0.00    +0.000 HD
BRANCH  29  31
ATOM     31  C   UNL     1      -4.641  12.559  20.028  0.00  0.00    +0.000 A 
ATOM     32  C   UNL     1      -5.955  12.212  19.688  0.00  0.00    +0.000 A 
ATOM     33  C   UNL     1      -6.966  12.174  20.654  0.00  0.00    +0.000 A 
ATOM     34  C   UNL     1      -6.670  12.480  21.976  0.00  0.00    +0.000 A 
ATOM     35 CL   UNL     1      -7.917  12.438  23.160  0.00  0.00    +0.000 Cl
ATOM     36  C   UNL     1      -5.367  12.815  22.339  0.00  0.00    +0.000 A 
ATOM     37  C   UNL     1      -4.354  12.845  21.370  0.00  0.00    +0.000 A 
ENDBRANCH  29  31
ENDBRANCH  26  27
ENDBRANCH   4  26
TORSDOF 9
ENDMDL
MODEL 6
REMARK VINA RESULT:      -8.2      1.200      2.944
REMARK  Name = 
REMARK  12 active torsions:
REMARK  status: ('A' for Active; 'I' for Inactive)
REMARK    1  A    between atoms: C_1  and  C_2
REMARK    2  A    between atoms: C_2  and  C_3
REMARK    3  A    between atoms: C_3  and  N_4
REMARK    4  A    between atoms: C_9  and  C_10
REMARK    5  A    between atoms: C_12  and  C_13
REMARK    6  A    between atoms: C_13  and  C_14
REMARK    7  A    between atoms: N_15  and  C_16
REMARK    8  A    between atoms: C_16  and  C_17
REMARK    9  A    between atoms: N_19  and  C_20
REMARK   10  A    between atoms: N_30  and  C_31
REMARK   11  A    between atoms: C_31  and  C_32
REMARK   12  A    between atoms: C_32  and  C_33
REMARK                            x       y       z     vdW  Elec       q    Type
REMARK                         _______ _______ _______ _____ _____    ______ ____
ROOT
ATOM      1  C   UNL     1       0.815   9.034  20.855  0.00  0.00    +0.000 A 
ATOM      2  C   UNL     1       0.037   9.108  22.024  0.00  0.00    +0.000 A 
ATOM      3  C   UNL     1      -0.438  10.404  22.071  0.00  0.00    +0.000 A 
ATOM      4  N   UNL     1      -0.015  10.983  20.898  0.00  0.00    +0.000 N 
ATOM      5  N   UNL     1       0.788  10.180  20.165  0.00  0.00    +0.000 NA
ENDROOT
BRANCH   1  11
ATOM      6  N   UNL     1       3.476   3.893  19.560  0.00  0.00    +0.000 N 
ATOM      7  C   UNL     1       2.654   4.434  20.553  0.00  0.00    +0.000 A 
ATOM      8  O   UNL     1       2.218   3.819  21.520  0.00  0.00    +0.000 OA
ATOM      9  C   UNL     1       2.359   5.798  20.333  0.00  0.00    +0.000 A 
ATOM     10  N   UNL     1       1.578   6.657  21.043  0.00  0.00    +0.000 N 
ATOM     11  C   UNL     1       1.602   7.863  20.383  0.00  0.00    +0.000 A 
ATOM     12  N   UNL     1       2.381   7.812  19.315  0.00  0.00    +0.000 NA
ATOM     13  C   UNL     1       2.845   6.529  19.294  0.00  0.00    +0.000 A 
ATOM     14  N   UNL     1       3.679   5.960  18.357  0.00  0.00    +0.000 N 
ATOM     15  C   UNL     1       3.952   4.591  18.430  0.00  0.00    +0.000 A 
ATOM     16  O   UNL     1       4.597   4.020  17.547  0.00  0.00    +0.000 OA
ATOM     17  H   UNL     1       1.037   6.460  21.875  0.00  0.00    +0.000 HD
BRANCH   6  18
ATOM     18  C   UNL     1       3.839   2.483  19.678  0.00  0.00    +0.000 C 
BRANCH  18  20
ATOM     19  C   UNL     1       1.584   1.839  18.672  0.00  0.00    +0.000 C 
ATOM     20  C   UNL     1       3.080   1.568  18.708  0.00  0.00    +0.000 C 
ENDBRANCH  18  20
ENDBRANCH   6  18
BRANCH  14  21
ATOM     21  C   UNL     1       4.279   6.758  17.289  0.00  0.00    +0.000 C 
BRANCH  21  22
ATOM     22  C   UNL     1       5.713   7.212  17.598  0.00  0.00    +0.000 C 
ATOM     23  C   UNL     1       6.795   6.436  16.858  0.00  0.00    +0.000 C 
ENDBRANCH  21  22
ENDBRANCH  14  21
ENDBRANCH   1  11
BRANCH   3  24
ATOM     24  C   UNL     1      -1.269  11.110  23.099  0.00  0.00    +0.000 C 
ATOM     25  C   UNL     1      -1.099  12.623  23.059  0.00  0.00    +0.000 C 
ENDBRANCH   3  24
BRANCH   4  26
ATOM     26  C   UNL     1      -0.316  12.300  20.376  0.00  0.00    +0.000 C 
BRANCH  26  27
ATOM     27  C   UNL     1      -0.949  12.259  19.005  0.00  0.00    +0.000 C 
ATOM     28  O   UNL     1      -0.549  13.036  18.140  0.00  0.00    +0.000 OA
ATOM     29  N   UNL     1      -1.933  11.292  18.824  0.00  0.00    +0.000 N 
ATOM     30  H   UNL     1      -2.323  10.860  19.659  0.00  0.00    +0.000 HD
BRANCH  29  31
ATOM     31  C   UNL     1      -2.543  10.963  17.590  0.00  0.00    +0.000 A 
ATOM     32  C   UNL     1      -3.745  11.539  17.159  0.00  0.00    +0.000 A 
ATOM     33  C   UNL     1      -4.314  11.189  15.931  0.00  0.00    +0.000 A 
ATOM     34  C   UNL     1      -3.683  10.258  15.116  0.00  0.00    +0.000 A 
ATOM     35 CL   UNL     1      -4.389   9.825  13.609  0.00  0.00    +0.000 Cl
ATOM     36  C   UNL     1      -2.479   9.682  15.519  0.00  0.00    +0.000 A 
ATOM     37  C   UNL     1      -1.906  10.040  16.748  0.00  0.00    +0.000 A 
ENDBRANCH  29  31
ENDBRANCH  26  27
ENDBRANCH   4  26
TORSDOF 9
ENDMDL
MODEL 7
REMARK VINA RESULT:      -8.1      4.364      5.444
REMARK  Name = 
REMARK  12 active torsions:
REMARK  status: ('A' for Active; 'I' for Inactive)
REMARK    1  A    between atoms: C_1  and  C_2
REMARK    2  A    between atoms: C_2  and  C_3
REMARK    3  A    between atoms: C_3  and  N_4
REMARK    4  A    between atoms: C_9  and  C_10
REMARK    5  A    between atoms: C_12  and  C_13
REMARK    6  A    between atoms: C_13  and  C_14
REMARK    7  A    between atoms: N_15  and  C_16
REMARK    8  A    between atoms: C_16  and  C_17
REMARK    9  A    between atoms: N_19  and  C_20
REMARK   10  A    between atoms: N_30  and  C_31
REMARK   11  A    between atoms: C_31  and  C_32
REMARK   12  A    between atoms: C_32  and  C_33
REMARK                            x       y       z     vdW  Elec       q    Type
REMARK                         _______ _______ _______ _____ _____    ______ ____
ROOT
ATOM      1  C   UNL     1       1.444   9.697  18.826  0.00  0.00    +0.000 A 
ATOM      2  C   UNL     1       0.220   9.835  19.503  0.00  0.00    +0.000 A 
ATOM      3  C   UNL     1      -0.068  11.187  19.476  0.00  0.00    +0.000 A 
ATOM      4  N   UNL     1       0.924  11.748  18.706  0.00  0.00    +0.000 N 
ATOM      5  N   UNL     1       1.879  10.865  18.339  0.00  0.00    +0.000 NA
ENDROOT
BRANCH   1  11
ATOM      6  N   UNL     1       5.032   5.159  17.516  0.00  0.00    +0.000 N 
ATOM      7  C   UNL     1       4.715   6.427  17.024  0.00  0.00    +0.000 A 
ATOM      8  O   UNL     1       5.243   6.960  16.053  0.00  0.00    +0.000 OA
ATOM      9  C   UNL     1       3.699   7.065  17.772  0.00  0.00    +0.000 A 
ATOM     10  N   UNL     1       3.145   8.299  17.633  0.00  0.00    +0.000 N 
ATOM     11  C   UNL     1       2.219   8.441  18.639  0.00  0.00    +0.000 A 
ATOM     12  N   UNL     1       2.143   7.347  19.381  0.00  0.00    +0.000 NA
ATOM     13  C   UNL     1       3.063   6.502  18.834  0.00  0.00    +0.000 A 
ATOM     14  N   UNL     1       3.389   5.234  19.264  0.00  0.00    +0.000 N 
ATOM     15  C   UNL     1       4.449   4.559  18.652  0.00  0.00    +0.000 A 
ATOM     16  O   UNL     1       4.848   3.474  19.081  0.00  0.00    +0.000 OA
ATOM     17  H   UNL     1       3.382   9.014  16.957  0.00  0.00    +0.000 HD
BRANCH   6  18
ATOM     18  C   UNL     1       6.080   4.409  16.827  0.00  0.00    +0.000 C 
BRANCH  18  20
ATOM     19  C   UNL     1       6.112   4.094  14.294  0.00  0.00    +0.000 C 
ATOM     20  C   UNL     1       5.569   3.600  15.627  0.00  0.00    +0.000 C 
ENDBRANCH  18  20
ENDBRANCH   6  18
BRANCH  14  21
ATOM     21  C   UNL     1       2.651   4.586  20.346  0.00  0.00    +0.000 C 
BRANCH  21  22
ATOM     22  C   UNL     1       1.314   3.978  19.894  0.00  0.00    +0.000 C 
ATOM     23  C   UNL     1       1.381   2.497  19.542  0.00  0.00    +0.000 C 
ENDBRANCH  21  22
ENDBRANCH  14  21
ENDBRANCH   1  11
BRANCH   3  24
ATOM     24  C   UNL     1      -1.199  11.964  20.077  0.00  0.00    +0.000 C 
ATOM     25  C   UNL     1      -2.429  12.008  19.180  0.00  0.00    +0.000 C 
ENDBRANCH   3  24
BRANCH   4  26
ATOM     26  C   UNL     1       1.061  13.119  18.261  0.00  0.00    +0.000 C 
BRANCH  26  27
ATOM     27  C   UNL     1       2.299  13.792  18.803  0.00  0.00    +0.000 C 
ATOM     28  O   UNL     1       2.595  13.635  19.986  0.00  0.00    +0.000 OA
ATOM     29  N   UNL     1       3.041  14.523  17.881  0.00  0.00    +0.000 N 
ATOM     30  H   UNL     1       2.591  14.755  16.998  0.00  0.00    +0.000 HD
BRANCH  29  31
ATOM     31  C   UNL     1       4.312  15.098  18.120  0.00  0.00    +0.000 A 
ATOM     32  C   UNL     1       5.512  14.445  17.809  0.00  0.00    +0.000 A 
ATOM     33  C   UNL     1       6.749  15.048  18.058  0.00  0.00    +0.000 A 
ATOM     34  C   UNL     1       6.799  16.316  18.620  0.00  0.00    +0.000 A 
ATOM     35 CL   UNL     1       8.321  17.053  18.931  0.00  0.00    +0.000 Cl
ATOM     36  C   UNL     1       5.617  16.991  18.925  0.00  0.00    +0.000 A 
ATOM     37  C   UNL     1       4.378  16.387  18.667  0.00  0.00    +0.000 A 
ENDBRANCH  29  31
ENDBRANCH  26  27
ENDBRANCH   4  26
TORSDOF 9
ENDMDL
MODEL 8
REMARK VINA RESULT:      -8.1      3.454      4.629
REMARK  Name = 
REMARK  12 active torsions:
REMARK  status: ('A' for Active; 'I' for Inactive)
REMARK    1  A    between atoms: C_1  and  C_2
REMARK    2  A    between atoms: C_2  and  C_3
REMARK    3  A    between atoms: C_3  and  N_4
REMARK    4  A    between atoms: C_9  and  C_10
REMARK    5  A    between atoms: C_12  and  C_13
REMARK    6  A    between atoms: C_13  and  C_14
REMARK    7  A    between atoms: N_15  and  C_16
REMARK    8  A    between atoms: C_16  and  C_17
REMARK    9  A    between atoms: N_19  and  C_20
REMARK   10  A    between atoms: N_30  and  C_31
REMARK   11  A    between atoms: C_31  and  C_32
REMARK   12  A    between atoms: C_32  and  C_33
REMARK                            x       y       z     vdW  Elec       q    Type
REMARK                         _______ _______ _______ _____ _____    ______ ____
ROOT
ATOM      1  C   UNL     1       1.070   9.114  19.528  0.00  0.00    +0.000 A 
ATOM      2  C   UNL     1       0.382   9.386  20.724  0.00  0.00    +0.000 A 
ATOM      3  C   UNL     1      -0.240  10.604  20.525  0.00  0.00    +0.000 A 
ATOM      4  N   UNL     1       0.019  10.927  19.213  0.00  0.00    +0.000 N 
ATOM      5  N   UNL     1       0.853  10.056  18.603  0.00  0.00    +0.000 NA
ENDROOT
BRANCH   1  11
ATOM      6  N   UNL     1       4.972   4.981  17.833  0.00  0.00    +0.000 N 
ATOM      7  C   UNL     1       4.473   6.206  17.383  0.00  0.00    +0.000 A 
ATOM      8  O   UNL     1       4.840   6.788  16.367  0.00  0.00    +0.000 OA
ATOM      9  C   UNL     1       3.476   6.734  18.234  0.00  0.00    +0.000 A 
ATOM     10  N   UNL     1       2.781   7.902  18.160  0.00  0.00    +0.000 N 
ATOM     11  C   UNL     1       1.952   7.947  19.256  0.00  0.00    +0.000 A 
ATOM     12  N   UNL     1       2.069   6.855  19.994  0.00  0.00    +0.000 NA
ATOM     13  C   UNL     1       3.015   6.111  19.351  0.00  0.00    +0.000 A 
ATOM     14  N   UNL     1       3.516   4.887  19.738  0.00  0.00    +0.000 N 
ATOM     15  C   UNL     1       4.575   4.327  19.017  0.00  0.00    +0.000 A 
ATOM     16  O   UNL     1       5.129   3.293  19.397  0.00  0.00    +0.000 OA
ATOM     17  H   UNL     1       2.871   8.634  17.468  0.00  0.00    +0.000 HD
BRANCH   6  18
ATOM     18  C   UNL     1       6.019   4.344  17.035  0.00  0.00    +0.000 C 
BRANCH  18  20
ATOM     19  C   UNL     1       7.663   5.498  18.609  0.00  0.00    +0.000 C 
ATOM     20  C   UNL     1       7.399   4.994  17.199  0.00  0.00    +0.000 C 
ENDBRANCH  18  20
ENDBRANCH   6  18
BRANCH  14  21
ATOM     21  C   UNL     1       2.965   4.168  20.885  0.00  0.00    +0.000 C 
BRANCH  21  22
ATOM     22  C   UNL     1       2.096   2.964  20.491  0.00  0.00    +0.000 C 
ATOM     23  C   UNL     1       0.660   3.316  20.121  0.00  0.00    +0.000 C 
ENDBRANCH  21  22
ENDBRANCH  14  21
ENDBRANCH   1  11
BRANCH   3  24
ATOM     24  C   UNL     1      -1.066  11.447  21.446  0.00  0.00    +0.000 C 
ATOM     25  C   UNL     1      -0.936  11.032  22.906  0.00  0.00    +0.000 C 
ENDBRANCH   3  24
BRANCH   4  26
ATOM     26  C   UNL     1      -0.476  12.047  18.441  0.00  0.00    +0.000 C 
BRANCH  26  27
ATOM     27  C   UNL     1       0.361  13.293  18.608  0.00  0.00    +0.000 C 
ATOM     28  O   UNL     1      -0.202  14.368  18.807  0.00  0.00    +0.000 OA
ATOM     29  N   UNL     1       1.739  13.105  18.559  0.00  0.00    +0.000 N 
ATOM     30  H   UNL     1       2.076  12.223  18.181  0.00  0.00    +0.000 HD
BRANCH  29  31
ATOM     31  C   UNL     1       2.713  14.089  18.850  0.00  0.00    +0.000 A 
ATOM     32  C   UNL     1       3.260  14.262  20.128  0.00  0.00    +0.000 A 
ATOM     33  C   UNL     1       4.223  15.245  20.376  0.00  0.00    +0.000 A 
ATOM     34  C   UNL     1       4.654  16.066  19.342  0.00  0.00    +0.000 A 
ATOM     35 CL   UNL     1       5.834  17.278  19.651  0.00  0.00    +0.000 Cl
ATOM     36  C   UNL     1       4.133  15.903  18.059  0.00  0.00    +0.000 A 
ATOM     37  C   UNL     1       3.173  14.911  17.812  0.00  0.00    +0.000 A 
ENDBRANCH  29  31
ENDBRANCH  26  27
ENDBRANCH   4  26
TORSDOF 9
ENDMDL
MODEL 9
REMARK VINA RESULT:      -8.0      2.720      4.131
REMARK  Name = 
REMARK  12 active torsions:
REMARK  status: ('A' for Active; 'I' for Inactive)
REMARK    1  A    between atoms: C_1  and  C_2
REMARK    2  A    between atoms: C_2  and  C_3
REMARK    3  A    between atoms: C_3  and  N_4
REMARK    4  A    between atoms: C_9  and  C_10
REMARK    5  A    between atoms: C_12  and  C_13
REMARK    6  A    between atoms: C_13  and  C_14
REMARK    7  A    between atoms: N_15  and  C_16
REMARK    8  A    between atoms: C_16  and  C_17
REMARK    9  A    between atoms: N_19  and  C_20
REMARK   10  A    between atoms: N_30  and  C_31
REMARK   11  A    between atoms: C_31  and  C_32
REMARK   12  A    between atoms: C_32  and  C_33
REMARK                            x       y       z     vdW  Elec       q    Type
REMARK                         _______ _______ _______ _____ _____    ______ ____
ROOT
ATOM      1  C   UNL     1       1.327   9.194  18.777  0.00  0.00    +0.000 A 
ATOM      2  C   UNL     1       0.342   9.567  17.845  0.00  0.00    +0.000 A 
ATOM      3  C   UNL     1      -0.355  10.603  18.438  0.00  0.00    +0.000 A 
ATOM      4  N   UNL     1       0.309  10.852  19.616  0.00  0.00    +0.000 N 
ATOM      5  N   UNL     1       1.308   9.976  19.862  0.00  0.00    +0.000 NA
ENDROOT
BRANCH   1  11
ATOM      6  N   UNL     1       5.690   5.306  17.760  0.00  0.00    +0.000 N 
ATOM      7  C   UNL     1       5.245   6.541  17.280  0.00  0.00    +0.000 A 
ATOM      8  O   UNL     1       5.799   7.198  16.405  0.00  0.00    +0.000 OA
ATOM      9  C   UNL     1       4.063   6.980  17.917  0.00  0.00    +0.000 A 
ATOM     10  N   UNL     1       3.349   8.128  17.757  0.00  0.00    +0.000 N 
ATOM     11  C   UNL     1       2.299   8.076  18.642  0.00  0.00    +0.000 A 
ATOM     12  N   UNL     1       2.301   6.943  19.326  0.00  0.00    +0.000 NA
ATOM     13  C   UNL     1       3.397   6.272  18.868  0.00  0.00    +0.000 A 
ATOM     14  N   UNL     1       3.857   5.042  19.287  0.00  0.00    +0.000 N 
ATOM     15  C   UNL     1       5.072   4.564  18.789  0.00  0.00    +0.000 A 
ATOM     16  O   UNL     1       5.577   3.526  19.224  0.00  0.00    +0.000 OA
ATOM     17  H   UNL     1       3.555   8.906  17.144  0.00  0.00    +0.000 HD
BRANCH   6  18
ATOM     18  C   UNL     1       6.913   4.756  17.180  0.00  0.00    +0.000 C 
BRANCH  18  20
ATOM     19  C   UNL     1       5.800   3.613  15.189  0.00  0.00    +0.000 C 
ATOM     20  C   UNL     1       6.857   4.602  15.655  0.00  0.00    +0.000 C 
ENDBRANCH  18  20
ENDBRANCH   6  18
BRANCH  14  21
ATOM     21  C   UNL     1       3.101   4.234  20.241  0.00  0.00    +0.000 C 
BRANCH  21  22
ATOM     22  C   UNL     1       2.104   3.274  19.574  0.00  0.00    +0.000 C 
ATOM     23  C   UNL     1       0.708   3.289  20.183  0.00  0.00    +0.000 C 
ENDBRANCH  21  22
ENDBRANCH  14  21
ENDBRANCH   1  11
BRANCH   3  24
ATOM     24  C   UNL     1      -1.550  11.377  17.972  0.00  0.00    +0.000 C 
ATOM     25  C   UNL     1      -2.839  10.566  18.030  0.00  0.00    +0.000 C 
ENDBRANCH   3  24
BRANCH   4  26
ATOM     26  C   UNL     1       0.073  11.902  20.585  0.00  0.00    +0.000 C 
BRANCH  26  27
ATOM     27  C   UNL     1      -1.189  11.688  21.387  0.00  0.00    +0.000 C 
ATOM     28  O   UNL     1      -1.257  10.722  22.146  0.00  0.00    +0.000 OA
ATOM     29  N   UNL     1      -2.180  12.651  21.222  0.00  0.00    +0.000 N 
ATOM     30  H   UNL     1      -2.097  13.272  20.421  0.00  0.00    +0.000 HD
BRANCH  29  31
ATOM     31  C   UNL     1      -3.367  12.745  21.985  0.00  0.00    +0.000 A 
ATOM     32  C   UNL     1      -3.367  12.848  23.382  0.00  0.00    +0.000 A 
ATOM     33  C   UNL     1      -4.563  12.943  24.101  0.00  0.00    +0.000 A 
ATOM     34  C   UNL     1      -5.777  12.939  23.426  0.00  0.00    +0.000 A 
ATOM     35 CL   UNL     1      -7.246  13.050  24.313  0.00  0.00    +0.000 Cl
ATOM     36  C   UNL     1      -5.801  12.852  22.035  0.00  0.00    +0.000 A 
ATOM     37  C   UNL     1      -4.600  12.765  21.317  0.00  0.00    +0.000 A 
ENDBRANCH  29  31
ENDBRANCH  26  27
ENDBRANCH   4  26
TORSDOF 9
ENDMDL
