MODEL 1
REMARK VINA RESULT:      -8.4      0.000      0.000
REMARK  Name = 
REMARK  2 active torsions:
REMARK  status: ('A' for Active; 'I' for Inactive)
REMARK    1  A    between atoms: C_2  and  C_14
REMARK    2  A    between atoms: N_3  and  C_4
REMARK                            x       y       z     vdW  Elec       q    Type
REMARK                         _______ _______ _______ _____ _____    ______ ____
ROOT
ATOM      1  O   UNL     1       5.923   3.911  18.410  0.00  0.00    +0.000 OA
ATOM      2  C   UNL     1       5.284   4.221  17.409  0.00  0.00    +0.000 C 
ATOM      3  N   UNL     1       3.908   4.212  17.341  0.00  0.00    +0.000 N 
ATOM      4  H   UNL     1       3.457   4.336  16.447  0.00  0.00    +0.000 HD
ENDROOT
BRANCH   3   5
ATOM      5  C   UNL     1       3.050   3.839  18.473  0.00  0.00    +0.000 C 
ATOM      6  C   UNL     1       3.331   4.736  19.706  0.00  0.00    +0.000 C 
ATOM      7  C   UNL     1       2.427   4.341  20.881  0.00  0.00    +0.000 C 
ATOM      8  C   UNL     1       0.959   4.536  20.475  0.00  0.00    +0.000 C 
ATOM      9  C   UNL     1       0.632   3.659  19.256  0.00  0.00    +0.000 C 
ATOM     10  C   UNL     1       0.863   2.185  19.628  0.00  0.00    +0.000 C 
ATOM     11  C   UNL     1       2.331   1.969  20.027  0.00  0.00    +0.000 C 
ATOM     12  C   UNL     1       2.675   2.864  21.230  0.00  0.00    +0.000 C 
ATOM     13  C   UNL     1       3.235   2.347  18.845  0.00  0.00    +0.000 C 
ATOM     14  C   UNL     1       1.559   4.042  18.085  0.00  0.00    +0.000 C 
ENDBRANCH   3   5
BRANCH   2  15
ATOM     15  C   UNL     1       6.015   4.609  16.159  0.00  0.00    +0.000 A 
ATOM     16  C   UNL     1       5.651   3.985  14.906  0.00  0.00    +0.000 A 
ATOM     17  C   UNL     1       6.327   4.247  13.783  0.00  0.00    +0.000 A 
ATOM     18  C   UNL     1       7.457   5.194  13.784  0.00  0.00    +0.000 A 
ATOM     19  O   UNL     1       8.065   5.437  12.748  0.00  0.00    +0.000 OA
ATOM     20  O   UNL     1       7.780   5.773  14.981  0.00  0.00    +0.000 OA
ATOM     21  C   UNL     1       7.056   5.450  16.146  0.00  0.00    +0.000 A 
ENDBRANCH   2  15
TORSDOF 2
ENDMDL
MODEL 2
REMARK VINA RESULT:      -8.3      0.203      1.760
REMARK  Name = 
REMARK  2 active torsions:
REMARK  status: ('A' for Active; 'I' for Inactive)
REMARK    1  A    between atoms: C_2  and  C_14
REMARK    2  A    between atoms: N_3  and  C_4
REMARK                            x       y       z     vdW  Elec       q    Type
REMARK                         _______ _______ _______ _____ _____    ______ ____
ROOT
ATOM      1  O   UNL     1       5.887   4.023  18.544  0.00  0.00    +0.000 OA
ATOM      2  C   UNL     1       5.251   4.290  17.527  0.00  0.00    +0.000 C 
ATOM      3  N   UNL     1       3.877   4.259  17.450  0.00  0.00    +0.000 N 
ATOM      4  H   UNL     1       3.431   4.347  16.549  0.00  0.00    +0.000 HD
ENDROOT
BRANCH   3   5
ATOM      5  C   UNL     1       3.015   3.912  18.587  0.00  0.00    +0.000 C 
ATOM      6  C   UNL     1       1.524   3.865  18.164  0.00  0.00    +0.000 C 
ATOM      7  C   UNL     1       0.633   3.498  19.358  0.00  0.00    +0.000 C 
ATOM      8  C   UNL     1       1.026   2.105  19.871  0.00  0.00    +0.000 C 
ATOM      9  C   UNL     1       2.499   2.106  20.309  0.00  0.00    +0.000 C 
ATOM     10  C   UNL     1       2.681   3.133  21.439  0.00  0.00    +0.000 C 
ATOM     11  C   UNL     1       2.302   4.535  20.940  0.00  0.00    +0.000 C 
ATOM     12  C   UNL     1       0.837   4.537  20.472  0.00  0.00    +0.000 C 
ATOM     13  C   UNL     1       3.206   4.909  19.756  0.00  0.00    +0.000 C 
ATOM     14  C   UNL     1       3.390   2.498  19.113  0.00  0.00    +0.000 C 
ENDBRANCH   3   5
BRANCH   2  15
ATOM     15  C   UNL     1       5.987   4.646  16.271  0.00  0.00    +0.000 A 
ATOM     16  C   UNL     1       5.618   4.001  15.030  0.00  0.00    +0.000 A 
ATOM     17  C   UNL     1       6.297   4.235  13.902  0.00  0.00    +0.000 A 
ATOM     18  C   UNL     1       7.436   5.170  13.886  0.00  0.00    +0.000 A 
ATOM     19  O   UNL     1       8.047   5.387  12.846  0.00  0.00    +0.000 OA
ATOM     20  O   UNL     1       7.764   5.770  15.071  0.00  0.00    +0.000 OA
ATOM     21  C   UNL     1       7.036   5.476  16.242  0.00  0.00    +0.000 A 
ENDBRANCH   2  15
TORSDOF 2
ENDMDL
MODEL 3
REMARK VINA RESULT:      -8.3      0.044      1.683
REMARK  Name = 
REMARK  2 active torsions:
REMARK  status: ('A' for Active; 'I' for Inactive)
REMARK    1  A    between atoms: C_2  and  C_14
REMARK    2  A    between atoms: N_3  and  C_4
REMARK                            x       y       z     vdW  Elec       q    Type
REMARK                         _______ _______ _______ _____ _____    ______ ____
ROOT
ATOM      1  O   UNL     1       5.885   4.000  18.433  0.00  0.00    +0.000 OA
ATOM      2  C   UNL     1       5.253   4.244  17.409  0.00  0.00    +0.000 C 
ATOM      3  N   UNL     1       3.881   4.170  17.316  0.00  0.00    +0.000 N 
ATOM      4  H   UNL     1       3.443   4.241  16.411  0.00  0.00    +0.000 HD
ENDROOT
BRANCH   3   5
ATOM      5  C   UNL     1       3.018   3.800  18.445  0.00  0.00    +0.000 C 
ATOM      6  C   UNL     1       3.260   2.330  18.876  0.00  0.00    +0.000 C 
ATOM      7  C   UNL     1       2.356   1.956  20.058  0.00  0.00    +0.000 C 
ATOM      8  C   UNL     1       2.687   2.862  21.252  0.00  0.00    +0.000 C 
ATOM      9  C   UNL     1       2.455   4.333  20.872  0.00  0.00    +0.000 C 
ATOM     10  C   UNL     1       0.978   4.520  20.488  0.00  0.00    +0.000 C 
ATOM     11  C   UNL     1       0.632   3.628  19.287  0.00  0.00    +0.000 C 
ATOM     12  C   UNL     1       0.888   2.155  19.648  0.00  0.00    +0.000 C 
ATOM     13  C   UNL     1       1.524   4.015  18.098  0.00  0.00    +0.000 C 
ATOM     14  C   UNL     1       3.347   4.700  19.670  0.00  0.00    +0.000 C 
ENDBRANCH   3   5
BRANCH   2  15
ATOM     15  C   UNL     1       5.991   4.619  16.159  0.00  0.00    +0.000 A 
ATOM     16  C   UNL     1       5.610   4.008  14.904  0.00  0.00    +0.000 A 
ATOM     17  C   UNL     1       6.291   4.258  13.781  0.00  0.00    +0.000 A 
ATOM     18  C   UNL     1       7.443   5.177  13.784  0.00  0.00    +0.000 A 
ATOM     19  O   UNL     1       8.055   5.409  12.748  0.00  0.00    +0.000 OA
ATOM     20  O   UNL     1       7.783   5.744  14.982  0.00  0.00    +0.000 OA
ATOM     21  C   UNL     1       7.053   5.433  16.147  0.00  0.00    +0.000 A 
ENDBRANCH   2  15
TORSDOF 2
ENDMDL
MODEL 4
REMARK VINA RESULT:      -7.8      4.512      7.130
REMARK  Name = 
REMARK  2 active torsions:
REMARK  status: ('A' for Active; 'I' for Inactive)
REMARK    1  A    between atoms: C_2  and  C_14
REMARK    2  A    between atoms: N_3  and  C_4
REMARK                            x       y       z     vdW  Elec       q    Type
REMARK                         _______ _______ _______ _____ _____    ______ ____
ROOT
ATOM      1  O   UNL     1       2.389   7.859  18.913  0.00  0.00    +0.000 OA
ATOM      2  C   UNL     1       1.896   7.517  19.984  0.00  0.00    +0.000 C 
ATOM      3  N   UNL     1       1.906   6.223  20.456  0.00  0.00    +0.000 N 
ATOM      4  H   UNL     1       1.356   5.990  21.270  0.00  0.00    +0.000 HD
ENDROOT
BRANCH   3   5
ATOM      5  C   UNL     1       2.523   5.107  19.730  0.00  0.00    +0.000 C 
ATOM      6  C   UNL     1       4.060   5.289  19.627  0.00  0.00    +0.000 C 
ATOM      7  C   UNL     1       4.696   4.116  18.869  0.00  0.00    +0.000 C 
ATOM      8  C   UNL     1       4.421   2.814  19.636  0.00  0.00    +0.000 C 
ATOM      9  C   UNL     1       2.906   2.588  19.757  0.00  0.00    +0.000 C 
ATOM     10  C   UNL     1       2.304   2.482  18.346  0.00  0.00    +0.000 C 
ATOM     11  C   UNL     1       2.561   3.781  17.568  0.00  0.00    +0.000 C 
ATOM     12  C   UNL     1       4.075   4.031  17.466  0.00  0.00    +0.000 C 
ATOM     13  C   UNL     1       1.909   4.953  18.317  0.00  0.00    +0.000 C 
ATOM     14  C   UNL     1       2.267   3.780  20.497  0.00  0.00    +0.000 C 
ENDBRANCH   3   5
BRANCH   2  15
ATOM     15  C   UNL     1       1.208   8.538  20.839  0.00  0.00    +0.000 A 
ATOM     16  C   UNL     1       0.231   9.419  20.238  0.00  0.00    +0.000 A 
ATOM     17  C   UNL     1      -0.350  10.392  20.948  0.00  0.00    +0.000 A 
ATOM     18  C   UNL     1      -0.022  10.588  22.371  0.00  0.00    +0.000 A 
ATOM     19  O   UNL     1      -0.567  11.475  23.018  0.00  0.00    +0.000 OA
ATOM     20  O   UNL     1       0.903   9.740  22.918  0.00  0.00    +0.000 OA
ATOM     21  C   UNL     1       1.508   8.744  22.127  0.00  0.00    +0.000 A 
ENDBRANCH   2  15
TORSDOF 2
ENDMDL
MODEL 5
REMARK VINA RESULT:      -7.7      4.465      7.015
REMARK  Name = 
REMARK  2 active torsions:
REMARK  status: ('A' for Active; 'I' for Inactive)
REMARK    1  A    between atoms: C_2  and  C_14
REMARK    2  A    between atoms: N_3  and  C_4
REMARK                            x       y       z     vdW  Elec       q    Type
REMARK                         _______ _______ _______ _____ _____    ______ ____
ROOT
ATOM      1  O   UNL     1       2.538   7.806  18.649  0.00  0.00    +0.000 OA
ATOM      2  C   UNL     1       2.040   7.549  19.742  0.00  0.00    +0.000 C 
ATOM      3  N   UNL     1       2.000   6.286  20.290  0.00  0.00    +0.000 N 
ATOM      4  H   UNL     1       1.449   6.125  21.120  0.00  0.00    +0.000 HD
ENDROOT
BRANCH   3   5
ATOM      5  C   UNL     1       2.562   5.103  19.626  0.00  0.00    +0.000 C 
ATOM      6  C   UNL     1       4.106   5.204  19.518  0.00  0.00    +0.000 C 
ATOM      7  C   UNL     1       4.684   3.962  18.828  0.00  0.00    +0.000 C 
ATOM      8  C   UNL     1       4.346   2.719  19.662  0.00  0.00    +0.000 C 
ATOM      9  C   UNL     1       2.821   2.574  19.791  0.00  0.00    +0.000 C 
ATOM     10  C   UNL     1       2.216   2.421  18.386  0.00  0.00    +0.000 C 
ATOM     11  C   UNL     1       2.536   3.663  17.539  0.00  0.00    +0.000 C 
ATOM     12  C   UNL     1       4.060   3.832  17.428  0.00  0.00    +0.000 C 
ATOM     13  C   UNL     1       1.942   4.903  18.222  0.00  0.00    +0.000 C 
ATOM     14  C   UNL     1       2.241   3.834  20.464  0.00  0.00    +0.000 C 
ENDBRANCH   3   5
BRANCH   2  15
ATOM     15  C   UNL     1       1.405   8.647  20.539  0.00  0.00    +0.000 A 
ATOM     16  C   UNL     1       1.266   8.491  21.971  0.00  0.00    +0.000 A 
ATOM     17  C   UNL     1       0.638   9.414  22.708  0.00  0.00    +0.000 A 
ATOM     18  C   UNL     1       0.080  10.627  22.084  0.00  0.00    +0.000 A 
ATOM     19  O   UNL     1      -0.484  11.473  22.769  0.00  0.00    +0.000 OA
ATOM     20  O   UNL     1       0.226  10.753  20.730  0.00  0.00    +0.000 OA
ATOM     21  C   UNL     1       0.874   9.745  19.988  0.00  0.00    +0.000 A 
ENDBRANCH   2  15
TORSDOF 2
ENDMDL
MODEL 6
REMARK VINA RESULT:      -7.7      4.536      7.118
REMARK  Name = 
REMARK  2 active torsions:
REMARK  status: ('A' for Active; 'I' for Inactive)
REMARK    1  A    between atoms: C_2  and  C_14
REMARK    2  A    between atoms: N_3  and  C_4
REMARK                            x       y       z     vdW  Elec       q    Type
REMARK                         _______ _______ _______ _____ _____    ______ ____
ROOT
ATOM      1  O   UNL     1       2.318   7.859  18.882  0.00  0.00    +0.000 OA
ATOM      2  C   UNL     1       1.870   7.537  19.979  0.00  0.00    +0.000 C 
ATOM      3  N   UNL     1       1.927   6.258  20.487  0.00  0.00    +0.000 N 
ATOM      4  H   UNL     1       1.411   6.037  21.326  0.00  0.00    +0.000 HD
ENDROOT
BRANCH   3   5
ATOM      5  C   UNL     1       2.546   5.135  19.772  0.00  0.00    +0.000 C 
ATOM      6  C   UNL     1       2.306   3.797  20.518  0.00  0.00    +0.000 C 
ATOM      7  C   UNL     1       2.953   2.630  19.761  0.00  0.00    +0.000 C 
ATOM      8  C   UNL     1       2.317   2.519  18.368  0.00  0.00    +0.000 C 
ATOM      9  C   UNL     1       2.536   3.825  17.587  0.00  0.00    +0.000 C 
ATOM     10  C   UNL     1       4.047   4.066  17.437  0.00  0.00    +0.000 C 
ATOM     11  C   UNL     1       4.699   4.190  18.822  0.00  0.00    +0.000 C 
ATOM     12  C   UNL     1       4.460   2.898  19.622  0.00  0.00    +0.000 C 
ATOM     13  C   UNL     1       4.064   5.370  19.573  0.00  0.00    +0.000 C 
ATOM     14  C   UNL     1       1.905   4.998  18.362  0.00  0.00    +0.000 C 
ENDBRANCH   3   5
BRANCH   2  15
ATOM     15  C   UNL     1       1.187   8.567  20.827  0.00  0.00    +0.000 A 
ATOM     16  C   UNL     1       0.257   9.487  20.209  0.00  0.00    +0.000 A 
ATOM     17  C   UNL     1      -0.315  10.468  20.915  0.00  0.00    +0.000 A 
ATOM     18  C   UNL     1      -0.026  10.632  22.351  0.00  0.00    +0.000 A 
ATOM     19  O   UNL     1      -0.564  11.527  22.994  0.00  0.00    +0.000 OA
ATOM     20  O   UNL     1       0.854   9.749  22.913  0.00  0.00    +0.000 OA
ATOM     21  C   UNL     1       1.453   8.745  22.126  0.00  0.00    +0.000 A 
ENDBRANCH   2  15
TORSDOF 2
ENDMDL
MODEL 7
REMARK VINA RESULT:      -7.6      4.443      6.915
REMARK  Name = 
REMARK  2 active torsions:
REMARK  status: ('A' for Active; 'I' for Inactive)
REMARK    1  A    between atoms: C_2  and  C_14
REMARK    2  A    between atoms: N_3  and  C_4
REMARK                            x       y       z     vdW  Elec       q    Type
REMARK                         _______ _______ _______ _____ _____    ______ ____
ROOT
ATOM      1  O   UNL     1       2.460   7.712  18.495  0.00  0.00    +0.000 OA
ATOM      2  C   UNL     1       2.028   7.509  19.627  0.00  0.00    +0.000 C 
ATOM      3  N   UNL     1       2.047   6.280  20.247  0.00  0.00    +0.000 N 
ATOM      4  H   UNL     1       1.546   6.156  21.114  0.00  0.00    +0.000 HD
ENDROOT
BRANCH   3   5
ATOM      5  C   UNL     1       2.600   5.072  19.622  0.00  0.00    +0.000 C 
ATOM      6  C   UNL     1       2.221   3.802  20.428  0.00  0.00    +0.000 C 
ATOM      7  C   UNL     1       2.801   2.546  19.764  0.00  0.00    +0.000 C 
ATOM      8  C   UNL     1       2.215   2.406  18.352  0.00  0.00    +0.000 C 
ATOM      9  C   UNL     1       2.572   3.643  17.513  0.00  0.00    +0.000 C 
ATOM     10  C   UNL     1       4.103   3.754  17.418  0.00  0.00    +0.000 C 
ATOM     11  C   UNL     1       4.706   3.906  18.822  0.00  0.00    +0.000 C 
ATOM     12  C   UNL     1       4.329   2.685  19.679  0.00  0.00    +0.000 C 
ATOM     13  C   UNL     1       4.139   5.173  19.479  0.00  0.00    +0.000 C 
ATOM     14  C   UNL     1       2.009   4.906  18.194  0.00  0.00    +0.000 C 
ENDBRANCH   3   5
BRANCH   2  15
ATOM     15  C   UNL     1       1.412   8.639  20.394  0.00  0.00    +0.000 A 
ATOM     16  C   UNL     1       1.211   8.498  21.820  0.00  0.00    +0.000 A 
ATOM     17  C   UNL     1       0.597   9.452  22.528  0.00  0.00    +0.000 A 
ATOM     18  C   UNL     1       0.117  10.685  21.878  0.00  0.00    +0.000 A 
ATOM     19  O   UNL     1      -0.435  11.558  22.536  0.00  0.00    +0.000 OA
ATOM     20  O   UNL     1       0.320  10.796  20.530  0.00  0.00    +0.000 OA
ATOM     21  C   UNL     1       0.951   9.756  19.818  0.00  0.00    +0.000 A 
ENDBRANCH   2  15
TORSDOF 2
ENDMDL
MODEL 8
REMARK VINA RESULT:      -7.6      4.526      7.131
REMARK  Name = 
REMARK  2 active torsions:
REMARK  status: ('A' for Active; 'I' for Inactive)
REMARK    1  A    between atoms: C_2  and  C_14
REMARK    2  A    between atoms: N_3  and  C_4
REMARK                            x       y       z     vdW  Elec       q    Type
REMARK                         _______ _______ _______ _____ _____    ______ ____
ROOT
ATOM      1  O   UNL     1       2.282   7.829  18.750  0.00  0.00    +0.000 OA
ATOM      2  C   UNL     1       1.867   7.537  19.868  0.00  0.00    +0.000 C 
ATOM      3  N   UNL     1       1.940   6.273  20.409  0.00  0.00    +0.000 N 
ATOM      4  H   UNL     1       1.450   6.075  21.269  0.00  0.00    +0.000 HD
ENDROOT
BRANCH   3   5
ATOM      5  C   UNL     1       2.538   5.130  19.707  0.00  0.00    +0.000 C 
ATOM      6  C   UNL     1       1.919   4.955  18.296  0.00  0.00    +0.000 C 
ATOM      7  C   UNL     1       2.554   3.762  17.570  0.00  0.00    +0.000 C 
ATOM      8  C   UNL     1       4.058   4.017  17.401  0.00  0.00    +0.000 C 
ATOM      9  C   UNL     1       4.717   4.191  18.779  0.00  0.00    +0.000 C 
ATOM     10  C   UNL     1       4.510   2.905  19.596  0.00  0.00    +0.000 C 
ATOM     11  C   UNL     1       3.008   2.639  19.784  0.00  0.00    +0.000 C 
ATOM     12  C   UNL     1       2.335   2.492  18.409  0.00  0.00    +0.000 C 
ATOM     13  C   UNL     1       2.377   3.826  20.526  0.00  0.00    +0.000 C 
ATOM     14  C   UNL     1       4.061   5.376  19.516  0.00  0.00    +0.000 C 
ENDBRANCH   3   5
BRANCH   2  15
ATOM     15  C   UNL     1       1.209   8.590  20.707  0.00  0.00    +0.000 A 
ATOM     16  C   UNL     1       0.353   9.567  20.071  0.00  0.00    +0.000 A 
ATOM     17  C   UNL     1      -0.193  10.567  20.771  0.00  0.00    +0.000 A 
ATOM     18  C   UNL     1       0.051  10.696  22.220  0.00  0.00    +0.000 A 
ATOM     19  O   UNL     1      -0.462  11.609  22.856  0.00  0.00    +0.000 OA
ATOM     20  O   UNL     1       0.862   9.758  22.799  0.00  0.00    +0.000 OA
ATOM     21  C   UNL     1       1.436   8.735  22.018  0.00  0.00    +0.000 A 
ENDBRANCH   2  15
TORSDOF 2
ENDMDL
MODEL 9
REMARK VINA RESULT:      -7.6      4.425      6.976
REMARK  Name = 
REMARK  2 active torsions:
REMARK  status: ('A' for Active; 'I' for Inactive)
REMARK    1  A    between atoms: C_2  and  C_14
REMARK    2  A    between atoms: N_3  and  C_4
REMARK                            x       y       z     vdW  Elec       q    Type
REMARK                         _______ _______ _______ _____ _____    ______ ____
ROOT
ATOM      1  O   UNL     1       2.379   7.678  18.436  0.00  0.00    +0.000 OA
ATOM      2  C   UNL     1       1.999   7.481  19.587  0.00  0.00    +0.000 C 
ATOM      3  N   UNL     1       2.051   6.257  20.215  0.00  0.00    +0.000 N 
ATOM      4  H   UNL     1       1.589   6.137  21.104  0.00  0.00    +0.000 HD
ENDROOT
BRANCH   3   5
ATOM      5  C   UNL     1       2.584   5.047  19.575  0.00  0.00    +0.000 C 
ATOM      6  C   UNL     1       2.037   4.890  18.132  0.00  0.00    +0.000 C 
ATOM      7  C   UNL     1       2.603   3.626  17.472  0.00  0.00    +0.000 C 
ATOM      8  C   UNL     1       4.132   3.741  17.392  0.00  0.00    +0.000 C 
ATOM      9  C   UNL     1       4.720   3.892  18.804  0.00  0.00    +0.000 C 
ATOM     10  C   UNL     1       4.348   2.652  19.632  0.00  0.00    +0.000 C 
ATOM     11  C   UNL     1       2.821   2.527  19.733  0.00  0.00    +0.000 C 
ATOM     12  C   UNL     1       2.220   2.404  18.322  0.00  0.00    +0.000 C 
ATOM     13  C   UNL     1       2.256   3.784  20.410  0.00  0.00    +0.000 C 
ATOM     14  C   UNL     1       4.132   5.150  19.473  0.00  0.00    +0.000 C 
ENDBRANCH   3   5
BRANCH   2  15
ATOM     15  C   UNL     1       1.409   8.613  20.372  0.00  0.00    +0.000 A 
ATOM     16  C   UNL     1       1.183   8.446  21.791  0.00  0.00    +0.000 A 
ATOM     17  C   UNL     1       0.591   9.404  22.512  0.00  0.00    +0.000 A 
ATOM     18  C   UNL     1       0.162  10.667  21.885  0.00  0.00    +0.000 A 
ATOM     19  O   UNL     1      -0.370  11.543  22.556  0.00  0.00    +0.000 OA
ATOM     20  O   UNL     1       0.388  10.802  20.543  0.00  0.00    +0.000 OA
ATOM     21  C   UNL     1       0.994   9.758  19.816  0.00  0.00    +0.000 A 
ENDBRANCH   2  15
TORSDOF 2
ENDMDL
