MODEL 1
REMARK VINA RESULT:      -7.0      0.000      0.000
REMARK  Name = 
REMARK  7 active torsions:
REMARK  status: ('A' for Active; 'I' for Inactive)
REMARK    1  A    between atoms: C_1  and  C_2
REMARK    2  A    between atoms: C_2  and  C_3
REMARK    3  A    between atoms: C_12  and  C_13
REMARK    4  A    between atoms: C_13  and  C_14
REMARK    5  A    between atoms: N_21  and  C_22
REMARK    6  A    between atoms: C_22  and  C_23
REMARK    7  A    between atoms: C_23  and  C_24
REMARK                            x       y       z     vdW  Elec       q    Type
REMARK                         _______ _______ _______ _____ _____    ______ ____
ROOT
ATOM      1  C   UNL     1       0.007   9.165  21.380  0.00  0.00    +0.000 A 
ATOM      2  C   UNL     1       0.735   8.100  20.875  0.00  0.00    +0.000 A 
ATOM      3  C   UNL     1       1.488   8.213  19.689  0.00  0.00    +0.000 A 
ATOM      4  C   UNL     1       2.398   7.232  19.151  0.00  0.00    +0.000 A 
ATOM      5  C   UNL     1       3.103   7.487  17.966  0.00  0.00    +0.000 A 
ATOM      6  C   UNL     1       2.910   8.705  17.300  0.00  0.00    +0.000 A 
ATOM      7  C   UNL     1       2.036   9.622  17.849  0.00  0.00    +0.000 A 
ATOM      8  N   UNL     1       1.380   9.383  18.994  0.00  0.00    +0.000 N 
ATOM      9  N   UNL     1       0.592  10.390  19.416  0.00  0.00    +0.000 NA
ATOM     10  C   UNL     1      -0.081  10.286  20.581  0.00  0.00    +0.000 A 
ATOM     11  C   UNL     1       3.931   6.368  17.674  0.00  0.00    +0.000 A 
ATOM     12  C   UNL     1       4.835   6.087  16.622  0.00  0.00    +0.000 A 
ATOM     13  C   UNL     1       5.511   4.859  16.582  0.00  0.00    +0.000 A 
ATOM     14  C   UNL     1       5.268   3.910  17.560  0.00  0.00    +0.000 A 
ATOM     15  C   UNL     1       4.362   4.160  18.594  0.00  0.00    +0.000 A 
ATOM     16  C   UNL     1       3.707   5.405  18.659  0.00  0.00    +0.000 A 
ATOM     17  N   UNL     1       2.816   5.951  19.574  0.00  0.00    +0.000 N 
ENDROOT
BRANCH   1  19
ATOM     18  C   UNL     1       0.333   9.458  23.868  0.00  0.00    +0.000 C 
ATOM     19  C   UNL     1      -0.610   9.017  22.751  0.00  0.00    +0.000 C 
ENDBRANCH   1  19
BRANCH  10  20
ATOM     20  C   UNL     1      -0.985  11.437  20.983  0.00  0.00    +0.000 C 
ATOM     21  C   UNL     1      -1.798  12.059  19.855  0.00  0.00    +0.000 C 
ENDBRANCH  10  20
BRANCH  17  22
ATOM     22  C   UNL     1       2.307   5.268  20.760  0.00  0.00    +0.000 C 
BRANCH  22  23
ATOM     23  C   UNL     1       1.069   4.371  20.720  0.00  0.00    +0.000 C 
BRANCH  23  24
ATOM     24  C   UNL     1       1.355   2.892  20.516  0.00  0.00    +0.000 C 
ATOM     25 BR   UNL     1       1.089   2.357  18.661  0.00  0.00    +0.000 Br
ENDBRANCH  23  24
ENDBRANCH  22  23
ENDBRANCH  17  22
TORSDOF 5
ENDMDL
MODEL 2
REMARK VINA RESULT:      -6.6      3.270      6.010
REMARK  Name = 
REMARK  7 active torsions:
REMARK  status: ('A' for Active; 'I' for Inactive)
REMARK    1  A    between atoms: C_1  and  C_2
REMARK    2  A    between atoms: C_2  and  C_3
REMARK    3  A    between atoms: C_12  and  C_13
REMARK    4  A    between atoms: C_13  and  C_14
REMARK    5  A    between atoms: N_21  and  C_22
REMARK    6  A    between atoms: C_22  and  C_23
REMARK    7  A    between atoms: C_23  and  C_24
REMARK                            x       y       z     vdW  Elec       q    Type
REMARK                         _______ _______ _______ _____ _____    ______ ____
ROOT
ATOM      1  C   UNL     1      -2.930  13.150  21.802  0.00  0.00    +0.000 A 
ATOM      2  C   UNL     1      -1.997  12.548  20.974  0.00  0.00    +0.000 A 
ATOM      3  C   UNL     1      -1.252  11.425  21.389  0.00  0.00    +0.000 A 
ATOM      4  C   UNL     1      -0.372  10.627  20.571  0.00  0.00    +0.000 A 
ATOM      5  C   UNL     1       0.292   9.517  21.113  0.00  0.00    +0.000 A 
ATOM      6  C   UNL     1       0.099   9.191  22.462  0.00  0.00    +0.000 A 
ATOM      7  C   UNL     1      -0.757   9.974  23.210  0.00  0.00    +0.000 A 
ATOM      8  N   UNL     1      -1.407  11.022  22.684  0.00  0.00    +0.000 N 
ATOM      9  N   UNL     1      -2.231  11.662  23.534  0.00  0.00    +0.000 NA
ATOM     10  C   UNL     1      -2.976  12.703  23.106  0.00  0.00    +0.000 A 
ATOM     11  C   UNL     1       1.078   8.910  20.093  0.00  0.00    +0.000 A 
ATOM     12  C   UNL     1       1.934   7.784  20.080  0.00  0.00    +0.000 A 
ATOM     13  C   UNL     1       2.612   7.427  18.905  0.00  0.00    +0.000 A 
ATOM     14  C   UNL     1       2.462   8.198  17.766  0.00  0.00    +0.000 A 
ATOM     15  C   UNL     1       1.639   9.327  17.766  0.00  0.00    +0.000 A 
ATOM     16  C   UNL     1       0.929   9.670  18.933  0.00  0.00    +0.000 A 
ATOM     17  N   UNL     1       0.016  10.678  19.214  0.00  0.00    +0.000 N 
ENDROOT
BRANCH   1  19
ATOM     18  C   UNL     1      -5.049  13.644  20.519  0.00  0.00    +0.000 C 
ATOM     19  C   UNL     1      -3.817  14.222  21.212  0.00  0.00    +0.000 C 
ENDBRANCH   1  19
BRANCH  10  20
ATOM     20  C   UNL     1      -3.856  13.411  24.121  0.00  0.00    +0.000 C 
ATOM     21  C   UNL     1      -4.710  12.503  24.997  0.00  0.00    +0.000 C 
ENDBRANCH  10  20
BRANCH  17  22
ATOM     22  C   UNL     1      -0.418  11.705  18.271  0.00  0.00    +0.000 C 
BRANCH  22  23
ATOM     23  C   UNL     1      -1.761  11.634  17.543  0.00  0.00    +0.000 C 
BRANCH  23  24
ATOM     24  C   UNL     1      -2.597  10.404  17.861  0.00  0.00    +0.000 C 
ATOM     25 BR   UNL     1      -4.500  10.820  17.912  0.00  0.00    +0.000 Br
ENDBRANCH  23  24
ENDBRANCH  22  23
ENDBRANCH  17  22
TORSDOF 5
ENDMDL
MODEL 3
REMARK VINA RESULT:      -6.3      3.511      6.327
REMARK  Name = 
REMARK  7 active torsions:
REMARK  status: ('A' for Active; 'I' for Inactive)
REMARK    1  A    between atoms: C_1  and  C_2
REMARK    2  A    between atoms: C_2  and  C_3
REMARK    3  A    between atoms: C_12  and  C_13
REMARK    4  A    between atoms: C_13  and  C_14
REMARK    5  A    between atoms: N_21  and  C_22
REMARK    6  A    between atoms: C_22  and  C_23
REMARK    7  A    between atoms: C_23  and  C_24
REMARK                            x       y       z     vdW  Elec       q    Type
REMARK                         _______ _______ _______ _____ _____    ______ ____
ROOT
ATOM      1  C   UNL     1      -3.005  13.280  21.780  0.00  0.00    +0.000 A 
ATOM      2  C   UNL     1      -2.070  12.650  20.974  0.00  0.00    +0.000 A 
ATOM      3  C   UNL     1      -1.335  11.535  21.424  0.00  0.00    +0.000 A 
ATOM      4  C   UNL     1      -0.454  10.710  20.634  0.00  0.00    +0.000 A 
ATOM      5  C   UNL     1       0.200   9.611  21.209  0.00  0.00    +0.000 A 
ATOM      6  C   UNL     1      -0.004   9.323  22.565  0.00  0.00    +0.000 A 
ATOM      7  C   UNL     1      -0.860  10.130  23.286  0.00  0.00    +0.000 A 
ATOM      8  N   UNL     1      -1.500  11.168  22.728  0.00  0.00    +0.000 N 
ATOM      9  N   UNL     1      -2.325  11.835  23.556  0.00  0.00    +0.000 NA
ATOM     10  C   UNL     1      -3.062  12.869  23.095  0.00  0.00    +0.000 A 
ATOM     11  C   UNL     1       0.988   8.972  20.211  0.00  0.00    +0.000 A 
ATOM     12  C   UNL     1       1.838   7.841  20.233  0.00  0.00    +0.000 A 
ATOM     13  C   UNL     1       2.520   7.449  19.073  0.00  0.00    +0.000 A 
ATOM     14  C   UNL     1       2.383   8.190  17.913  0.00  0.00    +0.000 A 
ATOM     15  C   UNL     1       1.566   9.323  17.877  0.00  0.00    +0.000 A 
ATOM     16  C   UNL     1       0.851   9.702  19.030  0.00  0.00    +0.000 A 
ATOM     17  N   UNL     1      -0.058  10.722  19.278  0.00  0.00    +0.000 N 
ENDROOT
BRANCH   1  19
ATOM     18  C   UNL     1      -5.108  13.751  20.463  0.00  0.00    +0.000 C 
ATOM     19  C   UNL     1      -3.882  14.341  21.155  0.00  0.00    +0.000 C 
ENDBRANCH   1  19
BRANCH  10  20
ATOM     20  C   UNL     1      -3.943  13.609  24.086  0.00  0.00    +0.000 C 
ATOM     21  C   UNL     1      -3.266  14.738  24.852  0.00  0.00    +0.000 C 
ENDBRANCH  10  20
BRANCH  17  22
ATOM     22  C   UNL     1      -0.480  11.726  18.305  0.00  0.00    +0.000 C 
BRANCH  22  23
ATOM     23  C   UNL     1       0.096  13.143  18.289  0.00  0.00    +0.000 C 
BRANCH  23  24
ATOM     24  C   UNL     1       1.580  13.235  18.608  0.00  0.00    +0.000 C 
ATOM     25 BR   UNL     1       1.889  13.629  20.491  0.00  0.00    +0.000 Br
ENDBRANCH  23  24
ENDBRANCH  22  23
ENDBRANCH  17  22
TORSDOF 5
ENDMDL
MODEL 4
REMARK VINA RESULT:      -6.2      1.637      6.368
REMARK  Name = 
REMARK  7 active torsions:
REMARK  status: ('A' for Active; 'I' for Inactive)
REMARK    1  A    between atoms: C_1  and  C_2
REMARK    2  A    between atoms: C_2  and  C_3
REMARK    3  A    between atoms: C_12  and  C_13
REMARK    4  A    between atoms: C_13  and  C_14
REMARK    5  A    between atoms: N_21  and  C_22
REMARK    6  A    between atoms: C_22  and  C_23
REMARK    7  A    between atoms: C_23  and  C_24
REMARK                            x       y       z     vdW  Elec       q    Type
REMARK                         _______ _______ _______ _____ _____    ______ ____
ROOT
ATOM      1  C   UNL     1       4.314   3.888  17.504  0.00  0.00    +0.000 A 
ATOM      2  C   UNL     1       3.600   4.610  18.447  0.00  0.00    +0.000 A 
ATOM      3  C   UNL     1       3.355   5.990  18.296  0.00  0.00    +0.000 A 
ATOM      4  C   UNL     1       2.505   6.809  19.124  0.00  0.00    +0.000 A 
ATOM      5  C   UNL     1       2.334   8.172  18.842  0.00  0.00    +0.000 A 
ATOM      6  C   UNL     1       3.004   8.737  17.749  0.00  0.00    +0.000 A 
ATOM      7  C   UNL     1       3.803   7.920  16.974  0.00  0.00    +0.000 A 
ATOM      8  N   UNL     1       3.947   6.612  17.234  0.00  0.00    +0.000 N 
ATOM      9  N   UNL     1       4.732   5.946  16.367  0.00  0.00    +0.000 NA
ATOM     10  C   UNL     1       4.913   4.615  16.497  0.00  0.00    +0.000 A 
ATOM     11  C   UNL     1       1.443   8.731  19.801  0.00  0.00    +0.000 A 
ATOM     12  C   UNL     1       0.929  10.035  19.992  0.00  0.00    +0.000 A 
ATOM     13  C   UNL     1       0.065  10.303  21.063  0.00  0.00    +0.000 A 
ATOM     14  C   UNL     1      -0.260   9.292  21.951  0.00  0.00    +0.000 A 
ATOM     15  C   UNL     1       0.256   8.003  21.792  0.00  0.00    +0.000 A 
ATOM     16  C   UNL     1       1.096   7.720  20.698  0.00  0.00    +0.000 A 
ATOM     17  N   UNL     1       1.703   6.551  20.257  0.00  0.00    +0.000 N 
ENDROOT
BRANCH   1  19
ATOM     18  C   UNL     1       2.985   1.777  17.901  0.00  0.00    +0.000 C 
ATOM     19  C   UNL     1       4.363   2.385  17.649  0.00  0.00    +0.000 C 
ENDBRANCH   1  19
BRANCH  10  20
ATOM     20  C   UNL     1       5.841   3.926  15.513  0.00  0.00    +0.000 C 
ATOM     21  C   UNL     1       6.627   4.851  14.593  0.00  0.00    +0.000 C 
ENDBRANCH  10  20
BRANCH  17  22
ATOM     22  C   UNL     1       1.603   5.253  20.919  0.00  0.00    +0.000 C 
BRANCH  22  23
ATOM     23  C   UNL     1       0.702   4.134  20.396  0.00  0.00    +0.000 C 
BRANCH  23  24
ATOM     24  C   UNL     1       1.070   2.739  20.874  0.00  0.00    +0.000 C 
ATOM     25 BR   UNL     1       2.919   2.650  21.484  0.00  0.00    +0.000 Br
ENDBRANCH  23  24
ENDBRANCH  22  23
ENDBRANCH  17  22
TORSDOF 5
ENDMDL
MODEL 5
REMARK VINA RESULT:      -6.2      3.344      7.593
REMARK  Name = 
REMARK  7 active torsions:
REMARK  status: ('A' for Active; 'I' for Inactive)
REMARK    1  A    between atoms: C_1  and  C_2
REMARK    2  A    between atoms: C_2  and  C_3
REMARK    3  A    between atoms: C_12  and  C_13
REMARK    4  A    between atoms: C_13  and  C_14
REMARK    5  A    between atoms: N_21  and  C_22
REMARK    6  A    between atoms: C_22  and  C_23
REMARK    7  A    between atoms: C_23  and  C_24
REMARK                            x       y       z     vdW  Elec       q    Type
REMARK                         _______ _______ _______ _____ _____    ______ ____
ROOT
ATOM      1  C   UNL     1       6.088   3.956  14.064  0.00  0.00    +0.000 A 
ATOM      2  C   UNL     1       5.213   3.906  15.137  0.00  0.00    +0.000 A 
ATOM      3  C   UNL     1       5.136   4.949  16.081  0.00  0.00    +0.000 A 
ATOM      4  C   UNL     1       4.168   5.080  17.143  0.00  0.00    +0.000 A 
ATOM      5  C   UNL     1       4.196   6.189  18.000  0.00  0.00    +0.000 A 
ATOM      6  C   UNL     1       5.179   7.171  17.822  0.00  0.00    +0.000 A 
ATOM      7  C   UNL     1       6.083   7.016  16.790  0.00  0.00    +0.000 A 
ATOM      8  N   UNL     1       6.041   5.964  15.959  0.00  0.00    +0.000 N 
ATOM      9  N   UNL     1       6.969   5.976  14.984  0.00  0.00    +0.000 NA
ATOM     10  C   UNL     1       6.995   4.995  14.057  0.00  0.00    +0.000 A 
ATOM     11  C   UNL     1       3.132   6.071  18.937  0.00  0.00    +0.000 A 
ATOM     12  C   UNL     1       2.698   6.886  20.010  0.00  0.00    +0.000 A 
ATOM     13  C   UNL     1       1.605   6.495  20.796  0.00  0.00    +0.000 A 
ATOM     14  C   UNL     1       0.970   5.293  20.538  0.00  0.00    +0.000 A 
ATOM     15  C   UNL     1       1.398   4.464  19.497  0.00  0.00    +0.000 A 
ATOM     16  C   UNL     1       2.472   4.868  18.682  0.00  0.00    +0.000 A 
ATOM     17  N   UNL     1       3.073   4.297  17.568  0.00  0.00    +0.000 N 
ENDROOT
BRANCH   1  19
ATOM     18  C   UNL     1       4.997   3.282  11.888  0.00  0.00    +0.000 C 
ATOM     19  C   UNL     1       5.969   2.891  12.999  0.00  0.00    +0.000 C 
ENDBRANCH   1  19
BRANCH  10  20
ATOM     20  C   UNL     1       8.091   5.040  13.007  0.00  0.00    +0.000 C 
ATOM     21  C   UNL     1       7.844   5.987  11.840  0.00  0.00    +0.000 C 
ENDBRANCH  10  20
BRANCH  17  22
ATOM     22  C   UNL     1       2.690   3.020  16.970  0.00  0.00    +0.000 C 
BRANCH  22  23
ATOM     23  C   UNL     1       2.602   1.729  17.785  0.00  0.00    +0.000 C 
BRANCH  23  24
ATOM     24  C   UNL     1       3.920   1.249  18.370  0.00  0.00    +0.000 C 
ATOM     25 BR   UNL     1       4.304   2.107  20.078  0.00  0.00    +0.000 Br
ENDBRANCH  23  24
ENDBRANCH  22  23
ENDBRANCH  17  22
TORSDOF 5
ENDMDL
MODEL 6
REMARK VINA RESULT:      -6.1      5.561     10.117
REMARK  Name = 
REMARK  7 active torsions:
REMARK  status: ('A' for Active; 'I' for Inactive)
REMARK    1  A    between atoms: C_1  and  C_2
REMARK    2  A    between atoms: C_2  and  C_3
REMARK    3  A    between atoms: C_12  and  C_13
REMARK    4  A    between atoms: C_13  and  C_14
REMARK    5  A    between atoms: N_21  and  C_22
REMARK    6  A    between atoms: C_22  and  C_23
REMARK    7  A    between atoms: C_23  and  C_24
REMARK                            x       y       z     vdW  Elec       q    Type
REMARK                         _______ _______ _______ _____ _____    ______ ____
ROOT
ATOM      1  C   UNL     1      -2.095  11.127  18.099  0.00  0.00    +0.000 A 
ATOM      2  C   UNL     1      -2.655  11.863  19.131  0.00  0.00    +0.000 A 
ATOM      3  C   UNL     1      -4.050  11.929  19.323  0.00  0.00    +0.000 A 
ATOM      4  C   UNL     1      -4.738  12.531  20.439  0.00  0.00    +0.000 A 
ATOM      5  C   UNL     1      -6.138  12.503  20.512  0.00  0.00    +0.000 A 
ATOM      6  C   UNL     1      -6.868  11.891  19.484  0.00  0.00    +0.000 A 
ATOM      7  C   UNL     1      -6.175  11.320  18.437  0.00  0.00    +0.000 A 
ATOM      8  N   UNL     1      -4.835  11.329  18.381  0.00  0.00    +0.000 N 
ATOM      9  N   UNL     1      -4.309  10.700  17.313  0.00  0.00    +0.000 NA
ATOM     10  C   UNL     1      -2.970  10.600  17.172  0.00  0.00    +0.000 A 
ATOM     11  C   UNL     1      -6.547  13.151  21.711  0.00  0.00    +0.000 A 
ATOM     12  C   UNL     1      -7.817  13.409  22.281  0.00  0.00    +0.000 A 
ATOM     13  C   UNL     1      -7.917  14.106  23.494  0.00  0.00    +0.000 A 
ATOM     14  C   UNL     1      -6.770  14.567  24.116  0.00  0.00    +0.000 A 
ATOM     15  C   UNL     1      -5.509  14.342  23.557  0.00  0.00    +0.000 A 
ATOM     16  C   UNL     1      -5.400  13.612  22.358  0.00  0.00    +0.000 A 
ATOM     17  N   UNL     1      -4.308  13.194  21.609  0.00  0.00    +0.000 N 
ENDROOT
BRANCH   1  19
ATOM     18  C   UNL     1      -0.077  10.230  19.325  0.00  0.00    +0.000 C 
ATOM     19  C   UNL     1      -0.594  10.954  18.084  0.00  0.00    +0.000 C 
ENDBRANCH   1  19
BRANCH  10  20
ATOM     20  C   UNL     1      -2.437   9.916  15.927  0.00  0.00    +0.000 C 
ATOM     21  C   UNL     1      -3.193  10.213  14.638  0.00  0.00    +0.000 C 
ENDBRANCH  10  20
BRANCH  17  22
ATOM     22  C   UNL     1      -2.912  13.475  21.932  0.00  0.00    +0.000 C 
BRANCH  22  23
ATOM     23  C   UNL     1      -2.143  12.688  22.994  0.00  0.00    +0.000 C 
BRANCH  23  24
ATOM     24  C   UNL     1      -0.861  12.034  22.504  0.00  0.00    +0.000 C 
ATOM     25 BR   UNL     1      -0.740  10.173  23.069  0.00  0.00    +0.000 Br
ENDBRANCH  23  24
ENDBRANCH  22  23
ENDBRANCH  17  22
TORSDOF 5
ENDMDL
MODEL 7
REMARK VINA RESULT:      -6.0      3.561      5.990
REMARK  Name = 
REMARK  7 active torsions:
REMARK  status: ('A' for Active; 'I' for Inactive)
REMARK    1  A    between atoms: C_1  and  C_2
REMARK    2  A    between atoms: C_2  and  C_3
REMARK    3  A    between atoms: C_12  and  C_13
REMARK    4  A    between atoms: C_13  and  C_14
REMARK    5  A    between atoms: N_21  and  C_22
REMARK    6  A    between atoms: C_22  and  C_23
REMARK    7  A    between atoms: C_23  and  C_24
REMARK                            x       y       z     vdW  Elec       q    Type
REMARK                         _______ _______ _______ _____ _____    ______ ____
ROOT
ATOM      1  C   UNL     1      -1.343  13.547  21.566  0.00  0.00    +0.000 A 
ATOM      2  C   UNL     1      -0.527  12.687  20.850  0.00  0.00    +0.000 A 
ATOM      3  C   UNL     1      -0.211  11.397  21.323  0.00  0.00    +0.000 A 
ATOM      4  C   UNL     1       0.496  10.366  20.604  0.00  0.00    +0.000 A 
ATOM      5  C   UNL     1       0.722   9.113  21.193  0.00  0.00    +0.000 A 
ATOM      6  C   UNL     1       0.260   8.872  22.494  0.00  0.00    +0.000 A 
ATOM      7  C   UNL     1      -0.418   9.881  23.147  0.00  0.00    +0.000 A 
ATOM      8  N   UNL     1      -0.651  11.070  22.573  0.00  0.00    +0.000 N 
ATOM      9  N   UNL     1      -1.356  11.934  23.328  0.00  0.00    +0.000 NA
ATOM     10  C   UNL     1      -1.694  13.146  22.838  0.00  0.00    +0.000 A 
ATOM     11  C   UNL     1       1.422   8.291  20.267  0.00  0.00    +0.000 A 
ATOM     12  C   UNL     1       1.901   6.960  20.331  0.00  0.00    +0.000 A 
ATOM     13  C   UNL     1       2.594   6.407  19.245  0.00  0.00    +0.000 A 
ATOM     14  C   UNL     1       2.835   7.178  18.121  0.00  0.00    +0.000 A 
ATOM     15  C   UNL     1       2.391   8.501  18.048  0.00  0.00    +0.000 A 
ATOM     16  C   UNL     1       1.663   9.050  19.121  0.00  0.00    +0.000 A 
ATOM     17  N   UNL     1       1.060  10.287  19.312  0.00  0.00    +0.000 N 
ENDROOT
BRANCH   1  19
ATOM     18  C   UNL     1      -0.627  15.799  20.674  0.00  0.00    +0.000 C 
ATOM     19  C   UNL     1      -1.784  14.829  20.899  0.00  0.00    +0.000 C 
ENDBRANCH   1  19
BRANCH  10  20
ATOM     20  C   UNL     1      -2.453  14.092  23.751  0.00  0.00    +0.000 C 
ATOM     21  C   UNL     1      -1.593  14.957  24.663  0.00  0.00    +0.000 C 
ENDBRANCH  10  20
BRANCH  17  22
ATOM     22  C   UNL     1       1.082  11.388  18.353  0.00  0.00    +0.000 C 
BRANCH  22  23
ATOM     23  C   UNL     1       2.285  12.320  18.204  0.00  0.00    +0.000 C 
BRANCH  23  24
ATOM     24  C   UNL     1       2.018  13.773  18.563  0.00  0.00    +0.000 C 
ATOM     25 BR   UNL     1       3.542  14.912  18.138  0.00  0.00    +0.000 Br
ENDBRANCH  23  24
ENDBRANCH  22  23
ENDBRANCH  17  22
TORSDOF 5
ENDMDL
MODEL 8
REMARK VINA RESULT:      -6.0      3.770      6.836
REMARK  Name = 
REMARK  7 active torsions:
REMARK  status: ('A' for Active; 'I' for Inactive)
REMARK    1  A    between atoms: C_1  and  C_2
REMARK    2  A    between atoms: C_2  and  C_3
REMARK    3  A    between atoms: C_12  and  C_13
REMARK    4  A    between atoms: C_13  and  C_14
REMARK    5  A    between atoms: N_21  and  C_22
REMARK    6  A    between atoms: C_22  and  C_23
REMARK    7  A    between atoms: C_23  and  C_24
REMARK                            x       y       z     vdW  Elec       q    Type
REMARK                         _______ _______ _______ _____ _____    ______ ____
ROOT
ATOM      1  C   UNL     1      -4.147  13.849  21.199  0.00  0.00    +0.000 A 
ATOM      2  C   UNL     1      -3.154  13.169  20.513  0.00  0.00    +0.000 A 
ATOM      3  C   UNL     1      -2.297  12.256  21.161  0.00  0.00    +0.000 A 
ATOM      4  C   UNL     1      -1.336  11.383  20.533  0.00  0.00    +0.000 A 
ATOM      5  C   UNL     1      -0.562  10.503  21.303  0.00  0.00    +0.000 A 
ATOM      6  C   UNL     1      -0.724  10.483  22.695  0.00  0.00    +0.000 A 
ATOM      7  C   UNL     1      -1.659  11.327  23.259  0.00  0.00    +0.000 A 
ATOM      8  N   UNL     1      -2.413  12.152  22.518  0.00  0.00    +0.000 N 
ATOM      9  N   UNL     1      -3.302  12.885  23.214  0.00  0.00    +0.000 NA
ATOM     10  C   UNL     1      -4.150  13.716  22.572  0.00  0.00    +0.000 A 
ATOM     11  C   UNL     1       0.286   9.759  20.436  0.00  0.00    +0.000 A 
ATOM     12  C   UNL     1       1.255   8.754  20.666  0.00  0.00    +0.000 A 
ATOM     13  C   UNL     1       1.970   8.204  19.592  0.00  0.00    +0.000 A 
ATOM     14  C   UNL     1       1.744   8.669  18.309  0.00  0.00    +0.000 A 
ATOM     15  C   UNL     1       0.808   9.677  18.064  0.00  0.00    +0.000 A 
ATOM     16  C   UNL     1       0.062  10.208  19.134  0.00  0.00    +0.000 A 
ATOM     17  N   UNL     1      -0.952  11.155  19.194  0.00  0.00    +0.000 N 
ENDROOT
BRANCH   1  19
ATOM     18  C   UNL     1      -4.697  16.107  20.209  0.00  0.00    +0.000 C 
ATOM     19  C   UNL     1      -5.139  14.657  20.395  0.00  0.00    +0.000 C 
ENDBRANCH   1  19
BRANCH  10  20
ATOM     20  C   UNL     1      -5.101  14.547  23.414  0.00  0.00    +0.000 C 
ATOM     21  C   UNL     1      -4.483  15.756  24.104  0.00  0.00    +0.000 C 
ENDBRANCH  10  20
BRANCH  17  22
ATOM     22  C   UNL     1      -1.487  11.884  18.047  0.00  0.00    +0.000 C 
BRANCH  22  23
ATOM     23  C   UNL     1      -2.710  11.399  17.267  0.00  0.00    +0.000 C 
BRANCH  23  24
ATOM     24  C   UNL     1      -2.475  10.164  16.411  0.00  0.00    +0.000 C 
ATOM     25 BR   UNL     1      -3.499  10.231  14.754  0.00  0.00    +0.000 Br
ENDBRANCH  23  24
ENDBRANCH  22  23
ENDBRANCH  17  22
TORSDOF 5
ENDMDL
MODEL 9
REMARK VINA RESULT:      -5.9      5.286      9.698
REMARK  Name = 
REMARK  7 active torsions:
REMARK  status: ('A' for Active; 'I' for Inactive)
REMARK    1  A    between atoms: C_1  and  C_2
REMARK    2  A    between atoms: C_2  and  C_3
REMARK    3  A    between atoms: C_12  and  C_13
REMARK    4  A    between atoms: C_13  and  C_14
REMARK    5  A    between atoms: N_21  and  C_22
REMARK    6  A    between atoms: C_22  and  C_23
REMARK    7  A    between atoms: C_23  and  C_24
REMARK                            x       y       z     vdW  Elec       q    Type
REMARK                         _______ _______ _______ _____ _____    ______ ____
ROOT
ATOM      1  C   UNL     1      -1.853  10.867  18.257  0.00  0.00    +0.000 A 
ATOM      2  C   UNL     1      -1.958  11.818  19.259  0.00  0.00    +0.000 A 
ATOM      3  C   UNL     1      -3.207  12.314  19.683  0.00  0.00    +0.000 A 
ATOM      4  C   UNL     1      -3.452  13.183  20.809  0.00  0.00    +0.000 A 
ATOM      5  C   UNL     1      -4.757  13.582  21.131  0.00  0.00    +0.000 A 
ATOM      6  C   UNL     1      -5.826  13.136  20.343  0.00  0.00    +0.000 A 
ATOM      7  C   UNL     1      -5.554  12.300  19.279  0.00  0.00    +0.000 A 
ATOM      8  N   UNL     1      -4.307  11.903  18.987  0.00  0.00    +0.000 N 
ATOM      9  N   UNL     1      -4.212  11.061  17.940  0.00  0.00    +0.000 NA
ATOM     10  C   UNL     1      -3.014  10.554  17.581  0.00  0.00    +0.000 A 
ATOM     11  C   UNL     1      -4.710  14.418  22.282  0.00  0.00    +0.000 A 
ATOM     12  C   UNL     1      -5.709  15.089  23.026  0.00  0.00    +0.000 A 
ATOM     13  C   UNL     1      -5.355  15.880  24.128  0.00  0.00    +0.000 A 
ATOM     14  C   UNL     1      -4.022  16.025  24.469  0.00  0.00    +0.000 A 
ATOM     15  C   UNL     1      -3.019  15.388  23.732  0.00  0.00    +0.000 A 
ATOM     16  C   UNL     1      -3.371  14.565  22.646  0.00  0.00    +0.000 A 
ATOM     17  N   UNL     1      -2.620  13.779  21.781  0.00  0.00    +0.000 N 
ENDROOT
BRANCH   1  19
ATOM     18  C   UNL     1       0.309  10.060  19.284  0.00  0.00    +0.000 C 
ATOM     19  C   UNL     1      -0.497  10.251  18.001  0.00  0.00    +0.000 C 
ENDBRANCH   1  19
BRANCH  10  20
ATOM     20  C   UNL     1      -2.965   9.643  16.368  0.00  0.00    +0.000 C 
ATOM     21  C   UNL     1      -2.918  10.347  15.018  0.00  0.00    +0.000 C 
ENDBRANCH  10  20
BRANCH  17  22
ATOM     22  C   UNL     1      -1.165  13.654  21.810  0.00  0.00    +0.000 C 
BRANCH  22  23
ATOM     23  C   UNL     1      -0.462  12.356  22.212  0.00  0.00    +0.000 C 
BRANCH  23  24
ATOM     24  C   UNL     1      -1.333  11.364  22.968  0.00  0.00    +0.000 C 
ATOM     25 BR   UNL     1      -0.477   9.619  23.112  0.00  0.00    +0.000 Br
ENDBRANCH  23  24
ENDBRANCH  22  23
ENDBRANCH  17  22
TORSDOF 5
ENDMDL
