MODEL 1
REMARK VINA RESULT:      -8.2      0.000      0.000
REMARK  Name = 
REMARK  5 active torsions:
REMARK  status: ('A' for Active; 'I' for Inactive)
REMARK    1  A    between atoms: C_1  and  C_2
REMARK    2  A    between atoms: C_10  and  C_11
REMARK    3  A    between atoms: C_11  and  C_13
REMARK    4  A    between atoms: N_15  and  C_16
REMARK    5  A    between atoms: N_20  and  C_21
REMARK                            x       y       z     vdW  Elec       q    Type
REMARK                         _______ _______ _______ _____ _____    ______ ____
ROOT
ATOM      1  C   UNL     1       2.273   8.159  18.261  0.00  0.00    +0.000 C 
ATOM      2  O   UNL     1       2.618   8.427  17.125  0.00  0.00    +0.000 OA
ATOM      3  N   UNL     1       1.435   8.988  19.022  0.00  0.00    +0.000 N 
ATOM      4  H   UNL     1       0.956   8.575  19.815  0.00  0.00    +0.000 HD
ENDROOT
BRANCH   3   5
ATOM      5  C   UNL     1       0.944  10.213  18.384  0.00  0.00    +0.000 C 
ATOM      6  C   UNL     1       1.703  11.480  18.744  0.00  0.00    +0.000 C 
ATOM      7  C   UNL     1       0.844  12.164  19.774  0.00  0.00    +0.000 C 
ATOM      8  O   UNL     1       1.230  13.134  20.409  0.00  0.00    +0.000 OA
ATOM      9  N   UNL     1      -0.415  11.557  19.766  0.00  0.00    +0.000 N 
ATOM     10  C   UNL     1      -0.503  10.546  18.736  0.00  0.00    +0.000 C 
BRANCH   9  11
ATOM     11  C   UNL     1      -1.552  11.983  20.496  0.00  0.00    +0.000 A 
ATOM     12  C   UNL     1      -2.641  12.612  19.869  0.00  0.00    +0.000 A 
ATOM     13  C   UNL     1      -3.759  13.022  20.603  0.00  0.00    +0.000 A 
ATOM     14  C   UNL     1      -3.800  12.821  21.978  0.00  0.00    +0.000 A 
ATOM     15  C   UNL     1      -2.728  12.206  22.604  0.00  0.00    +0.000 A 
ATOM     16  F   UNL     1      -2.756  12.011  23.929  0.00  0.00    +0.000 F 
ATOM     17  C   UNL     1      -1.617  11.787  21.880  0.00  0.00    +0.000 A 
ENDBRANCH   9  11
ENDBRANCH   3   5
BRANCH   1  18
ATOM     18  C   UNL     1       2.720   6.838  18.892  0.00  0.00    +0.000 C 
ATOM     19  O   UNL     1       2.567   6.765  20.111  0.00  0.00    +0.000 OA
BRANCH  18  29
ATOM     20  C   UNL     1       1.365   3.893  18.002  0.00  0.00    +0.000 C 
ATOM     21  C   UNL     1       2.685   4.522  17.724  0.00  0.00    +0.000 A 
ATOM     22  N   UNL     1       3.581   3.819  16.957  0.00  0.00    +0.000 N 
ATOM     23  C   UNL     1       4.750   4.510  16.802  0.00  0.00    +0.000 A 
ATOM     24  C   UNL     1       5.904   4.149  16.096  0.00  0.00    +0.000 A 
ATOM     25  C   UNL     1       6.974   5.042  16.107  0.00  0.00    +0.000 A 
ATOM     26  C   UNL     1       6.885   6.244  16.801  0.00  0.00    +0.000 A 
ATOM     27  C   UNL     1       5.718   6.589  17.498  0.00  0.00    +0.000 A 
ATOM     28  C   UNL     1       4.610   5.707  17.502  0.00  0.00    +0.000 A 
ATOM     29  C   UNL     1       3.283   5.733  18.085  0.00  0.00    +0.000 A 
ATOM     30  H   UNL     1       3.412   2.905  16.559  0.00  0.00    +0.000 HD
ENDBRANCH  18  29
ENDBRANCH   1  18
TORSDOF 4
ENDMDL
MODEL 2
REMARK VINA RESULT:      -8.2      0.834      1.231
REMARK  Name = 
REMARK  5 active torsions:
REMARK  status: ('A' for Active; 'I' for Inactive)
REMARK    1  A    between atoms: C_1  and  C_2
REMARK    2  A    between atoms: C_10  and  C_11
REMARK    3  A    between atoms: C_11  and  C_13
REMARK    4  A    between atoms: N_15  and  C_16
REMARK    5  A    between atoms: N_20  and  C_21
REMARK                            x       y       z     vdW  Elec       q    Type
REMARK                         _______ _______ _______ _____ _____    ______ ____
ROOT
ATOM      1  C   UNL     1       2.301   7.992  18.275  0.00  0.00    +0.000 C 
ATOM      2  O   UNL     1       2.579   8.274  17.124  0.00  0.00    +0.000 OA
ATOM      3  N   UNL     1       1.478   8.793  19.081  0.00  0.00    +0.000 N 
ATOM      4  H   UNL     1       1.052   8.364  19.895  0.00  0.00    +0.000 HD
ENDROOT
BRANCH   3   5
ATOM      5  C   UNL     1       0.919  10.005  18.475  0.00  0.00    +0.000 C 
ATOM      6  C   UNL     1       1.714  11.277  18.717  0.00  0.00    +0.000 C 
ATOM      7  C   UNL     1       0.978  11.987  19.822  0.00  0.00    +0.000 C 
ATOM      8  O   UNL     1       1.435  12.970  20.387  0.00  0.00    +0.000 OA
ATOM      9  N   UNL     1      -0.274  11.385  19.971  0.00  0.00    +0.000 N 
ATOM     10  C   UNL     1      -0.479  10.351  18.981  0.00  0.00    +0.000 C 
BRANCH   9  11
ATOM     11  C   UNL     1      -1.320  11.831  20.816  0.00  0.00    +0.000 A 
ATOM     12  C   UNL     1      -1.294  11.614  22.204  0.00  0.00    +0.000 A 
ATOM     13  C   UNL     1      -2.332  12.066  23.025  0.00  0.00    +0.000 A 
ATOM     14  C   UNL     1      -3.419  12.732  22.470  0.00  0.00    +0.000 A 
ATOM     15  C   UNL     1      -3.453  12.946  21.101  0.00  0.00    +0.000 A 
ATOM     16  F   UNL     1      -4.497  13.583  20.555  0.00  0.00    +0.000 F 
ATOM     17  C   UNL     1      -2.421  12.508  20.280  0.00  0.00    +0.000 A 
ENDBRANCH   9  11
ENDBRANCH   3   5
BRANCH   1  18
ATOM     18  C   UNL     1       2.819   6.684  18.876  0.00  0.00    +0.000 C 
ATOM     19  O   UNL     1       2.728   6.600  20.100  0.00  0.00    +0.000 OA
BRANCH  18  29
ATOM     20  C   UNL     1       1.456   3.762  17.919  0.00  0.00    +0.000 C 
ATOM     21  C   UNL     1       2.774   4.399  17.648  0.00  0.00    +0.000 A 
ATOM     22  N   UNL     1       3.664   3.716  16.856  0.00  0.00    +0.000 N 
ATOM     23  C   UNL     1       4.832   4.410  16.710  0.00  0.00    +0.000 A 
ATOM     24  C   UNL     1       5.981   4.068  15.987  0.00  0.00    +0.000 A 
ATOM     25  C   UNL     1       7.050   4.960  16.013  0.00  0.00    +0.000 A 
ATOM     26  C   UNL     1       6.967   6.144  16.739  0.00  0.00    +0.000 A 
ATOM     27  C   UNL     1       5.805   6.470  17.453  0.00  0.00    +0.000 A 
ATOM     28  C   UNL     1       4.698   5.589  17.442  0.00  0.00    +0.000 A 
ATOM     29  C   UNL     1       3.375   5.600  18.036  0.00  0.00    +0.000 A 
ATOM     30  H   UNL     1       3.492   2.812  16.437  0.00  0.00    +0.000 HD
ENDBRANCH  18  29
ENDBRANCH   1  18
TORSDOF 4
ENDMDL
MODEL 3
REMARK VINA RESULT:      -8.1      4.129      9.936
REMARK  Name = 
REMARK  5 active torsions:
REMARK  status: ('A' for Active; 'I' for Inactive)
REMARK    1  A    between atoms: C_1  and  C_2
REMARK    2  A    between atoms: C_10  and  C_11
REMARK    3  A    between atoms: C_11  and  C_13
REMARK    4  A    between atoms: N_15  and  C_16
REMARK    5  A    between atoms: N_20  and  C_21
REMARK                            x       y       z     vdW  Elec       q    Type
REMARK                         _______ _______ _______ _____ _____    ______ ____
ROOT
ATOM      1  C   UNL     1       2.808   6.429  18.011  0.00  0.00    +0.000 C 
ATOM      2  O   UNL     1       1.979   5.559  17.816  0.00  0.00    +0.000 OA
ATOM      3  N   UNL     1       4.187   6.176  18.051  0.00  0.00    +0.000 N 
ATOM      4  H   UNL     1       4.815   6.961  17.916  0.00  0.00    +0.000 HD
ENDROOT
BRANCH   3   5
ATOM      5  C   UNL     1       4.624   4.797  17.815  0.00  0.00    +0.000 C 
ATOM      6  C   UNL     1       6.032   4.473  18.285  0.00  0.00    +0.000 C 
ATOM      7  C   UNL     1       6.874   4.516  17.038  0.00  0.00    +0.000 C 
ATOM      8  O   UNL     1       8.095   4.467  17.069  0.00  0.00    +0.000 OA
ATOM      9  N   UNL     1       6.019   4.522  15.933  0.00  0.00    +0.000 N 
ATOM     10  C   UNL     1       4.636   4.404  16.340  0.00  0.00    +0.000 C 
BRANCH   9  11
ATOM     11  C   UNL     1       6.410   4.432  14.574  0.00  0.00    +0.000 A 
ATOM     12  C   UNL     1       7.420   5.249  14.040  0.00  0.00    +0.000 A 
ATOM     13  C   UNL     1       7.799   5.145  12.697  0.00  0.00    +0.000 A 
ATOM     14  C   UNL     1       7.164   4.230  11.864  0.00  0.00    +0.000 A 
ATOM     15  C   UNL     1       6.163   3.424  12.384  0.00  0.00    +0.000 A 
ATOM     16  F   UNL     1       5.542   2.542  11.589  0.00  0.00    +0.000 F 
ATOM     17  C   UNL     1       5.788   3.516  13.719  0.00  0.00    +0.000 A 
ENDBRANCH   9  11
ENDBRANCH   3   5
BRANCH   1  18
ATOM     18  C   UNL     1       2.351   7.881  18.173  0.00  0.00    +0.000 C 
ATOM     19  O   UNL     1       2.561   8.604  17.200  0.00  0.00    +0.000 OA
BRANCH  18  29
ATOM     20  C   UNL     1       1.684   6.274  21.051  0.00  0.00    +0.000 C 
ATOM     21  C   UNL     1       1.444   7.671  20.594  0.00  0.00    +0.000 A 
ATOM     22  N   UNL     1       0.833   8.534  21.470  0.00  0.00    +0.000 N 
ATOM     23  C   UNL     1       0.664   9.769  20.911  0.00  0.00    +0.000 A 
ATOM     24  C   UNL     1       0.091  10.921  21.464  0.00  0.00    +0.000 A 
ATOM     25  C   UNL     1       0.029  12.060  20.665  0.00  0.00    +0.000 A 
ATOM     26  C   UNL     1       0.521  12.039  19.364  0.00  0.00    +0.000 A 
ATOM     27  C   UNL     1       1.095  10.877  18.830  0.00  0.00    +0.000 A 
ATOM     28  C   UNL     1       1.179   9.704  19.617  0.00  0.00    +0.000 A 
ATOM     29  C   UNL     1       1.697   8.366  19.408  0.00  0.00    +0.000 A 
ATOM     30  H   UNL     1       0.536   8.296  22.407  0.00  0.00    +0.000 HD
ENDBRANCH  18  29
ENDBRANCH   1  18
TORSDOF 4
ENDMDL
MODEL 4
REMARK VINA RESULT:      -7.9      1.202      2.604
REMARK  Name = 
REMARK  5 active torsions:
REMARK  status: ('A' for Active; 'I' for Inactive)
REMARK    1  A    between atoms: C_1  and  C_2
REMARK    2  A    between atoms: C_10  and  C_11
REMARK    3  A    between atoms: C_11  and  C_13
REMARK    4  A    between atoms: N_15  and  C_16
REMARK    5  A    between atoms: N_20  and  C_21
REMARK                            x       y       z     vdW  Elec       q    Type
REMARK                         _______ _______ _______ _____ _____    ______ ____
ROOT
ATOM      1  C   UNL     1       1.844   8.499  18.600  0.00  0.00    +0.000 C 
ATOM      2  O   UNL     1       1.986   8.616  17.396  0.00  0.00    +0.000 OA
ATOM      3  N   UNL     1       1.159   9.438  19.384  0.00  0.00    +0.000 N 
ATOM      4  H   UNL     1       0.822   9.140  20.293  0.00  0.00    +0.000 HD
ENDROOT
BRANCH   3   5
ATOM      5  C   UNL     1       0.573  10.592  18.693  0.00  0.00    +0.000 C 
ATOM      6  C   UNL     1       1.223  11.930  19.002  0.00  0.00    +0.000 C 
ATOM      7  C   UNL     1       0.304  12.583  19.999  0.00  0.00    +0.000 C 
ATOM      8  O   UNL     1       0.604  13.608  20.594  0.00  0.00    +0.000 OA
ATOM      9  N   UNL     1      -0.901  11.876  20.012  0.00  0.00    +0.000 N 
ATOM     10  C   UNL     1      -0.899  10.819  19.025  0.00  0.00    +0.000 C 
BRANCH   9  11
ATOM     11  C   UNL     1      -2.075  12.237  20.719  0.00  0.00    +0.000 A 
ATOM     12  C   UNL     1      -3.210  12.740  20.061  0.00  0.00    +0.000 A 
ATOM     13  C   UNL     1      -4.363  13.087  20.772  0.00  0.00    +0.000 A 
ATOM     14  C   UNL     1      -4.395  12.949  22.156  0.00  0.00    +0.000 A 
ATOM     15  C   UNL     1      -3.277  12.458  22.812  0.00  0.00    +0.000 A 
ATOM     16  F   UNL     1      -3.296  12.325  24.145  0.00  0.00    +0.000 F 
ATOM     17  C   UNL     1      -2.131  12.102  22.110  0.00  0.00    +0.000 A 
ENDBRANCH   9  11
ENDBRANCH   3   5
BRANCH   1  18
ATOM     18  C   UNL     1       2.383   7.251  19.303  0.00  0.00    +0.000 C 
ATOM     19  O   UNL     1       2.412   7.317  20.532  0.00  0.00    +0.000 OA
BRANCH  18  29
ATOM     20  C   UNL     1       4.804   6.907  16.994  0.00  0.00    +0.000 C 
ATOM     21  C   UNL     1       3.845   5.945  17.605  0.00  0.00    +0.000 A 
ATOM     22  N   UNL     1       3.902   4.636  17.192  0.00  0.00    +0.000 N 
ATOM     23  C   UNL     1       2.956   3.877  17.821  0.00  0.00    +0.000 A 
ATOM     24  C   UNL     1       2.686   2.510  17.686  0.00  0.00    +0.000 A 
ATOM     25  C   UNL     1       1.645   1.980  18.445  0.00  0.00    +0.000 A 
ATOM     26  C   UNL     1       0.907   2.792  19.300  0.00  0.00    +0.000 A 
ATOM     27  C   UNL     1       1.197   4.158  19.424  0.00  0.00    +0.000 A 
ATOM     28  C   UNL     1       2.252   4.727  18.671  0.00  0.00    +0.000 A 
ATOM     29  C   UNL     1       2.824   6.055  18.553  0.00  0.00    +0.000 A 
ATOM     30  H   UNL     1       4.550   4.272  16.506  0.00  0.00    +0.000 HD
ENDBRANCH  18  29
ENDBRANCH   1  18
TORSDOF 4
ENDMDL
MODEL 5
REMARK VINA RESULT:      -7.9      2.402      2.954
REMARK  Name = 
REMARK  5 active torsions:
REMARK  status: ('A' for Active; 'I' for Inactive)
REMARK    1  A    between atoms: C_1  and  C_2
REMARK    2  A    between atoms: C_10  and  C_11
REMARK    3  A    between atoms: C_11  and  C_13
REMARK    4  A    between atoms: N_15  and  C_16
REMARK    5  A    between atoms: N_20  and  C_21
REMARK                            x       y       z     vdW  Elec       q    Type
REMARK                         _______ _______ _______ _____ _____    ______ ____
ROOT
ATOM      1  C   UNL     1       2.353   7.791  18.948  0.00  0.00    +0.000 C 
ATOM      2  O   UNL     1       2.916   8.226  17.959  0.00  0.00    +0.000 OA
ATOM      3  N   UNL     1       1.566   8.587  19.793  0.00  0.00    +0.000 N 
ATOM      4  H   UNL     1       0.902   8.119  20.399  0.00  0.00    +0.000 HD
ENDROOT
BRANCH   3   5
ATOM      5  C   UNL     1       1.408   9.999  19.430  0.00  0.00    +0.000 C 
ATOM      6  C   UNL     1       0.837  10.889  20.522  0.00  0.00    +0.000 C 
ATOM      7  C   UNL     1      -0.614  11.060  20.160  0.00  0.00    +0.000 C 
ATOM      8  O   UNL     1      -1.420  11.584  20.914  0.00  0.00    +0.000 OA
ATOM      9  N   UNL     1      -0.792  10.618  18.846  0.00  0.00    +0.000 N 
ATOM     10  C   UNL     1       0.465  10.224  18.250  0.00  0.00    +0.000 C 
BRANCH   9  11
ATOM     11  C   UNL     1      -1.982  10.724  18.083  0.00  0.00    +0.000 A 
ATOM     12  C   UNL     1      -3.058  11.525  18.501  0.00  0.00    +0.000 A 
ATOM     13  C   UNL     1      -4.224  11.623  17.733  0.00  0.00    +0.000 A 
ATOM     14  C   UNL     1      -4.336  10.914  16.542  0.00  0.00    +0.000 A 
ATOM     15  C   UNL     1      -3.279  10.119  16.128  0.00  0.00    +0.000 A 
ATOM     16  F   UNL     1      -3.377   9.429  14.984  0.00  0.00    +0.000 F 
ATOM     17  C   UNL     1      -2.114  10.023  16.880  0.00  0.00    +0.000 A 
ENDBRANCH   9  11
ENDBRANCH   3   5
BRANCH   1  18
ATOM     18  C   UNL     1       2.453   6.300  19.275  0.00  0.00    +0.000 C 
ATOM     19  O   UNL     1       2.025   5.980  20.383  0.00  0.00    +0.000 OA
BRANCH  18  29
ATOM     20  C   UNL     1       1.177   3.406  18.131  0.00  0.00    +0.000 C 
ATOM     21  C   UNL     1       2.449   4.129  17.854  0.00  0.00    +0.000 A 
ATOM     22  N   UNL     1       3.326   3.562  16.963  0.00  0.00    +0.000 N 
ATOM     23  C   UNL     1       4.452   4.324  16.823  0.00  0.00    +0.000 A 
ATOM     24  C   UNL     1       5.576   4.103  16.018  0.00  0.00    +0.000 A 
ATOM     25  C   UNL     1       6.604   5.042  16.071  0.00  0.00    +0.000 A 
ATOM     26  C   UNL     1       6.504   6.153  16.901  0.00  0.00    +0.000 A 
ATOM     27  C   UNL     1       5.368   6.359  17.697  0.00  0.00    +0.000 A 
ATOM     28  C   UNL     1       4.303   5.427  17.661  0.00  0.00    +0.000 A 
ATOM     29  C   UNL     1       3.014   5.321  18.317  0.00  0.00    +0.000 A 
ATOM     30  H   UNL     1       3.174   2.690  16.474  0.00  0.00    +0.000 HD
ENDBRANCH  18  29
ENDBRANCH   1  18
TORSDOF 4
ENDMDL
MODEL 6
REMARK VINA RESULT:      -7.9      3.477      9.593
REMARK  Name = 
REMARK  5 active torsions:
REMARK  status: ('A' for Active; 'I' for Inactive)
REMARK    1  A    between atoms: C_1  and  C_2
REMARK    2  A    between atoms: C_10  and  C_11
REMARK    3  A    between atoms: C_11  and  C_13
REMARK    4  A    between atoms: N_15  and  C_16
REMARK    5  A    between atoms: N_20  and  C_21
REMARK                            x       y       z     vdW  Elec       q    Type
REMARK                         _______ _______ _______ _____ _____    ______ ____
ROOT
ATOM      1  C   UNL     1       1.350   7.167  20.710  0.00  0.00    +0.000 C 
ATOM      2  O   UNL     1       0.368   6.468  20.882  0.00  0.00    +0.000 OA
ATOM      3  N   UNL     1       2.470   6.746  19.978  0.00  0.00    +0.000 N 
ATOM      4  H   UNL     1       3.099   7.459  19.624  0.00  0.00    +0.000 HD
ENDROOT
BRANCH   3   5
ATOM      5  C   UNL     1       2.418   5.408  19.381  0.00  0.00    +0.000 C 
ATOM      6  C   UNL     1       3.236   4.346  20.098  0.00  0.00    +0.000 C 
ATOM      7  C   UNL     1       4.493   4.212  19.280  0.00  0.00    +0.000 C 
ATOM      8  O   UNL     1       5.455   3.561  19.660  0.00  0.00    +0.000 OA
ATOM      9  N   UNL     1       4.290   4.855  18.056  0.00  0.00    +0.000 N 
ATOM     10  C   UNL     1       2.938   5.358  17.947  0.00  0.00    +0.000 C 
BRANCH   9  11
ATOM     11  C   UNL     1       5.179   4.852  16.954  0.00  0.00    +0.000 A 
ATOM     12  C   UNL     1       6.496   5.329  17.065  0.00  0.00    +0.000 A 
ATOM     13  C   UNL     1       7.365   5.315  15.969  0.00  0.00    +0.000 A 
ATOM     14  C   UNL     1       6.925   4.835  14.739  0.00  0.00    +0.000 A 
ATOM     15  C   UNL     1       5.626   4.368  14.622  0.00  0.00    +0.000 A 
ATOM     16  F   UNL     1       5.192   3.906  13.441  0.00  0.00    +0.000 F 
ATOM     17  C   UNL     1       4.761   4.370  15.710  0.00  0.00    +0.000 A 
ENDBRANCH   9  11
ENDBRANCH   3   5
BRANCH   1  18
ATOM     18  C   UNL     1       1.364   8.594  21.263  0.00  0.00    +0.000 C 
ATOM     19  O   UNL     1       2.082   8.764  22.248  0.00  0.00    +0.000 OA
BRANCH  18  29
ATOM     20  C   UNL     1       1.300   9.690  18.084  0.00  0.00    +0.000 C 
ATOM     21  C   UNL     1       0.569  10.108  19.312  0.00  0.00    +0.000 A 
ATOM     22  N   UNL     1      -0.329  11.141  19.202  0.00  0.00    +0.000 N 
ATOM     23  C   UNL     1      -0.909  11.424  20.406  0.00  0.00    +0.000 A 
ATOM     24  C   UNL     1      -1.869  12.394  20.721  0.00  0.00    +0.000 A 
ATOM     25  C   UNL     1      -2.287  12.483  22.046  0.00  0.00    +0.000 A 
ATOM     26  C   UNL     1      -1.760  11.634  23.013  0.00  0.00    +0.000 A 
ATOM     27  C   UNL     1      -0.803  10.666  22.677  0.00  0.00    +0.000 A 
ATOM     28  C   UNL     1      -0.360  10.545  21.338  0.00  0.00    +0.000 A 
ATOM     29  C   UNL     1       0.579   9.684  20.644  0.00  0.00    +0.000 A 
ATOM     30  H   UNL     1      -0.537  11.640  18.347  0.00  0.00    +0.000 HD
ENDBRANCH  18  29
ENDBRANCH   1  18
TORSDOF 4
ENDMDL
MODEL 7
REMARK VINA RESULT:      -7.9      2.974      4.409
REMARK  Name = 
REMARK  5 active torsions:
REMARK  status: ('A' for Active; 'I' for Inactive)
REMARK    1  A    between atoms: C_1  and  C_2
REMARK    2  A    between atoms: C_10  and  C_11
REMARK    3  A    between atoms: C_11  and  C_13
REMARK    4  A    between atoms: N_15  and  C_16
REMARK    5  A    between atoms: N_20  and  C_21
REMARK                            x       y       z     vdW  Elec       q    Type
REMARK                         _______ _______ _______ _____ _____    ______ ____
ROOT
ATOM      1  C   UNL     1       2.330   7.708  18.961  0.00  0.00    +0.000 C 
ATOM      2  O   UNL     1       2.206   7.325  20.110  0.00  0.00    +0.000 OA
ATOM      3  N   UNL     1       1.686   8.850  18.462  0.00  0.00    +0.000 N 
ATOM      4  H   UNL     1       2.059   9.271  17.618  0.00  0.00    +0.000 HD
ENDROOT
BRANCH   3   5
ATOM      5  C   UNL     1       0.855   9.615  19.396  0.00  0.00    +0.000 C 
ATOM      6  C   UNL     1      -0.539   9.955  18.895  0.00  0.00    +0.000 C 
ATOM      7  C   UNL     1      -0.448  11.389  18.447  0.00  0.00    +0.000 C 
ATOM      8  O   UNL     1      -1.347  11.942  17.830  0.00  0.00    +0.000 OA
ATOM      9  N   UNL     1       0.745  11.926  18.940  0.00  0.00    +0.000 N 
ATOM     10  C   UNL     1       1.446  10.972  19.769  0.00  0.00    +0.000 C 
BRANCH   9  11
ATOM     11  C   UNL     1       1.150  13.281  18.850  0.00  0.00    +0.000 A 
ATOM     12  C   UNL     1       0.417  14.314  19.458  0.00  0.00    +0.000 A 
ATOM     13  C   UNL     1       0.834  15.646  19.365  0.00  0.00    +0.000 A 
ATOM     14  C   UNL     1       1.984  15.967  18.653  0.00  0.00    +0.000 A 
ATOM     15  C   UNL     1       2.710  14.953  18.047  0.00  0.00    +0.000 A 
ATOM     16  F   UNL     1       3.817  15.252  17.356  0.00  0.00    +0.000 F 
ATOM     17  C   UNL     1       2.307  13.626  18.143  0.00  0.00    +0.000 A 
ENDBRANCH   9  11
ENDBRANCH   3   5
BRANCH   1  18
ATOM     18  C   UNL     1       3.265   6.954  18.013  0.00  0.00    +0.000 C 
ATOM     19  O   UNL     1       3.595   7.575  17.004  0.00  0.00    +0.000 OA
BRANCH  18  29
ATOM     20  C   UNL     1       6.388   5.789  18.456  0.00  0.00    +0.000 C 
ATOM     21  C   UNL     1       5.051   5.135  18.494  0.00  0.00    +0.000 A 
ATOM     22  N   UNL     1       5.005   3.788  18.757  0.00  0.00    +0.000 N 
ATOM     23  C   UNL     1       3.720   3.324  18.741  0.00  0.00    +0.000 A 
ATOM     24  C   UNL     1       3.244   2.026  18.962  0.00  0.00    +0.000 A 
ATOM     25  C   UNL     1       1.870   1.817  18.875  0.00  0.00    +0.000 A 
ATOM     26  C   UNL     1       1.012   2.870  18.576  0.00  0.00    +0.000 A 
ATOM     27  C   UNL     1       1.508   4.165  18.363  0.00  0.00    +0.000 A 
ATOM     28  C   UNL     1       2.898   4.412  18.450  0.00  0.00    +0.000 A 
ATOM     29  C   UNL     1       3.741   5.584  18.304  0.00  0.00    +0.000 A 
ATOM     30  H   UNL     1       5.811   3.203  18.933  0.00  0.00    +0.000 HD
ENDBRANCH  18  29
ENDBRANCH   1  18
TORSDOF 4
ENDMDL
MODEL 8
REMARK VINA RESULT:      -7.8      1.467      2.881
REMARK  Name = 
REMARK  5 active torsions:
REMARK  status: ('A' for Active; 'I' for Inactive)
REMARK    1  A    between atoms: C_1  and  C_2
REMARK    2  A    between atoms: C_10  and  C_11
REMARK    3  A    between atoms: C_11  and  C_13
REMARK    4  A    between atoms: N_15  and  C_16
REMARK    5  A    between atoms: N_20  and  C_21
REMARK                            x       y       z     vdW  Elec       q    Type
REMARK                         _______ _______ _______ _____ _____    ______ ____
ROOT
ATOM      1  C   UNL     1       1.882   8.459  18.571  0.00  0.00    +0.000 C 
ATOM      2  O   UNL     1       2.064   8.608  17.377  0.00  0.00    +0.000 OA
ATOM      3  N   UNL     1       1.136   9.357  19.349  0.00  0.00    +0.000 N 
ATOM      4  H   UNL     1       0.778   9.027  20.239  0.00  0.00    +0.000 HD
ENDROOT
BRANCH   3   5
ATOM      5  C   UNL     1       0.537  10.505  18.661  0.00  0.00    +0.000 C 
ATOM      6  C   UNL     1       1.213  11.841  18.919  0.00  0.00    +0.000 C 
ATOM      7  C   UNL     1       0.342  12.523  19.940  0.00  0.00    +0.000 C 
ATOM      8  O   UNL     1       0.677  13.554  20.504  0.00  0.00    +0.000 OA
ATOM      9  N   UNL     1      -0.870  11.830  20.014  0.00  0.00    +0.000 N 
ATOM     10  C   UNL     1      -0.919  10.755  19.047  0.00  0.00    +0.000 C 
BRANCH   9  11
ATOM     11  C   UNL     1      -2.010  12.218  20.760  0.00  0.00    +0.000 A 
ATOM     12  C   UNL     1      -2.029  12.161  22.164  0.00  0.00    +0.000 A 
ATOM     13  C   UNL     1      -3.160  12.552  22.888  0.00  0.00    +0.000 A 
ATOM     14  C   UNL     1      -4.295  12.996  22.217  0.00  0.00    +0.000 A 
ATOM     15  C   UNL     1      -4.284  13.051  20.833  0.00  0.00    +0.000 A 
ATOM     16  F   UNL     1      -5.373  13.473  20.177  0.00  0.00    +0.000 F 
ATOM     17  C   UNL     1      -3.160  12.672  20.108  0.00  0.00    +0.000 A 
ENDBRANCH   9  11
ENDBRANCH   3   5
BRANCH   1  18
ATOM     18  C   UNL     1       2.438   7.216  19.268  0.00  0.00    +0.000 C 
ATOM     19  O   UNL     1       2.487   7.284  20.496  0.00  0.00    +0.000 OA
BRANCH  18  29
ATOM     20  C   UNL     1       4.855   6.867  16.956  0.00  0.00    +0.000 C 
ATOM     21  C   UNL     1       3.892   5.908  17.564  0.00  0.00    +0.000 A 
ATOM     22  N   UNL     1       3.941   4.600  17.146  0.00  0.00    +0.000 N 
ATOM     23  C   UNL     1       2.992   3.844  17.773  0.00  0.00    +0.000 A 
ATOM     24  C   UNL     1       2.714   2.479  17.634  0.00  0.00    +0.000 A 
ATOM     25  C   UNL     1       1.671   1.951  18.391  0.00  0.00    +0.000 A 
ATOM     26  C   UNL     1       0.938   2.764  19.250  0.00  0.00    +0.000 A 
ATOM     27  C   UNL     1       1.236   4.128  19.378  0.00  0.00    +0.000 A 
ATOM     28  C   UNL     1       2.293   4.695  18.627  0.00  0.00    +0.000 A 
ATOM     29  C   UNL     1       2.872   6.020  18.513  0.00  0.00    +0.000 A 
ATOM     30  H   UNL     1       4.587   4.235  16.459  0.00  0.00    +0.000 HD
ENDBRANCH  18  29
ENDBRANCH   1  18
TORSDOF 4
ENDMDL
MODEL 9
REMARK VINA RESULT:      -7.8      2.122      2.754
REMARK  Name = 
REMARK  5 active torsions:
REMARK  status: ('A' for Active; 'I' for Inactive)
REMARK    1  A    between atoms: C_1  and  C_2
REMARK    2  A    between atoms: C_10  and  C_11
REMARK    3  A    between atoms: C_11  and  C_13
REMARK    4  A    between atoms: N_15  and  C_16
REMARK    5  A    between atoms: N_20  and  C_21
REMARK                            x       y       z     vdW  Elec       q    Type
REMARK                         _______ _______ _______ _____ _____    ______ ____
ROOT
ATOM      1  C   UNL     1       2.281   7.732  18.985  0.00  0.00    +0.000 C 
ATOM      2  O   UNL     1       2.827   8.144  17.978  0.00  0.00    +0.000 OA
ATOM      3  N   UNL     1       1.515   8.550  19.829  0.00  0.00    +0.000 N 
ATOM      4  H   UNL     1       0.860   8.099  20.457  0.00  0.00    +0.000 HD
ENDROOT
BRANCH   3   5
ATOM      5  C   UNL     1       1.359   9.955  19.441  0.00  0.00    +0.000 C 
ATOM      6  C   UNL     1       0.721  10.851  20.490  0.00  0.00    +0.000 C 
ATOM      7  C   UNL     1      -0.711  10.999  20.051  0.00  0.00    +0.000 C 
ATOM      8  O   UNL     1      -1.562  11.521  20.756  0.00  0.00    +0.000 OA
ATOM      9  N   UNL     1      -0.815  10.539  18.736  0.00  0.00    +0.000 N 
ATOM     10  C   UNL     1       0.477  10.154  18.211  0.00  0.00    +0.000 C 
BRANCH   9  11
ATOM     11  C   UNL     1      -1.964  10.621  17.910  0.00  0.00    +0.000 A 
ATOM     12  C   UNL     1      -2.055   9.916  16.698  0.00  0.00    +0.000 A 
ATOM     13  C   UNL     1      -3.198  10.003  15.897  0.00  0.00    +0.000 A 
ATOM     14  C   UNL     1      -4.264  10.805  16.290  0.00  0.00    +0.000 A 
ATOM     15  C   UNL     1      -4.179  11.506  17.482  0.00  0.00    +0.000 A 
ATOM     16  F   UNL     1      -5.198  12.285  17.869  0.00  0.00    +0.000 F 
ATOM     17  C   UNL     1      -3.050  11.417  18.288  0.00  0.00    +0.000 A 
ENDBRANCH   9  11
ENDBRANCH   3   5
BRANCH   1  18
ATOM     18  C   UNL     1       2.378   6.247  19.340  0.00  0.00    +0.000 C 
ATOM     19  O   UNL     1       1.943   5.947  20.452  0.00  0.00    +0.000 OA
BRANCH  18  29
ATOM     20  C   UNL     1       1.083   3.360  18.200  0.00  0.00    +0.000 C 
ATOM     21  C   UNL     1       2.371   4.062  17.942  0.00  0.00    +0.000 A 
ATOM     22  N   UNL     1       3.259   3.473  17.075  0.00  0.00    +0.000 N 
ATOM     23  C   UNL     1       4.398   4.218  16.950  0.00  0.00    +0.000 A 
ATOM     24  C   UNL     1       5.535   3.972  16.171  0.00  0.00    +0.000 A 
ATOM     25  C   UNL     1       6.575   4.896  16.236  0.00  0.00    +0.000 A 
ATOM     26  C   UNL     1       6.475   6.018  17.053  0.00  0.00    +0.000 A 
ATOM     27  C   UNL     1       5.325   6.248  17.822  0.00  0.00    +0.000 A 
ATOM     28  C   UNL     1       4.248   5.331  17.774  0.00  0.00    +0.000 A 
ATOM     29  C   UNL     1       2.944   5.250  18.405  0.00  0.00    +0.000 A 
ATOM     30  H   UNL     1       3.103   2.599  16.591  0.00  0.00    +0.000 HD
ENDBRANCH  18  29
ENDBRANCH   1  18
TORSDOF 4
ENDMDL
