MODEL 1
REMARK VINA RESULT:      -7.3      0.000      0.000
REMARK  Name = 
REMARK  1 active torsions:
REMARK  status: ('A' for Active; 'I' for Inactive)
REMARK    1  A    between atoms: C_11  and  O_12
REMARK                            x       y       z     vdW  Elec       q    Type
REMARK                         _______ _______ _______ _____ _____    ______ ____
ROOT
ATOM      1  O   UNL     1       3.029   2.106  22.113  0.00  0.00    +0.000 OA
ATOM      2  C   UNL     1       2.955   2.529  20.966  0.00  0.00    +0.000 C 
ATOM      3  C   UNL     1       3.841   2.046  19.888  0.00  0.00    +0.000 C 
ATOM      4  C   UNL     1       3.895   2.638  18.668  0.00  0.00    +0.000 C 
ATOM      5  C   UNL     1       3.081   3.884  18.284  0.00  0.00    +0.000 C 
ATOM      6  C   UNL     1       2.249   4.317  19.521  0.00  0.00    +0.000 C 
ATOM      7  C   UNL     1       2.081   3.643  20.650  0.00  0.00    +0.000 C 
ATOM      8  O   UNL     1       1.879   5.643  19.673  0.00  0.00    +0.000 OA
ATOM      9  C   UNL     1       2.917   6.543  19.319  0.00  0.00    +0.000 A 
ATOM     10  C   UNL     1       2.726   7.772  19.887  0.00  0.00    +0.000 A 
ATOM     11  C   UNL     1       1.979   8.644  19.139  0.00  0.00    +0.000 A 
ATOM     12  C   UNL     1       1.672   8.334  17.807  0.00  0.00    +0.000 A 
ATOM     13  C   UNL     1       2.283   7.227  17.177  0.00  0.00    +0.000 A 
ATOM     14  C   UNL     1       3.065   6.381  17.954  0.00  0.00    +0.000 A 
ATOM     15  C   UNL     1       3.876   5.118  17.634  0.00  0.00    +0.000 C 
ATOM     16  O   UNL     1       4.101   5.134  16.221  0.00  0.00    +0.000 OA
ATOM     17  C   UNL     1       5.165   6.005  15.949  0.00  0.00    +0.000 C 
ATOM     18  O   UNL     1       5.439   6.499  14.881  0.00  0.00    +0.000 OA
ATOM     19  C   UNL     1       5.923   6.114  17.202  0.00  0.00    +0.000 A 
ATOM     20  C   UNL     1       7.036   6.861  17.543  0.00  0.00    +0.000 A 
ATOM     21  C   UNL     1       7.599   6.648  18.809  0.00  0.00    +0.000 A 
ATOM     22  C   UNL     1       7.080   5.663  19.660  0.00  0.00    +0.000 A 
ATOM     23  C   UNL     1       5.899   5.005  19.331  0.00  0.00    +0.000 A 
ATOM     24  C   UNL     1       5.286   5.312  18.125  0.00  0.00    +0.000 A 
ENDROOT
BRANCH  11  25
ATOM     25  O   UNL     1       1.485   9.767  19.723  0.00  0.00    +0.000 OA
ATOM     26  H   UNL     1       1.682   9.716  20.676  0.00  0.00    +0.000 HD
ENDBRANCH  11  25
TORSDOF 1
ENDMDL
MODEL 2
REMARK VINA RESULT:      -6.8      8.775     11.122
REMARK  Name = 
REMARK  1 active torsions:
REMARK  status: ('A' for Active; 'I' for Inactive)
REMARK    1  A    between atoms: C_11  and  O_12
REMARK                            x       y       z     vdW  Elec       q    Type
REMARK                         _______ _______ _______ _____ _____    ______ ____
ROOT
ATOM      1  O   UNL     1       8.725   9.961  18.203  0.00  0.00    +0.000 OA
ATOM      2  C   UNL     1       9.334  11.013  18.351  0.00  0.00    +0.000 C 
ATOM      3  C   UNL     1      10.512  11.127  19.233  0.00  0.00    +0.000 C 
ATOM      4  C   UNL     1      11.076  12.321  19.548  0.00  0.00    +0.000 C 
ATOM      5  C   UNL     1      10.538  13.676  19.061  0.00  0.00    +0.000 C 
ATOM      6  C   UNL     1       9.272  13.413  18.202  0.00  0.00    +0.000 C 
ATOM      7  C   UNL     1       8.826  12.242  17.770  0.00  0.00    +0.000 C 
ATOM      8  O   UNL     1       8.292  14.386  18.103  0.00  0.00    +0.000 OA
ATOM      9  C   UNL     1       8.039  15.035  19.340  0.00  0.00    +0.000 A 
ATOM     10  C   UNL     1       6.810  15.634  19.346  0.00  0.00    +0.000 A 
ATOM     11  C   UNL     1       6.795  16.925  18.887  0.00  0.00    +0.000 A 
ATOM     12  C   UNL     1       8.002  17.604  18.676  0.00  0.00    +0.000 A 
ATOM     13  C   UNL     1       9.221  17.038  19.110  0.00  0.00    +0.000 A 
ATOM     14  C   UNL     1       9.199  15.739  19.605  0.00  0.00    +0.000 A 
ATOM     15  C   UNL     1      10.288  14.814  20.166  0.00  0.00    +0.000 C 
ATOM     16  O   UNL     1      11.375  15.663  20.549  0.00  0.00    +0.000 OA
ATOM     17  C   UNL     1      11.079  16.232  21.794  0.00  0.00    +0.000 C 
ATOM     18  O   UNL     1      11.598  17.207  22.285  0.00  0.00    +0.000 OA
ATOM     19  C   UNL     1      10.082  15.347  22.411  0.00  0.00    +0.000 A 
ATOM     20  C   UNL     1       9.394  15.428  23.609  0.00  0.00    +0.000 A 
ATOM     21  C   UNL     1       8.583  14.342  23.967  0.00  0.00    +0.000 A 
ATOM     22  C   UNL     1       8.533  13.197  23.160  0.00  0.00    +0.000 A 
ATOM     23  C   UNL     1       9.151  13.192  21.914  0.00  0.00    +0.000 A 
ATOM     24  C   UNL     1       9.853  14.321  21.519  0.00  0.00    +0.000 A 
ENDROOT
BRANCH  11  25
ATOM     25  O   UNL     1       5.606  17.506  18.575  0.00  0.00    +0.000 OA
ATOM     26  H   UNL     1       5.187  17.787  19.408  0.00  0.00    +0.000 HD
ENDBRANCH  11  25
TORSDOF 1
ENDMDL
MODEL 3
REMARK VINA RESULT:      -6.7      1.510      4.836
REMARK  Name = 
REMARK  1 active torsions:
REMARK  status: ('A' for Active; 'I' for Inactive)
REMARK    1  A    between atoms: C_11  and  O_12
REMARK                            x       y       z     vdW  Elec       q    Type
REMARK                         _______ _______ _______ _____ _____    ______ ____
ROOT
ATOM      1  O   UNL     1       7.478   5.612  15.222  0.00  0.00    +0.000 OA
ATOM      2  C   UNL     1       7.015   5.650  16.355  0.00  0.00    +0.000 C 
ATOM      3  C   UNL     1       7.077   4.495  17.273  0.00  0.00    +0.000 C 
ATOM      4  C   UNL     1       6.407   4.465  18.453  0.00  0.00    +0.000 C 
ATOM      5  C   UNL     1       5.490   5.595  18.946  0.00  0.00    +0.000 C 
ATOM      6  C   UNL     1       5.469   6.707  17.864  0.00  0.00    +0.000 C 
ATOM      7  C   UNL     1       6.248   6.800  16.795  0.00  0.00    +0.000 C 
ATOM      8  O   UNL     1       4.368   7.538  17.751  0.00  0.00    +0.000 OA
ATOM      9  C   UNL     1       3.140   6.842  17.902  0.00  0.00    +0.000 A 
ATOM     10  C   UNL     1       2.101   7.539  17.350  0.00  0.00    +0.000 A 
ATOM     11  C   UNL     1       1.483   8.420  18.199  0.00  0.00    +0.000 A 
ATOM     12  C   UNL     1       1.772   8.388  19.570  0.00  0.00    +0.000 A 
ATOM     13  C   UNL     1       2.547   7.336  20.107  0.00  0.00    +0.000 A 
ATOM     14  C   UNL     1       3.132   6.437  19.223  0.00  0.00    +0.000 A 
ATOM     15  C   UNL     1       4.010   5.194  19.423  0.00  0.00    +0.000 C 
ATOM     16  O   UNL     1       3.805   4.772  20.775  0.00  0.00    +0.000 OA
ATOM     17  C   UNL     1       2.603   4.055  20.841  0.00  0.00    +0.000 C 
ATOM     18  O   UNL     1       1.961   3.810  21.835  0.00  0.00    +0.000 OA
ATOM     19  C   UNL     1       2.341   3.588  19.473  0.00  0.00    +0.000 A 
ATOM     20  C   UNL     1       1.286   2.877  18.929  0.00  0.00    +0.000 A 
ATOM     21  C   UNL     1       1.394   2.479  17.589  0.00  0.00    +0.000 A 
ATOM     22  C   UNL     1       2.562   2.744  16.862  0.00  0.00    +0.000 A 
ATOM     23  C   UNL     1       3.557   3.550  17.404  0.00  0.00    +0.000 A 
ATOM     24  C   UNL     1       3.384   4.037  18.691  0.00  0.00    +0.000 A 
ENDROOT
BRANCH  11  25
ATOM     25  O   UNL     1       0.648   9.363  17.687  0.00  0.00    +0.000 OA
ATOM     26  H   UNL     1       0.894   9.500  16.754  0.00  0.00    +0.000 HD
ENDBRANCH  11  25
TORSDOF 1
ENDMDL
MODEL 4
REMARK VINA RESULT:      -6.7      8.573     11.479
REMARK  Name = 
REMARK  1 active torsions:
REMARK  status: ('A' for Active; 'I' for Inactive)
REMARK    1  A    between atoms: C_11  and  O_12
REMARK                            x       y       z     vdW  Elec       q    Type
REMARK                         _______ _______ _______ _____ _____    ______ ____
ROOT
ATOM      1  O   UNL     1      11.900  17.992  17.099  0.00  0.00    +0.000 OA
ATOM      2  C   UNL     1      11.322  17.529  18.074  0.00  0.00    +0.000 C 
ATOM      3  C   UNL     1      12.019  16.724  19.097  0.00  0.00    +0.000 C 
ATOM      4  C   UNL     1      11.357  16.054  20.074  0.00  0.00    +0.000 C 
ATOM      5  C   UNL     1       9.826  16.024  20.205  0.00  0.00    +0.000 C 
ATOM      6  C   UNL     1       9.225  16.854  19.038  0.00  0.00    +0.000 C 
ATOM      7  C   UNL     1       9.880  17.633  18.188  0.00  0.00    +0.000 C 
ATOM      8  O   UNL     1       7.954  16.567  18.571  0.00  0.00    +0.000 OA
ATOM      9  C   UNL     1       7.703  15.172  18.491  0.00  0.00    +0.000 A 
ATOM     10  C   UNL     1       6.675  14.899  17.631  0.00  0.00    +0.000 A 
ATOM     11  C   UNL     1       5.430  14.893  18.204  0.00  0.00    +0.000 A 
ATOM     12  C   UNL     1       5.305  14.925  19.600  0.00  0.00    +0.000 A 
ATOM     13  C   UNL     1       6.445  14.773  20.419  0.00  0.00    +0.000 A 
ATOM     14  C   UNL     1       7.692  14.746  19.806  0.00  0.00    +0.000 A 
ATOM     15  C   UNL     1       9.121  14.589  20.345  0.00  0.00    +0.000 C 
ATOM     16  O   UNL     1       8.996  13.999  21.643  0.00  0.00    +0.000 OA
ATOM     17  C   UNL     1       8.797  12.620  21.489  0.00  0.00    +0.000 C 
ATOM     18  O   UNL     1       8.358  11.857  22.316  0.00  0.00    +0.000 OA
ATOM     19  C   UNL     1       9.318  12.288  20.157  0.00  0.00    +0.000 A 
ATOM     20  C   UNL     1       9.349  11.099  19.450  0.00  0.00    +0.000 A 
ATOM     21  C   UNL     1      10.034  11.087  18.227  0.00  0.00    +0.000 A 
ATOM     22  C   UNL     1      10.713  12.230  17.783  0.00  0.00    +0.000 A 
ATOM     23  C   UNL     1      10.574  13.436  18.463  0.00  0.00    +0.000 A 
ATOM     24  C   UNL     1       9.794  13.461  19.610  0.00  0.00    +0.000 A 
ENDROOT
BRANCH  11  25
ATOM     25  O   UNL     1       4.331  14.927  17.406  0.00  0.00    +0.000 OA
ATOM     26  H   UNL     1       4.131  15.863  17.218  0.00  0.00    +0.000 HD
ENDBRANCH  11  25
TORSDOF 1
ENDMDL
MODEL 5
REMARK VINA RESULT:      -6.6      6.964      9.554
REMARK  Name = 
REMARK  1 active torsions:
REMARK  status: ('A' for Active; 'I' for Inactive)
REMARK    1  A    between atoms: C_11  and  O_12
REMARK                            x       y       z     vdW  Elec       q    Type
REMARK                         _______ _______ _______ _____ _____    ______ ____
ROOT
ATOM      1  O   UNL     1       3.613  13.605  18.193  0.00  0.00    +0.000 OA
ATOM      2  C   UNL     1       2.588  13.807  18.832  0.00  0.00    +0.000 C 
ATOM      3  C   UNL     1       2.596  14.011  20.294  0.00  0.00    +0.000 C 
ATOM      4  C   UNL     1       1.457  14.049  21.031  0.00  0.00    +0.000 C 
ATOM      5  C   UNL     1       0.051  13.848  20.445  0.00  0.00    +0.000 C 
ATOM      6  C   UNL     1       0.195  13.583  18.922  0.00  0.00    +0.000 C 
ATOM      7  C   UNL     1       1.292  13.708  18.188  0.00  0.00    +0.000 C 
ATOM      8  O   UNL     1      -0.768  12.845  18.256  0.00  0.00    +0.000 OA
ATOM      9  C   UNL     1      -1.216  11.727  19.007  0.00  0.00    +0.000 A 
ATOM     10  C   UNL     1      -1.789  10.783  18.202  0.00  0.00    +0.000 A 
ATOM     11  C   UNL     1      -3.135  10.939  17.997  0.00  0.00    +0.000 A 
ATOM     12  C   UNL     1      -3.856  11.860  18.771  0.00  0.00    +0.000 A 
ATOM     13  C   UNL     1      -3.246  12.485  19.881  0.00  0.00    +0.000 A 
ATOM     14  C   UNL     1      -1.886  12.279  20.083  0.00  0.00    +0.000 A 
ATOM     15  C   UNL     1      -0.901  12.767  21.154  0.00  0.00    +0.000 C 
ATOM     16  O   UNL     1      -1.695  13.167  22.275  0.00  0.00    +0.000 OA
ATOM     17  C   UNL     1      -2.062  12.022  22.994  0.00  0.00    +0.000 C 
ATOM     18  O   UNL     1      -2.956  11.931  23.801  0.00  0.00    +0.000 OA
ATOM     19  C   UNL     1      -1.079  10.992  22.632  0.00  0.00    +0.000 A 
ATOM     20  C   UNL     1      -0.965   9.661  22.993  0.00  0.00    +0.000 A 
ATOM     21  C   UNL     1       0.174   8.966  22.562  0.00  0.00    +0.000 A 
ATOM     22  C   UNL     1       1.181   9.629  21.848  0.00  0.00    +0.000 A 
ATOM     23  C   UNL     1       0.987  10.935  21.412  0.00  0.00    +0.000 A 
ATOM     24  C   UNL     1      -0.199  11.573  21.745  0.00  0.00    +0.000 A 
ENDROOT
BRANCH  11  25
ATOM     25  O   UNL     1      -3.741  10.248  16.996  0.00  0.00    +0.000 OA
ATOM     26  H   UNL     1      -3.049   9.761  16.513  0.00  0.00    +0.000 HD
ENDBRANCH  11  25
TORSDOF 1
ENDMDL
MODEL 6
REMARK VINA RESULT:      -6.6      5.595      8.892
REMARK  Name = 
REMARK  1 active torsions:
REMARK  status: ('A' for Active; 'I' for Inactive)
REMARK    1  A    between atoms: C_11  and  O_12
REMARK                            x       y       z     vdW  Elec       q    Type
REMARK                         _______ _______ _______ _____ _____    ______ ____
ROOT
ATOM      1  O   UNL     1      -3.644  14.753  22.397  0.00  0.00    +0.000 OA
ATOM      2  C   UNL     1      -3.108  14.240  21.423  0.00  0.00    +0.000 C 
ATOM      3  C   UNL     1      -3.543  12.939  20.877  0.00  0.00    +0.000 C 
ATOM      4  C   UNL     1      -2.841  12.277  19.922  0.00  0.00    +0.000 C 
ATOM      5  C   UNL     1      -1.513  12.779  19.334  0.00  0.00    +0.000 C 
ATOM      6  C   UNL     1      -1.147  14.113  20.037  0.00  0.00    +0.000 C 
ATOM      7  C   UNL     1      -1.914  14.829  20.848  0.00  0.00    +0.000 C 
ATOM      8  O   UNL     1       0.180  14.497  20.140  0.00  0.00    +0.000 OA
ATOM      9  C   UNL     1       1.040  13.412  20.454  0.00  0.00    +0.000 A 
ATOM     10  C   UNL     1       2.218  13.849  20.992  0.00  0.00    +0.000 A 
ATOM     11  C   UNL     1       3.205  14.115  20.079  0.00  0.00    +0.000 A 
ATOM     12  C   UNL     1       3.046  13.719  18.744  0.00  0.00    +0.000 A 
ATOM     13  C   UNL     1       1.967  12.885  18.375  0.00  0.00    +0.000 A 
ATOM     14  C   UNL     1       1.000  12.604  19.333  0.00  0.00    +0.000 A 
ATOM     15  C   UNL     1      -0.278  11.753  19.312  0.00  0.00    +0.000 C 
ATOM     16  O   UNL     1      -0.141  10.852  18.209  0.00  0.00    +0.000 OA
ATOM     17  C   UNL     1       0.680   9.787  18.603  0.00  0.00    +0.000 C 
ATOM     18  O   UNL     1       1.255   9.011  17.876  0.00  0.00    +0.000 OA
ATOM     19  C   UNL     1       0.617   9.755  20.070  0.00  0.00    +0.000 A 
ATOM     20  C   UNL     1       1.253   8.954  21.002  0.00  0.00    +0.000 A 
ATOM     21  C   UNL     1       0.882   9.101  22.345  0.00  0.00    +0.000 A 
ATOM     22  C   UNL     1      -0.144   9.985  22.706  0.00  0.00    +0.000 A 
ATOM     23  C   UNL     1      -0.688  10.849  21.761  0.00  0.00    +0.000 A 
ATOM     24  C   UNL     1      -0.226  10.776  20.455  0.00  0.00    +0.000 A 
ENDROOT
BRANCH  11  25
ATOM     25  O   UNL     1       4.298  14.824  20.468  0.00  0.00    +0.000 OA
ATOM     26  H   UNL     1       4.926  14.199  20.875  0.00  0.00    +0.000 HD
ENDBRANCH  11  25
TORSDOF 1
ENDMDL
MODEL 7
REMARK VINA RESULT:      -6.6      7.013     10.544
REMARK  Name = 
REMARK  1 active torsions:
REMARK  status: ('A' for Active; 'I' for Inactive)
REMARK    1  A    between atoms: C_11  and  O_12
REMARK                            x       y       z     vdW  Elec       q    Type
REMARK                         _______ _______ _______ _____ _____    ______ ____
ROOT
ATOM      1  O   UNL     1      -1.229  17.555  18.226  0.00  0.00    +0.000 OA
ATOM      2  C   UNL     1      -0.774  16.740  19.018  0.00  0.00    +0.000 C 
ATOM      3  C   UNL     1       0.435  15.944  18.726  0.00  0.00    +0.000 C 
ATOM      4  C   UNL     1       0.836  14.912  19.512  0.00  0.00    +0.000 C 
ATOM      5  C   UNL     1       0.070  14.435  20.756  0.00  0.00    +0.000 C 
ATOM      6  C   UNL     1      -1.201  15.312  20.906  0.00  0.00    +0.000 C 
ATOM      7  C   UNL     1      -1.499  16.414  20.232  0.00  0.00    +0.000 C 
ATOM      8  O   UNL     1      -2.319  14.802  21.544  0.00  0.00    +0.000 OA
ATOM      9  C   UNL     1      -2.576  13.449  21.200  0.00  0.00    +0.000 A 
ATOM     10  C   UNL     1      -3.877  13.110  21.449  0.00  0.00    +0.000 A 
ATOM     11  C   UNL     1      -4.116  12.631  22.710  0.00  0.00    +0.000 A 
ATOM     12  C   UNL     1      -3.041  12.306  23.549  0.00  0.00    +0.000 A 
ATOM     13  C   UNL     1      -1.724  12.288  23.039  0.00  0.00    +0.000 A 
ATOM     14  C   UNL     1      -1.517  12.747  21.744  0.00  0.00    +0.000 A 
ATOM     15  C   UNL     1      -0.265  12.868  20.863  0.00  0.00    +0.000 C 
ATOM     16  O   UNL     1       0.708  11.985  21.429  0.00  0.00    +0.000 OA
ATOM     17  C   UNL     1       0.421  10.679  21.011  0.00  0.00    +0.000 C 
ATOM     18  O   UNL     1       0.824   9.655  21.511  0.00  0.00    +0.000 OA
ATOM     19  C   UNL     1      -0.387  10.817  19.792  0.00  0.00    +0.000 A 
ATOM     20  C   UNL     1      -0.990   9.878  18.976  0.00  0.00    +0.000 A 
ATOM     21  C   UNL     1      -1.604  10.336  17.802  0.00  0.00    +0.000 A 
ATOM     22  C   UNL     1      -1.542  11.691  17.450  0.00  0.00    +0.000 A 
ATOM     23  C   UNL     1      -1.022  12.622  18.343  0.00  0.00    +0.000 A 
ATOM     24  C   UNL     1      -0.524  12.169  19.556  0.00  0.00    +0.000 A 
ENDROOT
BRANCH  11  25
ATOM     25  O   UNL     1      -5.397  12.544  23.157  0.00  0.00    +0.000 OA
ATOM     26  H   UNL     1      -5.530  11.642  23.500  0.00  0.00    +0.000 HD
ENDBRANCH  11  25
TORSDOF 1
ENDMDL
MODEL 8
REMARK VINA RESULT:      -6.5      6.450      9.653
REMARK  Name = 
REMARK  1 active torsions:
REMARK  status: ('A' for Active; 'I' for Inactive)
REMARK    1  A    between atoms: C_11  and  O_12
REMARK                            x       y       z     vdW  Elec       q    Type
REMARK                         _______ _______ _______ _____ _____    ______ ____
ROOT
ATOM      1  O   UNL     1      -3.042  14.507  25.260  0.00  0.00    +0.000 OA
ATOM      2  C   UNL     1      -3.007  14.227  24.068  0.00  0.00    +0.000 C 
ATOM      3  C   UNL     1      -3.712  13.054  23.512  0.00  0.00    +0.000 C 
ATOM      4  C   UNL     1      -3.528  12.631  22.235  0.00  0.00    +0.000 C 
ATOM      5  C   UNL     1      -2.553  13.289  21.247  0.00  0.00    +0.000 C 
ATOM      6  C   UNL     1      -1.841  14.459  21.978  0.00  0.00    +0.000 C 
ATOM      7  C   UNL     1      -2.142  14.963  23.167  0.00  0.00    +0.000 C 
ATOM      8  O   UNL     1      -0.578  14.857  21.574  0.00  0.00    +0.000 OA
ATOM      9  C   UNL     1       0.266  13.761  21.258  0.00  0.00    +0.000 A 
ATOM     10  C   UNL     1       1.585  14.116  21.311  0.00  0.00    +0.000 A 
ATOM     11  C   UNL     1       2.100  14.600  20.137  0.00  0.00    +0.000 A 
ATOM     12  C   UNL     1       1.360  14.486  18.952  0.00  0.00    +0.000 A 
ATOM     13  C   UNL     1       0.180  13.712  18.924  0.00  0.00    +0.000 A 
ATOM     14  C   UNL     1      -0.298  13.204  20.126  0.00  0.00    +0.000 A 
ATOM     15  C   UNL     1      -1.510  12.333  20.487  0.00  0.00    +0.000 C 
ATOM     16  O   UNL     1      -1.914  11.688  19.275  0.00  0.00    +0.000 OA
ATOM     17  C   UNL     1      -1.069  10.592  19.051  0.00  0.00    +0.000 C 
ATOM     18  O   UNL     1      -0.909  10.006  18.007  0.00  0.00    +0.000 OA
ATOM     19  C   UNL     1      -0.500  10.253  20.361  0.00  0.00    +0.000 A 
ATOM     20  C   UNL     1       0.425   9.297  20.744  0.00  0.00    +0.000 A 
ATOM     21  C   UNL     1       0.675   9.147  22.115  0.00  0.00    +0.000 A 
ATOM     22  C   UNL     1      -0.042   9.901  23.054  0.00  0.00    +0.000 A 
ATOM     23  C   UNL     1      -0.884  10.925  22.633  0.00  0.00    +0.000 A 
ATOM     24  C   UNL     1      -1.033  11.141  21.271  0.00  0.00    +0.000 A 
ENDROOT
BRANCH  11  25
ATOM     25  O   UNL     1       3.294  15.249  20.152  0.00  0.00    +0.000 OA
ATOM     26  H   UNL     1       3.684  15.132  21.037  0.00  0.00    +0.000 HD
ENDBRANCH  11  25
TORSDOF 1
ENDMDL
MODEL 9
REMARK VINA RESULT:      -6.5      4.491      8.710
REMARK  Name = 
REMARK  1 active torsions:
REMARK  status: ('A' for Active; 'I' for Inactive)
REMARK    1  A    between atoms: C_11  and  O_12
REMARK                            x       y       z     vdW  Elec       q    Type
REMARK                         _______ _______ _______ _____ _____    ______ ____
ROOT
ATOM      1  O   UNL     1      -3.449  11.166  14.753  0.00  0.00    +0.000 OA
ATOM      2  C   UNL     1      -3.248  10.892  15.929  0.00  0.00    +0.000 C 
ATOM      3  C   UNL     1      -3.776  11.717  17.034  0.00  0.00    +0.000 C 
ATOM      4  C   UNL     1      -3.405  11.530  18.326  0.00  0.00    +0.000 C 
ATOM      5  C   UNL     1      -2.378  10.480  18.778  0.00  0.00    +0.000 C 
ATOM      6  C   UNL     1      -1.863   9.734  17.518  0.00  0.00    +0.000 C 
ATOM      7  C   UNL     1      -2.347   9.812  16.286  0.00  0.00    +0.000 C 
ATOM      8  O   UNL     1      -0.599   9.167  17.521  0.00  0.00    +0.000 OA
ATOM      9  C   UNL     1       0.368   9.992  18.152  0.00  0.00    +0.000 A 
ATOM     10  C   UNL     1       1.636   9.663  17.759  0.00  0.00    +0.000 A 
ATOM     11  C   UNL     1       2.244   8.699  18.519  0.00  0.00    +0.000 A 
ATOM     12  C   UNL     1       1.665   8.298  19.731  0.00  0.00    +0.000 A 
ATOM     13  C   UNL     1       0.568   9.010  20.263  0.00  0.00    +0.000 A 
ATOM     14  C   UNL     1      -0.006  10.007  19.483  0.00  0.00    +0.000 A 
ATOM     15  C   UNL     1      -1.173  10.977  19.716  0.00  0.00    +0.000 C 
ATOM     16  O   UNL     1      -1.371  11.033  21.132  0.00  0.00    +0.000 OA
ATOM     17  C   UNL     1      -0.414  11.897  21.682  0.00  0.00    +0.000 C 
ATOM     18  O   UNL     1      -0.079  11.960  22.841  0.00  0.00    +0.000 OA
ATOM     19  C   UNL     1       0.021  12.765  20.580  0.00  0.00    +0.000 A 
ATOM     20  C   UNL     1       0.972  13.768  20.517  0.00  0.00    +0.000 A 
ATOM     21  C   UNL     1       1.068  14.499  19.326  0.00  0.00    +0.000 A 
ATOM     22  C   UNL     1       0.181  14.254  18.269  0.00  0.00    +0.000 A 
ATOM     23  C   UNL     1      -0.691  13.171  18.324  0.00  0.00    +0.000 A 
ATOM     24  C   UNL     1      -0.692  12.381  19.464  0.00  0.00    +0.000 A 
ENDROOT
BRANCH  11  25
ATOM     25  O   UNL     1       3.368   8.094  18.051  0.00  0.00    +0.000 OA
ATOM     26  H   UNL     1       3.771   7.607  18.793  0.00  0.00    +0.000 HD
ENDBRANCH  11  25
TORSDOF 1
ENDMDL
