MODEL 1
REMARK VINA RESULT:      -8.1      0.000      0.000
REMARK  Name = 
REMARK  7 active torsions:
REMARK  status: ('A' for Active; 'I' for Inactive)
REMARK    1  A    between atoms: C_1  and  N_2
REMARK    2  A    between atoms: N_2  and  C_3
REMARK    3  A    between atoms: C_4  and  O_6
REMARK    4  A    between atoms: O_6  and  C_7
REMARK    5  A    between atoms: C_7  and  C_8
REMARK    6  A    between atoms: C_14  and  C_16
REMARK    7  A    between atoms: C_21  and  C_22
REMARK                            x       y       z     vdW  Elec       q    Type
REMARK                         _______ _______ _______ _____ _____    ______ ____
ROOT
ATOM      1  C   UNL     1       2.762   4.268  20.197  0.00  0.00    +0.000 C 
ATOM      2  C   UNL     1       1.926   2.997  19.963  0.00  0.00    +0.000 C 
ATOM      3  C   UNL     1       0.988   3.122  18.761  0.00  0.00    +0.000 C 
ATOM      4  C   UNL     1       1.755   3.547  17.519  0.00  0.00    +0.000 C 
ATOM      5  C   UNL     1       2.611   4.781  17.775  0.00  0.00    +0.000 C 
ATOM      6  N   UNL     1       3.481   4.607  18.951  0.00  0.00    +0.000 N 
ATOM      7  C   UNL     1       4.876   4.712  19.005  0.00  0.00    +0.000 C 
ATOM      8  O   UNL     1       5.507   4.472  20.040  0.00  0.00    +0.000 OA
ENDROOT
BRANCH   7   9
ATOM      9  C   UNL     1       5.658   5.100  17.763  0.00  0.00    +0.000 A 
ATOM     10  C   UNL     1       6.458   6.170  17.870  0.00  0.00    +0.000 A 
ATOM     11  C   UNL     1       7.267   6.538  16.699  0.00  0.00    +0.000 A 
ATOM     12  O   UNL     1       7.969   7.541  16.688  0.00  0.00    +0.000 OA
ATOM     13  N   UNL     1       7.198   5.677  15.645  0.00  0.00    +0.000 N 
ATOM     14  C   UNL     1       6.340   4.630  15.650  0.00  0.00    +0.000 A 
ATOM     15  N   UNL     1       5.544   4.355  16.620  0.00  0.00    +0.000 NA
ATOM     16  H   UNL     1       7.762   5.888  14.834  0.00  0.00    +0.000 HD
BRANCH  14  17
ATOM     17  C   UNL     1       6.348   3.715  14.492  0.00  0.00    +0.000 C 
ATOM     18  C   UNL     1       5.363   3.917  13.364  0.00  0.00    +0.000 C 
ATOM     19  C   UNL     1       6.823   4.180  13.143  0.00  0.00    +0.000 C 
ENDBRANCH  14  17
ENDBRANCH   7   9
BRANCH   1  20
ATOM     20  C   UNL     1       1.907   5.441  20.731  0.00  0.00    +0.000 C 
BRANCH  20  21
ATOM     21  O   UNL     1       2.364   6.695  20.190  0.00  0.00    +0.000 OA
BRANCH  21  25
ATOM     22  C   UNL     1       0.745   9.863  19.490  0.00  0.00    +0.000 C 
ATOM     23  N   UNL     1       1.597   8.696  19.388  0.00  0.00    +0.000 N 
ATOM     24  C   UNL     1       2.259   8.411  18.129  0.00  0.00    +0.000 C 
ATOM     25  C   UNL     1       1.583   7.785  20.431  0.00  0.00    +0.000 C 
ATOM     26  O   UNL     1       0.943   7.959  21.464  0.00  0.00    +0.000 OA
ENDBRANCH  21  25
ENDBRANCH  20  21
ENDBRANCH   1  20
TORSDOF 5
ENDMDL
MODEL 2
REMARK VINA RESULT:      -7.9      2.133      6.511
REMARK  Name = 
REMARK  7 active torsions:
REMARK  status: ('A' for Active; 'I' for Inactive)
REMARK    1  A    between atoms: C_1  and  N_2
REMARK    2  A    between atoms: N_2  and  C_3
REMARK    3  A    between atoms: C_4  and  O_6
REMARK    4  A    between atoms: O_6  and  C_7
REMARK    5  A    between atoms: C_7  and  C_8
REMARK    6  A    between atoms: C_14  and  C_16
REMARK    7  A    between atoms: C_21  and  C_22
REMARK                            x       y       z     vdW  Elec       q    Type
REMARK                         _______ _______ _______ _____ _____    ______ ____
ROOT
ATOM      1  C   UNL     1       3.808   4.261  18.020  0.00  0.00    +0.000 C 
ATOM      2  C   UNL     1       2.878   3.156  17.490  0.00  0.00    +0.000 C 
ATOM      3  C   UNL     1       1.945   2.602  18.569  0.00  0.00    +0.000 C 
ATOM      4  C   UNL     1       1.180   3.726  19.250  0.00  0.00    +0.000 C 
ATOM      5  C   UNL     1       2.108   4.833  19.733  0.00  0.00    +0.000 C 
ATOM      6  N   UNL     1       2.990   5.315  18.656  0.00  0.00    +0.000 N 
ATOM      7  C   UNL     1       3.117   6.624  18.177  0.00  0.00    +0.000 C 
ATOM      8  O   UNL     1       3.842   6.897  17.214  0.00  0.00    +0.000 OA
ENDROOT
BRANCH   7   9
ATOM      9  C   UNL     1       2.331   7.750  18.824  0.00  0.00    +0.000 A 
ATOM     10  C   UNL     1       2.010   8.785  18.035  0.00  0.00    +0.000 A 
ATOM     11  C   UNL     1       1.203   9.866  18.621  0.00  0.00    +0.000 A 
ATOM     12  O   UNL     1       0.927  10.880  17.991  0.00  0.00    +0.000 OA
ATOM     13  N   UNL     1       0.770   9.650  19.894  0.00  0.00    +0.000 N 
ATOM     14  C   UNL     1       1.172   8.565  20.597  0.00  0.00    +0.000 A 
ATOM     15  N   UNL     1       1.966   7.664  20.141  0.00  0.00    +0.000 NA
ATOM     16  H   UNL     1       0.192  10.364  20.317  0.00  0.00    +0.000 HD
BRANCH  14  17
ATOM     17  C   UNL     1       0.630   8.373  21.957  0.00  0.00    +0.000 C 
ATOM     18  C   UNL     1       0.866   9.424  23.017  0.00  0.00    +0.000 C 
ATOM     19  C   UNL     1      -0.510   9.216  22.459  0.00  0.00    +0.000 C 
ENDBRANCH  14  17
ENDBRANCH   7   9
BRANCH   1  20
ATOM     20  C   UNL     1       4.901   3.704  18.963  0.00  0.00    +0.000 C 
BRANCH  20  21
ATOM     21  O   UNL     1       6.215   3.968  18.435  0.00  0.00    +0.000 OA
BRANCH  21  25
ATOM     22  C   UNL     1       7.762   7.206  17.919  0.00  0.00    +0.000 C 
ATOM     23  N   UNL     1       7.207   5.889  17.685  0.00  0.00    +0.000 N 
ATOM     24  C   UNL     1       6.915   5.474  16.326  0.00  0.00    +0.000 C 
ATOM     25  C   UNL     1       6.785   5.155  18.783  0.00  0.00    +0.000 C 
ATOM     26  O   UNL     1       6.929   5.539  19.939  0.00  0.00    +0.000 OA
ENDBRANCH  21  25
ENDBRANCH  20  21
ENDBRANCH   1  20
TORSDOF 5
ENDMDL
MODEL 3
REMARK VINA RESULT:      -7.8      0.713      1.096
REMARK  Name = 
REMARK  7 active torsions:
REMARK  status: ('A' for Active; 'I' for Inactive)
REMARK    1  A    between atoms: C_1  and  N_2
REMARK    2  A    between atoms: N_2  and  C_3
REMARK    3  A    between atoms: C_4  and  O_6
REMARK    4  A    between atoms: O_6  and  C_7
REMARK    5  A    between atoms: C_7  and  C_8
REMARK    6  A    between atoms: C_14  and  C_16
REMARK    7  A    between atoms: C_21  and  C_22
REMARK                            x       y       z     vdW  Elec       q    Type
REMARK                         _______ _______ _______ _____ _____    ______ ____
ROOT
ATOM      1  C   UNL     1       2.646   4.171  20.119  0.00  0.00    +0.000 C 
ATOM      2  C   UNL     1       2.115   2.727  20.070  0.00  0.00    +0.000 C 
ATOM      3  C   UNL     1       1.306   2.438  18.805  0.00  0.00    +0.000 C 
ATOM      4  C   UNL     1       2.099   2.805  17.560  0.00  0.00    +0.000 C 
ATOM      5  C   UNL     1       2.654   4.222  17.639  0.00  0.00    +0.000 C 
ATOM      6  N   UNL     1       3.410   4.444  18.884  0.00  0.00    +0.000 N 
ATOM      7  C   UNL     1       4.740   4.860  19.012  0.00  0.00    +0.000 C 
ATOM      8  O   UNL     1       5.292   4.942  20.115  0.00  0.00    +0.000 OA
ENDROOT
BRANCH   7   9
ATOM      9  C   UNL     1       5.555   5.194  17.776  0.00  0.00    +0.000 A 
ATOM     10  C   UNL     1       6.384   6.244  17.873  0.00  0.00    +0.000 A 
ATOM     11  C   UNL     1       7.225   6.559  16.708  0.00  0.00    +0.000 A 
ATOM     12  O   UNL     1       7.956   7.541  16.686  0.00  0.00    +0.000 OA
ATOM     13  N   UNL     1       7.150   5.675  15.674  0.00  0.00    +0.000 N 
ATOM     14  C   UNL     1       6.262   4.653  15.688  0.00  0.00    +0.000 A 
ATOM     15  N   UNL     1       5.440   4.425  16.649  0.00  0.00    +0.000 NA
ATOM     16  H   UNL     1       7.734   5.850  14.869  0.00  0.00    +0.000 HD
BRANCH  14  17
ATOM     17  C   UNL     1       6.264   3.710  14.553  0.00  0.00    +0.000 C 
ATOM     18  C   UNL     1       5.342   3.941  13.379  0.00  0.00    +0.000 C 
ATOM     19  C   UNL     1       6.823   4.112  13.216  0.00  0.00    +0.000 C 
ENDBRANCH  14  17
ENDBRANCH   7   9
BRANCH   1  20
ATOM     20  C   UNL     1       1.518   5.201  20.363  0.00  0.00    +0.000 C 
BRANCH  20  21
ATOM     21  O   UNL     1       2.064   6.474  20.758  0.00  0.00    +0.000 OA
BRANCH  21  25
ATOM     22  C   UNL     1       1.104   9.764  19.576  0.00  0.00    +0.000 C 
ATOM     23  N   UNL     1       1.245   8.579  20.398  0.00  0.00    +0.000 N 
ATOM     24  C   UNL     1       0.866   8.639  21.797  0.00  0.00    +0.000 C 
ATOM     25  C   UNL     1       1.931   7.497  19.870  0.00  0.00    +0.000 C 
ATOM     26  O   UNL     1       2.353   7.470  18.718  0.00  0.00    +0.000 OA
ENDBRANCH  21  25
ENDBRANCH  20  21
ENDBRANCH   1  20
TORSDOF 5
ENDMDL
MODEL 4
REMARK VINA RESULT:      -7.6      2.016      6.734
REMARK  Name = 
REMARK  7 active torsions:
REMARK  status: ('A' for Active; 'I' for Inactive)
REMARK    1  A    between atoms: C_1  and  N_2
REMARK    2  A    between atoms: N_2  and  C_3
REMARK    3  A    between atoms: C_4  and  O_6
REMARK    4  A    between atoms: O_6  and  C_7
REMARK    5  A    between atoms: C_7  and  C_8
REMARK    6  A    between atoms: C_14  and  C_16
REMARK    7  A    between atoms: C_21  and  C_22
REMARK                            x       y       z     vdW  Elec       q    Type
REMARK                         _______ _______ _______ _____ _____    ______ ____
ROOT
ATOM      1  C   UNL     1       3.387   4.793  18.702  0.00  0.00    +0.000 C 
ATOM      2  C   UNL     1       2.499   3.619  18.250  0.00  0.00    +0.000 C 
ATOM      3  C   UNL     1       1.700   3.008  19.403  0.00  0.00    +0.000 C 
ATOM      4  C   UNL     1       0.913   4.079  20.143  0.00  0.00    +0.000 C 
ATOM      5  C   UNL     1       1.795   5.253  20.547  0.00  0.00    +0.000 C 
ATOM      6  N   UNL     1       2.549   5.789  19.400  0.00  0.00    +0.000 N 
ATOM      7  C   UNL     1       2.543   7.101  18.912  0.00  0.00    +0.000 C 
ATOM      8  O   UNL     1       3.165   7.418  17.892  0.00  0.00    +0.000 OA
ENDROOT
BRANCH   7   9
ATOM      9  C   UNL     1       1.732   8.172  19.619  0.00  0.00    +0.000 A 
ATOM     10  C   UNL     1       1.838   8.217  20.955  0.00  0.00    +0.000 A 
ATOM     11  C   UNL     1       1.105   9.277  21.663  0.00  0.00    +0.000 A 
ATOM     12  O   UNL     1       1.090   9.346  22.885  0.00  0.00    +0.000 OA
ATOM     13  N   UNL     1       0.469  10.183  20.866  0.00  0.00    +0.000 N 
ATOM     14  C   UNL     1       0.424  10.024  19.523  0.00  0.00    +0.000 A 
ATOM     15  N   UNL     1       0.965   9.043  18.894  0.00  0.00    +0.000 NA
ATOM     16  H   UNL     1      -0.023  10.938  21.322  0.00  0.00    +0.000 HD
BRANCH  14  17
ATOM     17  C   UNL     1      -0.246  11.065  18.719  0.00  0.00    +0.000 C 
ATOM     18  C   UNL     1      -1.701  10.906  18.342  0.00  0.00    +0.000 C 
ATOM     19  C   UNL     1      -1.291  11.958  19.329  0.00  0.00    +0.000 C 
ENDBRANCH  14  17
ENDBRANCH   7   9
BRANCH   1  20
ATOM     20  C   UNL     1       4.590   4.322  19.552  0.00  0.00    +0.000 C 
BRANCH  20  21
ATOM     21  O   UNL     1       5.797   4.301  18.765  0.00  0.00    +0.000 OA
BRANCH  21  25
ATOM     22  C   UNL     1       7.793   7.230  18.004  0.00  0.00    +0.000 C 
ATOM     23  N   UNL     1       6.918   6.084  17.871  0.00  0.00    +0.000 N 
ATOM     24  C   UNL     1       6.149   5.918  16.652  0.00  0.00    +0.000 C 
ATOM     25  C   UNL     1       6.691   5.302  18.993  0.00  0.00    +0.000 C 
ATOM     26  O   UNL     1       7.255   5.493  20.066  0.00  0.00    +0.000 OA
ENDBRANCH  21  25
ENDBRANCH  20  21
ENDBRANCH   1  20
TORSDOF 5
ENDMDL
MODEL 5
REMARK VINA RESULT:      -7.3      1.330      2.563
REMARK  Name = 
REMARK  7 active torsions:
REMARK  status: ('A' for Active; 'I' for Inactive)
REMARK    1  A    between atoms: C_1  and  N_2
REMARK    2  A    between atoms: N_2  and  C_3
REMARK    3  A    between atoms: C_4  and  O_6
REMARK    4  A    between atoms: O_6  and  C_7
REMARK    5  A    between atoms: C_7  and  C_8
REMARK    6  A    between atoms: C_14  and  C_16
REMARK    7  A    between atoms: C_21  and  C_22
REMARK                            x       y       z     vdW  Elec       q    Type
REMARK                         _______ _______ _______ _____ _____    ______ ____
ROOT
ATOM      1  C   UNL     1       2.741   4.144  20.137  0.00  0.00    +0.000 C 
ATOM      2  C   UNL     1       1.908   2.895  19.795  0.00  0.00    +0.000 C 
ATOM      3  C   UNL     1       1.086   3.067  18.517  0.00  0.00    +0.000 C 
ATOM      4  C   UNL     1       1.971   3.507  17.361  0.00  0.00    +0.000 C 
ATOM      5  C   UNL     1       2.821   4.717  17.726  0.00  0.00    +0.000 C 
ATOM      6  N   UNL     1       3.576   4.498  18.971  0.00  0.00    +0.000 N 
ATOM      7  C   UNL     1       4.962   4.575  19.154  0.00  0.00    +0.000 C 
ATOM      8  O   UNL     1       5.491   4.298  20.236  0.00  0.00    +0.000 OA
ENDROOT
BRANCH   7   9
ATOM      9  C   UNL     1       5.861   4.977  17.999  0.00  0.00    +0.000 A 
ATOM     10  C   UNL     1       5.762   4.243  16.881  0.00  0.00    +0.000 A 
ATOM     11  C   UNL     1       6.582   4.642  15.727  0.00  0.00    +0.000 A 
ATOM     12  O   UNL     1       6.606   3.985  14.694  0.00  0.00    +0.000 OA
ATOM     13  N   UNL     1       7.290   5.796  15.882  0.00  0.00    +0.000 N 
ATOM     14  C   UNL     1       7.319   6.447  17.069  0.00  0.00    +0.000 A 
ATOM     15  N   UNL     1       6.696   6.054  18.122  0.00  0.00    +0.000 NA
ATOM     16  H   UNL     1       7.844   6.111  15.098  0.00  0.00    +0.000 HD
BRANCH  14  17
ATOM     17  C   UNL     1       8.072   7.714  17.152  0.00  0.00    +0.000 C 
ATOM     18  C   UNL     1       7.382   8.970  17.632  0.00  0.00    +0.000 C 
ATOM     19  C   UNL     1       8.427   8.314  18.485  0.00  0.00    +0.000 C 
ENDBRANCH  14  17
ENDBRANCH   7   9
BRANCH   1  20
ATOM     20  C   UNL     1       1.861   5.320  20.621  0.00  0.00    +0.000 C 
BRANCH  20  21
ATOM     21  O   UNL     1       2.440   6.583  20.241  0.00  0.00    +0.000 OA
BRANCH  21  25
ATOM     22  C   UNL     1       0.865   9.734  19.384  0.00  0.00    +0.000 C 
ATOM     23  N   UNL     1       1.707   8.556  19.344  0.00  0.00    +0.000 N 
ATOM     24  C   UNL     1       2.386   8.213  18.109  0.00  0.00    +0.000 C 
ATOM     25  C   UNL     1       1.666   7.688  20.424  0.00  0.00    +0.000 C 
ATOM     26  O   UNL     1       1.012   7.912  21.438  0.00  0.00    +0.000 OA
ENDBRANCH  21  25
ENDBRANCH  20  21
ENDBRANCH   1  20
TORSDOF 5
ENDMDL
MODEL 6
REMARK VINA RESULT:      -7.3      1.951      7.303
REMARK  Name = 
REMARK  7 active torsions:
REMARK  status: ('A' for Active; 'I' for Inactive)
REMARK    1  A    between atoms: C_1  and  N_2
REMARK    2  A    between atoms: N_2  and  C_3
REMARK    3  A    between atoms: C_4  and  O_6
REMARK    4  A    between atoms: O_6  and  C_7
REMARK    5  A    between atoms: C_7  and  C_8
REMARK    6  A    between atoms: C_14  and  C_16
REMARK    7  A    between atoms: C_21  and  C_22
REMARK                            x       y       z     vdW  Elec       q    Type
REMARK                         _______ _______ _______ _____ _____    ______ ____
ROOT
ATOM      1  C   UNL     1       3.114   5.749  18.667  0.00  0.00    +0.000 C 
ATOM      2  C   UNL     1       2.337   4.502  18.210  0.00  0.00    +0.000 C 
ATOM      3  C   UNL     1       1.790   3.686  19.382  0.00  0.00    +0.000 C 
ATOM      4  C   UNL     1       0.975   4.565  20.319  0.00  0.00    +0.000 C 
ATOM      5  C   UNL     1       1.740   5.816  20.731  0.00  0.00    +0.000 C 
ATOM      6  N   UNL     1       2.254   6.551  19.562  0.00  0.00    +0.000 N 
ATOM      7  C   UNL     1       2.007   7.884  19.215  0.00  0.00    +0.000 C 
ATOM      8  O   UNL     1       2.437   8.373  18.165  0.00  0.00    +0.000 OA
ENDROOT
BRANCH   7   9
ATOM      9  C   UNL     1       1.165   8.763  20.123  0.00  0.00    +0.000 A 
ATOM     10  C   UNL     1       1.444   8.710  21.433  0.00  0.00    +0.000 A 
ATOM     11  C   UNL     1       0.680   9.589  22.330  0.00  0.00    +0.000 A 
ATOM     12  O   UNL     1       0.822   9.552  23.546  0.00  0.00    +0.000 OA
ATOM     13  N   UNL     1      -0.173  10.457  21.715  0.00  0.00    +0.000 N 
ATOM     14  C   UNL     1      -0.379  10.407  20.378  0.00  0.00    +0.000 A 
ATOM     15  N   UNL     1       0.197   9.572  19.590  0.00  0.00    +0.000 NA
ATOM     16  H   UNL     1      -0.694  11.091  22.303  0.00  0.00    +0.000 HD
BRANCH  14  17
ATOM     17  C   UNL     1      -1.284  11.404  19.774  0.00  0.00    +0.000 C 
ATOM     18  C   UNL     1      -0.712  12.608  19.062  0.00  0.00    +0.000 C 
ATOM     19  C   UNL     1      -1.405  11.532  18.280  0.00  0.00    +0.000 C 
ENDBRANCH  14  17
ENDBRANCH   7   9
BRANCH   1  20
ATOM     20  C   UNL     1       4.473   5.388  19.311  0.00  0.00    +0.000 C 
BRANCH  20  21
ATOM     21  O   UNL     1       5.561   5.986  18.580  0.00  0.00    +0.000 OA
BRANCH  21  25
ATOM     22  C   UNL     1       6.976   4.478  15.603  0.00  0.00    +0.000 C 
ATOM     23  N   UNL     1       6.146   5.268  16.488  0.00  0.00    +0.000 N 
ATOM     24  C   UNL     1       5.301   6.305  15.928  0.00  0.00    +0.000 C 
ATOM     25  C   UNL     1       6.345   5.142  17.854  0.00  0.00    +0.000 C 
ATOM     26  O   UNL     1       7.135   4.341  18.344  0.00  0.00    +0.000 OA
ENDBRANCH  21  25
ENDBRANCH  20  21
ENDBRANCH   1  20
TORSDOF 5
ENDMDL
MODEL 7
REMARK VINA RESULT:      -7.3      2.443      6.642
REMARK  Name = 
REMARK  7 active torsions:
REMARK  status: ('A' for Active; 'I' for Inactive)
REMARK    1  A    between atoms: C_1  and  N_2
REMARK    2  A    between atoms: N_2  and  C_3
REMARK    3  A    between atoms: C_4  and  O_6
REMARK    4  A    between atoms: O_6  and  C_7
REMARK    5  A    between atoms: C_7  and  C_8
REMARK    6  A    between atoms: C_14  and  C_16
REMARK    7  A    between atoms: C_21  and  C_22
REMARK                            x       y       z     vdW  Elec       q    Type
REMARK                         _______ _______ _______ _____ _____    ______ ____
ROOT
ATOM      1  C   UNL     1       5.362   4.601  18.193  0.00  0.00    +0.000 C 
ATOM      2  C   UNL     1       6.856   4.956  18.300  0.00  0.00    +0.000 C 
ATOM      3  C   UNL     1       7.294   5.984  17.256  0.00  0.00    +0.000 C 
ATOM      4  C   UNL     1       6.402   7.215  17.303  0.00  0.00    +0.000 C 
ATOM      5  C   UNL     1       4.925   6.849  17.239  0.00  0.00    +0.000 C 
ATOM      6  N   UNL     1       4.567   5.846  18.256  0.00  0.00    +0.000 N 
ATOM      7  C   UNL     1       3.592   5.953  19.255  0.00  0.00    +0.000 C 
ATOM      8  O   UNL     1       3.430   5.068  20.102  0.00  0.00    +0.000 OA
ENDROOT
BRANCH   7   9
ATOM      9  C   UNL     1       2.719   7.192  19.336  0.00  0.00    +0.000 A 
ATOM     10  C   UNL     1       2.682   7.969  18.244  0.00  0.00    +0.000 A 
ATOM     11  C   UNL     1       1.804   9.149  18.276  0.00  0.00    +0.000 A 
ATOM     12  O   UNL     1       1.765   9.950  17.350  0.00  0.00    +0.000 OA
ATOM     13  N   UNL     1       1.028   9.273  19.389  0.00  0.00    +0.000 N 
ATOM     14  C   UNL     1       1.165   8.427  20.437  0.00  0.00    +0.000 A 
ATOM     15  N   UNL     1       2.005   7.455  20.474  0.00  0.00    +0.000 NA
ATOM     16  H   UNL     1       0.396  10.060  19.431  0.00  0.00    +0.000 HD
BRANCH  14  17
ATOM     17  C   UNL     1       0.263   8.594  21.593  0.00  0.00    +0.000 C 
ATOM     18  C   UNL     1       0.704   9.419  22.780  0.00  0.00    +0.000 C 
ATOM     19  C   UNL     1      -0.386   9.920  21.880  0.00  0.00    +0.000 C 
ENDBRANCH  14  17
ENDBRANCH   7   9
BRANCH   1  20
ATOM     20  C   UNL     1       5.049   3.757  16.935  0.00  0.00    +0.000 C 
BRANCH  20  21
ATOM     21  O   UNL     1       3.629   3.566  16.787  0.00  0.00    +0.000 OA
BRANCH  21  25
ATOM     22  C   UNL     1       1.043   2.145  18.892  0.00  0.00    +0.000 C 
ATOM     23  N   UNL     1       1.800   3.062  18.065  0.00  0.00    +0.000 N 
ATOM     24  C   UNL     1       1.156   4.261  17.565  0.00  0.00    +0.000 C 
ATOM     25  C   UNL     1       3.046   2.655  17.614  0.00  0.00    +0.000 C 
ATOM     26  O   UNL     1       3.563   1.592  17.944  0.00  0.00    +0.000 OA
ENDBRANCH  21  25
ENDBRANCH  20  21
ENDBRANCH   1  20
TORSDOF 5
ENDMDL
MODEL 8
REMARK VINA RESULT:      -7.3      2.157      7.203
REMARK  Name = 
REMARK  7 active torsions:
REMARK  status: ('A' for Active; 'I' for Inactive)
REMARK    1  A    between atoms: C_1  and  N_2
REMARK    2  A    between atoms: N_2  and  C_3
REMARK    3  A    between atoms: C_4  and  O_6
REMARK    4  A    between atoms: O_6  and  C_7
REMARK    5  A    between atoms: C_7  and  C_8
REMARK    6  A    between atoms: C_14  and  C_16
REMARK    7  A    between atoms: C_21  and  C_22
REMARK                            x       y       z     vdW  Elec       q    Type
REMARK                         _______ _______ _______ _____ _____    ______ ____
ROOT
ATOM      1  C   UNL     1       3.129   5.253  18.426  0.00  0.00    +0.000 C 
ATOM      2  C   UNL     1       2.210   4.020  18.348  0.00  0.00    +0.000 C 
ATOM      3  C   UNL     1       1.719   3.563  19.722  0.00  0.00    +0.000 C 
ATOM      4  C   UNL     1       1.078   4.716  20.478  0.00  0.00    +0.000 C 
ATOM      5  C   UNL     1       1.980   5.943  20.513  0.00  0.00    +0.000 C 
ATOM      6  N   UNL     1       2.431   6.326  19.164  0.00  0.00    +0.000 N 
ATOM      7  C   UNL     1       2.260   7.559  18.524  0.00  0.00    +0.000 C 
ATOM      8  O   UNL     1       2.621   7.741  17.356  0.00  0.00    +0.000 OA
ENDROOT
BRANCH   7   9
ATOM      9  C   UNL     1       1.589   8.708  19.254  0.00  0.00    +0.000 A 
ATOM     10  C   UNL     1       1.552   9.885  18.612  0.00  0.00    +0.000 A 
ATOM     11  C   UNL     1       0.861  11.002  19.273  0.00  0.00    +0.000 A 
ATOM     12  O   UNL     1       0.843  12.127  18.789  0.00  0.00    +0.000 OA
ATOM     13  N   UNL     1       0.230  10.693  20.441  0.00  0.00    +0.000 N 
ATOM     14  C   UNL     1       0.350   9.466  20.999  0.00  0.00    +0.000 A 
ATOM     15  N   UNL     1       1.040   8.507  20.492  0.00  0.00    +0.000 NA
ATOM     16  H   UNL     1      -0.275  11.434  20.907  0.00  0.00    +0.000 HD
BRANCH  14  17
ATOM     17  C   UNL     1      -0.395   9.188  22.242  0.00  0.00    +0.000 C 
ATOM     18  C   UNL     1       0.223   9.516  23.581  0.00  0.00    +0.000 C 
ATOM     19  C   UNL     1      -0.946  10.309  23.079  0.00  0.00    +0.000 C 
ENDBRANCH  14  17
ENDBRANCH   7   9
BRANCH   1  20
ATOM     20  C   UNL     1       4.512   4.914  19.030  0.00  0.00    +0.000 C 
BRANCH  20  21
ATOM     21  O   UNL     1       5.544   5.716  18.426  0.00  0.00    +0.000 OA
BRANCH  21  25
ATOM     22  C   UNL     1       7.219   4.677  15.383  0.00  0.00    +0.000 C 
ATOM     23  N   UNL     1       6.265   5.262  16.302  0.00  0.00    +0.000 N 
ATOM     24  C   UNL     1       5.283   6.204  15.799  0.00  0.00    +0.000 C 
ATOM     25  C   UNL     1       6.458   5.059  17.660  0.00  0.00    +0.000 C 
ATOM     26  O   UNL     1       7.352   4.348  18.109  0.00  0.00    +0.000 OA
ENDBRANCH  21  25
ENDBRANCH  20  21
ENDBRANCH   1  20
TORSDOF 5
ENDMDL
MODEL 9
REMARK VINA RESULT:      -7.2      2.499      6.775
REMARK  Name = 
REMARK  7 active torsions:
REMARK  status: ('A' for Active; 'I' for Inactive)
REMARK    1  A    between atoms: C_1  and  N_2
REMARK    2  A    between atoms: N_2  and  C_3
REMARK    3  A    between atoms: C_4  and  O_6
REMARK    4  A    between atoms: O_6  and  C_7
REMARK    5  A    between atoms: C_7  and  C_8
REMARK    6  A    between atoms: C_14  and  C_16
REMARK    7  A    between atoms: C_21  and  C_22
REMARK                            x       y       z     vdW  Elec       q    Type
REMARK                         _______ _______ _______ _____ _____    ______ ____
ROOT
ATOM      1  C   UNL     1       5.141   4.669  18.136  0.00  0.00    +0.000 C 
ATOM      2  C   UNL     1       6.646   4.965  18.269  0.00  0.00    +0.000 C 
ATOM      3  C   UNL     1       7.136   5.995  17.250  0.00  0.00    +0.000 C 
ATOM      4  C   UNL     1       6.290   7.258  17.309  0.00  0.00    +0.000 C 
ATOM      5  C   UNL     1       4.802   6.948  17.219  0.00  0.00    +0.000 C 
ATOM      6  N   UNL     1       4.393   5.941  18.213  0.00  0.00    +0.000 N 
ATOM      7  C   UNL     1       3.409   6.066  19.201  0.00  0.00    +0.000 C 
ATOM      8  O   UNL     1       3.202   5.173  20.030  0.00  0.00    +0.000 OA
ENDROOT
BRANCH   7   9
ATOM      9  C   UNL     1       2.582   7.336  19.295  0.00  0.00    +0.000 A 
ATOM     10  C   UNL     1       2.609   8.146  18.227  0.00  0.00    +0.000 A 
ATOM     11  C   UNL     1       1.776   9.358  18.269  0.00  0.00    +0.000 A 
ATOM     12  O   UNL     1       1.797  10.187  17.368  0.00  0.00    +0.000 OA
ATOM     13  N   UNL     1       0.971   9.479  19.361  0.00  0.00    +0.000 N 
ATOM     14  C   UNL     1       1.042   8.597  20.386  0.00  0.00    +0.000 A 
ATOM     15  N   UNL     1       1.842   7.592  20.418  0.00  0.00    +0.000 NA
ATOM     16  H   UNL     1       0.368  10.288  19.408  0.00  0.00    +0.000 HD
BRANCH  14  17
ATOM     17  C   UNL     1       0.111   8.765  21.518  0.00  0.00    +0.000 C 
ATOM     18  C   UNL     1       0.597   9.385  22.808  0.00  0.00    +0.000 C 
ATOM     19  C   UNL     1      -0.364  10.131  21.931  0.00  0.00    +0.000 C 
ENDBRANCH  14  17
ENDBRANCH   7   9
BRANCH   1  20
ATOM     20  C   UNL     1       4.814   3.859  16.860  0.00  0.00    +0.000 C 
BRANCH  20  21
ATOM     21  O   UNL     1       4.177   2.611  17.194  0.00  0.00    +0.000 OA
BRANCH  21  25
ATOM     22  C   UNL     1       1.496   2.175  19.595  0.00  0.00    +0.000 C 
ATOM     23  N   UNL     1       2.781   2.095  18.932  0.00  0.00    +0.000 N 
ATOM     24  C   UNL     1       3.929   1.602  19.669  0.00  0.00    +0.000 C 
ATOM     25  C   UNL     1       2.909   2.686  17.684  0.00  0.00    +0.000 C 
ATOM     26  O   UNL     1       1.968   3.203  17.089  0.00  0.00    +0.000 OA
ENDBRANCH  21  25
ENDBRANCH  20  21
ENDBRANCH   1  20
TORSDOF 5
ENDMDL
