MODEL 1
REMARK VINA RESULT:      -7.6      0.000      0.000
REMARK  Name = 
REMARK  5 active torsions:
REMARK  status: ('A' for Active; 'I' for Inactive)
REMARK    1  A    between atoms: N_6  and  C_7
REMARK    2  A    between atoms: C_10  and  S_11
REMARK    3  A    between atoms: S_11  and  O_14
REMARK    4  A    between atoms: O_14  and  C_15
REMARK    5  A    between atoms: C_18  and  O_19
REMARK                            x       y       z     vdW  Elec       q    Type
REMARK                         _______ _______ _______ _____ _____    ______ ____
ROOT
ATOM      1  C   UNL     1       3.312   4.608  18.946  0.00  0.00    +0.000 A 
ATOM      2  C   UNL     1       4.548   4.177  19.446  0.00  0.00    +0.000 A 
ATOM      3  C   UNL     1       5.741   4.800  19.070  0.00  0.00    +0.000 A 
ATOM      4  C   UNL     1       5.709   5.881  18.189  0.00  0.00    +0.000 A 
ATOM      5  C   UNL     1       4.491   6.346  17.692  0.00  0.00    +0.000 A 
ATOM      6  C   UNL     1       3.303   5.714  18.076  0.00  0.00    +0.000 A 
ENDROOT
BRANCH   1  12
ATOM      7  O   UNL     1       1.971   4.046  21.634  0.00  0.00    +0.000 OA
ATOM      8  C   UNL     1       1.582   3.678  20.539  0.00  0.00    +0.000 C 
ATOM      9  N   UNL     1       0.457   2.868  20.385  0.00  0.00    +0.000 N 
ATOM     10  C   UNL     1       0.421   2.331  19.059  0.00  0.00    +0.000 C 
ATOM     11  C   UNL     1       1.240   3.332  18.260  0.00  0.00    +0.000 C 
ATOM     12  N   UNL     1       2.115   3.916  19.256  0.00  0.00    +0.000 N 
ATOM     13  H   UNL     1       0.082   2.422  21.212  0.00  0.00    +0.000 HD
ENDBRANCH   1  12
BRANCH   4  14
ATOM     14  S   UNL     1       7.249   6.520  17.558  0.00  0.00    +0.000 S 
ATOM     15  O   UNL     1       6.881   7.621  16.685  0.00  0.00    +0.000 OA
ATOM     16  O   UNL     1       8.114   6.739  18.703  0.00  0.00    +0.000 OA
BRANCH  14  17
ATOM     17  O   UNL     1       7.855   5.290  16.666  0.00  0.00    +0.000 OA
BRANCH  17  18
ATOM     18  C   UNL     1       7.172   4.810  15.574  0.00  0.00    +0.000 A 
ATOM     19  C   UNL     1       7.633   5.214  14.318  0.00  0.00    +0.000 A 
ATOM     20  C   UNL     1       7.005   4.755  13.153  0.00  0.00    +0.000 A 
ATOM     21  C   UNL     1       5.926   3.883  13.254  0.00  0.00    +0.000 A 
ATOM     22  C   UNL     1       5.467   3.466  14.497  0.00  0.00    +0.000 A 
ATOM     23  C   UNL     1       6.093   3.924  15.655  0.00  0.00    +0.000 A 
BRANCH  21  24
ATOM     24  O   UNL     1       5.282   3.403  12.154  0.00  0.00    +0.000 OA
ATOM     25  H   UNL     1       4.713   4.101  11.793  0.00  0.00    +0.000 HD
ENDBRANCH  21  24
ENDBRANCH  17  18
ENDBRANCH  14  17
ENDBRANCH   4  14
TORSDOF 5
ENDMDL
MODEL 2
REMARK VINA RESULT:      -7.4      0.098      1.011
REMARK  Name = 
REMARK  5 active torsions:
REMARK  status: ('A' for Active; 'I' for Inactive)
REMARK    1  A    between atoms: N_6  and  C_7
REMARK    2  A    between atoms: C_10  and  S_11
REMARK    3  A    between atoms: S_11  and  O_14
REMARK    4  A    between atoms: O_14  and  C_15
REMARK    5  A    between atoms: C_18  and  O_19
REMARK                            x       y       z     vdW  Elec       q    Type
REMARK                         _______ _______ _______ _____ _____    ______ ____
ROOT
ATOM      1  C   UNL     1       3.292   4.654  18.960  0.00  0.00    +0.000 A 
ATOM      2  C   UNL     1       4.512   4.296  19.550  0.00  0.00    +0.000 A 
ATOM      3  C   UNL     1       5.708   4.915  19.179  0.00  0.00    +0.000 A 
ATOM      4  C   UNL     1       5.696   5.921  18.214  0.00  0.00    +0.000 A 
ATOM      5  C   UNL     1       4.494   6.316  17.626  0.00  0.00    +0.000 A 
ATOM      6  C   UNL     1       3.303   5.687  18.005  0.00  0.00    +0.000 A 
ENDROOT
BRANCH   1  12
ATOM      7  O   UNL     1       1.985   4.033  21.652  0.00  0.00    +0.000 OA
ATOM      8  C   UNL     1       1.580   3.694  20.554  0.00  0.00    +0.000 C 
ATOM      9  N   UNL     1       0.450   2.892  20.395  0.00  0.00    +0.000 N 
ATOM     10  C   UNL     1       0.393   2.388  19.058  0.00  0.00    +0.000 C 
ATOM     11  C   UNL     1       1.206   3.404  18.272  0.00  0.00    +0.000 C 
ATOM     12  N   UNL     1       2.097   3.961  19.270  0.00  0.00    +0.000 N 
ATOM     13  H   UNL     1       0.084   2.428  21.217  0.00  0.00    +0.000 HD
ENDBRANCH   1  12
BRANCH   4  14
ATOM     14  S   UNL     1       7.250   6.546  17.604  0.00  0.00    +0.000 S 
ATOM     15  O   UNL     1       6.903   7.616  16.687  0.00  0.00    +0.000 OA
ATOM     16  O   UNL     1       8.083   6.806  18.765  0.00  0.00    +0.000 OA
BRANCH  14  17
ATOM     17  O   UNL     1       7.885   5.291  16.770  0.00  0.00    +0.000 OA
BRANCH  17  18
ATOM     18  C   UNL     1       7.287   4.838  15.618  0.00  0.00    +0.000 A 
ATOM     19  C   UNL     1       6.222   3.946  15.773  0.00  0.00    +0.000 A 
ATOM     20  C   UNL     1       5.546   3.450  14.651  0.00  0.00    +0.000 A 
ATOM     21  C   UNL     1       5.934   3.863  13.380  0.00  0.00    +0.000 A 
ATOM     22  C   UNL     1       6.983   4.757  13.215  0.00  0.00    +0.000 A 
ATOM     23  C   UNL     1       7.655   5.249  14.334  0.00  0.00    +0.000 A 
BRANCH  21  24
ATOM     24  O   UNL     1       5.307   3.416  12.256  0.00  0.00    +0.000 OA
ATOM     25  H   UNL     1       5.312   4.124  11.592  0.00  0.00    +0.000 HD
ENDBRANCH  21  24
ENDBRANCH  17  18
ENDBRANCH  14  17
ENDBRANCH   4  14
TORSDOF 5
ENDMDL
MODEL 3
REMARK VINA RESULT:      -7.4      4.789      6.034
REMARK  Name = 
REMARK  5 active torsions:
REMARK  status: ('A' for Active; 'I' for Inactive)
REMARK    1  A    between atoms: N_6  and  C_7
REMARK    2  A    between atoms: C_10  and  S_11
REMARK    3  A    between atoms: S_11  and  O_14
REMARK    4  A    between atoms: O_14  and  C_15
REMARK    5  A    between atoms: C_18  and  O_19
REMARK                            x       y       z     vdW  Elec       q    Type
REMARK                         _______ _______ _______ _____ _____    ______ ____
ROOT
ATOM      1  C   UNL     1       0.914   9.790  19.033  0.00  0.00    +0.000 A 
ATOM      2  C   UNL     1       1.013   9.146  20.273  0.00  0.00    +0.000 A 
ATOM      3  C   UNL     1       1.657   7.913  20.403  0.00  0.00    +0.000 A 
ATOM      4  C   UNL     1       2.228   7.310  19.282  0.00  0.00    +0.000 A 
ATOM      5  C   UNL     1       2.166   7.939  18.038  0.00  0.00    +0.000 A 
ATOM      6  C   UNL     1       1.517   9.173  17.922  0.00  0.00    +0.000 A 
ENDROOT
BRANCH   1  12
ATOM      7  O   UNL     1      -1.943  10.282  18.062  0.00  0.00    +0.000 OA
ATOM      8  C   UNL     1      -1.136  11.130  18.401  0.00  0.00    +0.000 C 
ATOM      9  N   UNL     1      -1.417  12.494  18.324  0.00  0.00    +0.000 N 
ATOM     10  C   UNL     1      -0.211  13.250  18.469  0.00  0.00    +0.000 C 
ATOM     11  C   UNL     1       0.701  12.301  19.230  0.00  0.00    +0.000 C 
ATOM     12  N   UNL     1       0.180  10.993  18.888  0.00  0.00    +0.000 N 
ATOM     13  H   UNL     1      -2.230  12.777  17.792  0.00  0.00    +0.000 HD
ENDBRANCH   1  12
BRANCH   4  14
ATOM     14  S   UNL     1       2.854   5.647  19.426  0.00  0.00    +0.000 S 
ATOM     15  O   UNL     1       2.354   5.156  20.698  0.00  0.00    +0.000 OA
ATOM     16  O   UNL     1       2.526   4.966  18.187  0.00  0.00    +0.000 OA
BRANCH  14  17
ATOM     17  O   UNL     1       4.476   5.838  19.510  0.00  0.00    +0.000 OA
BRANCH  17  18
ATOM     18  C   UNL     1       5.266   5.641  18.402  0.00  0.00    +0.000 A 
ATOM     19  C   UNL     1       5.122   6.560  17.358  0.00  0.00    +0.000 A 
ATOM     20  C   UNL     1       5.902   6.443  16.201  0.00  0.00    +0.000 A 
ATOM     21  C   UNL     1       6.831   5.412  16.102  0.00  0.00    +0.000 A 
ATOM     22  C   UNL     1       6.990   4.501  17.138  0.00  0.00    +0.000 A 
ATOM     23  C   UNL     1       6.212   4.619  18.289  0.00  0.00    +0.000 A 
BRANCH  21  24
ATOM     24  O   UNL     1       7.618   5.255  15.001  0.00  0.00    +0.000 OA
ATOM     25  H   UNL     1       7.430   5.972  14.376  0.00  0.00    +0.000 HD
ENDBRANCH  21  24
ENDBRANCH  17  18
ENDBRANCH  14  17
ENDBRANCH   4  14
TORSDOF 5
ENDMDL
MODEL 4
REMARK VINA RESULT:      -7.3      1.322      1.997
REMARK  Name = 
REMARK  5 active torsions:
REMARK  status: ('A' for Active; 'I' for Inactive)
REMARK    1  A    between atoms: N_6  and  C_7
REMARK    2  A    between atoms: C_10  and  S_11
REMARK    3  A    between atoms: S_11  and  O_14
REMARK    4  A    between atoms: O_14  and  C_15
REMARK    5  A    between atoms: C_18  and  O_19
REMARK                            x       y       z     vdW  Elec       q    Type
REMARK                         _______ _______ _______ _____ _____    ______ ____
ROOT
ATOM      1  C   UNL     1       3.604   4.154  19.092  0.00  0.00    +0.000 A 
ATOM      2  C   UNL     1       4.916   3.686  19.243  0.00  0.00    +0.000 A 
ATOM      3  C   UNL     1       5.973   4.236  18.513  0.00  0.00    +0.000 A 
ATOM      4  C   UNL     1       5.729   5.282  17.624  0.00  0.00    +0.000 A 
ATOM      5  C   UNL     1       4.437   5.785  17.470  0.00  0.00    +0.000 A 
ATOM      6  C   UNL     1       3.387   5.225  18.206  0.00  0.00    +0.000 A 
ENDROOT
BRANCH   1  12
ATOM      7  O   UNL     1       0.841   3.326  18.082  0.00  0.00    +0.000 OA
ATOM      8  C   UNL     1       1.261   3.210  19.220  0.00  0.00    +0.000 C 
ATOM      9  N   UNL     1       0.470   2.718  20.257  0.00  0.00    +0.000 N 
ATOM     10  C   UNL     1       1.090   2.991  21.517  0.00  0.00    +0.000 C 
ATOM     11  C   UNL     1       2.560   3.131  21.153  0.00  0.00    +0.000 C 
ATOM     12  N   UNL     1       2.522   3.533  19.762  0.00  0.00    +0.000 N 
ATOM     13  H   UNL     1      -0.526   2.645  20.094  0.00  0.00    +0.000 HD
ENDBRANCH   1  12
BRANCH   4  14
ATOM     14  S   UNL     1       7.046   5.823  16.552  0.00  0.00    +0.000 S 
ATOM     15  O   UNL     1       7.478   7.102  17.086  0.00  0.00    +0.000 OA
ATOM     16  O   UNL     1       7.977   4.715  16.438  0.00  0.00    +0.000 OA
BRANCH  14  17
ATOM     17  O   UNL     1       6.316   6.049  15.106  0.00  0.00    +0.000 OA
BRANCH  17  18
ATOM     18  C   UNL     1       6.327   5.061  14.150  0.00  0.00    +0.000 A 
ATOM     19  C   UNL     1       5.252   4.168  14.158  0.00  0.00    +0.000 A 
ATOM     20  C   UNL     1       5.177   3.142  13.207  0.00  0.00    +0.000 A 
ATOM     21  C   UNL     1       6.174   3.027  12.244  0.00  0.00    +0.000 A 
ATOM     22  C   UNL     1       7.241   3.915  12.220  0.00  0.00    +0.000 A 
ATOM     23  C   UNL     1       7.314   4.935  13.168  0.00  0.00    +0.000 A 
BRANCH  21  24
ATOM     24  O   UNL     1       6.148   2.052  11.293  0.00  0.00    +0.000 OA
ATOM     25  H   UNL     1       6.121   2.469  10.417  0.00  0.00    +0.000 HD
ENDBRANCH  21  24
ENDBRANCH  17  18
ENDBRANCH  14  17
ENDBRANCH   4  14
TORSDOF 5
ENDMDL
MODEL 5
REMARK VINA RESULT:      -7.3      3.413      6.905
REMARK  Name = 
REMARK  5 active torsions:
REMARK  status: ('A' for Active; 'I' for Inactive)
REMARK    1  A    between atoms: N_6  and  C_7
REMARK    2  A    between atoms: C_10  and  S_11
REMARK    3  A    between atoms: S_11  and  O_14
REMARK    4  A    between atoms: O_14  and  C_15
REMARK    5  A    between atoms: C_18  and  O_19
REMARK                            x       y       z     vdW  Elec       q    Type
REMARK                         _______ _______ _______ _____ _____    ______ ____
ROOT
ATOM      1  C   UNL     1       5.124   4.379  16.970  0.00  0.00    +0.000 A 
ATOM      2  C   UNL     1       5.540   4.575  18.294  0.00  0.00    +0.000 A 
ATOM      3  C   UNL     1       4.630   4.544  19.354  0.00  0.00    +0.000 A 
ATOM      4  C   UNL     1       3.281   4.299  19.100  0.00  0.00    +0.000 A 
ATOM      5  C   UNL     1       2.841   4.077  17.795  0.00  0.00    +0.000 A 
ATOM      6  C   UNL     1       3.761   4.112  16.742  0.00  0.00    +0.000 A 
ENDROOT
BRANCH   1  12
ATOM      7  O   UNL     1       7.443   6.320  16.527  0.00  0.00    +0.000 OA
ATOM      8  C   UNL     1       7.063   5.457  15.756  0.00  0.00    +0.000 C 
ATOM      9  N   UNL     1       7.632   5.286  14.494  0.00  0.00    +0.000 N 
ATOM     10  C   UNL     1       6.800   4.443  13.693  0.00  0.00    +0.000 C 
ATOM     11  C   UNL     1       6.025   3.641  14.727  0.00  0.00    +0.000 C 
ATOM     12  N   UNL     1       6.032   4.505  15.891  0.00  0.00    +0.000 N 
ATOM     13  H   UNL     1       8.235   6.021  14.147  0.00  0.00    +0.000 HD
ENDBRANCH   1  12
BRANCH   4  14
ATOM     14  S   UNL     1       2.111   4.475  20.434  0.00  0.00    +0.000 S 
ATOM     15  O   UNL     1       0.801   4.384  19.813  0.00  0.00    +0.000 OA
ATOM     16  O   UNL     1       2.507   3.535  21.467  0.00  0.00    +0.000 OA
BRANCH  14  17
ATOM     17  O   UNL     1       2.356   5.996  20.982  0.00  0.00    +0.000 OA
BRANCH  17  18
ATOM     18  C   UNL     1       2.008   7.084  20.216  0.00  0.00    +0.000 A 
ATOM     19  C   UNL     1       1.265   8.085  20.849  0.00  0.00    +0.000 A 
ATOM     20  C   UNL     1       0.886   9.235  20.145  0.00  0.00    +0.000 A 
ATOM     21  C   UNL     1       1.266   9.381  18.815  0.00  0.00    +0.000 A 
ATOM     22  C   UNL     1       2.013   8.398  18.180  0.00  0.00    +0.000 A 
ATOM     23  C   UNL     1       2.390   7.254  18.882  0.00  0.00    +0.000 A 
BRANCH  21  24
ATOM     24  O   UNL     1       0.928  10.482  18.086  0.00  0.00    +0.000 OA
ATOM     25  H   UNL     1       0.183  10.257  17.506  0.00  0.00    +0.000 HD
ENDBRANCH  21  24
ENDBRANCH  17  18
ENDBRANCH  14  17
ENDBRANCH   4  14
TORSDOF 5
ENDMDL
MODEL 6
REMARK VINA RESULT:      -7.3      4.808      5.961
REMARK  Name = 
REMARK  5 active torsions:
REMARK  status: ('A' for Active; 'I' for Inactive)
REMARK    1  A    between atoms: N_6  and  C_7
REMARK    2  A    between atoms: C_10  and  S_11
REMARK    3  A    between atoms: S_11  and  O_14
REMARK    4  A    between atoms: O_14  and  C_15
REMARK    5  A    between atoms: C_18  and  O_19
REMARK                            x       y       z     vdW  Elec       q    Type
REMARK                         _______ _______ _______ _____ _____    ______ ____
ROOT
ATOM      1  C   UNL     1       0.912   9.789  19.041  0.00  0.00    +0.000 A 
ATOM      2  C   UNL     1       1.014   9.096  20.255  0.00  0.00    +0.000 A 
ATOM      3  C   UNL     1       1.667   7.863  20.335  0.00  0.00    +0.000 A 
ATOM      4  C   UNL     1       2.243   7.309  19.192  0.00  0.00    +0.000 A 
ATOM      5  C   UNL     1       2.177   7.988  17.974  0.00  0.00    +0.000 A 
ATOM      6  C   UNL     1       1.521   9.221  17.907  0.00  0.00    +0.000 A 
ENDROOT
BRANCH   1  12
ATOM      7  O   UNL     1      -1.966  10.292  18.144  0.00  0.00    +0.000 OA
ATOM      8  C   UNL     1      -1.156  11.135  18.488  0.00  0.00    +0.000 C 
ATOM      9  N   UNL     1      -1.444  12.500  18.454  0.00  0.00    +0.000 N 
ATOM     10  C   UNL     1      -0.239  13.257  18.594  0.00  0.00    +0.000 C 
ATOM     11  C   UNL     1       0.693  12.292  19.310  0.00  0.00    +0.000 C 
ATOM     12  N   UNL     1       0.171  10.992  18.944  0.00  0.00    +0.000 N 
ATOM     13  H   UNL     1      -2.270  12.792  17.947  0.00  0.00    +0.000 HD
ENDBRANCH   1  12
BRANCH   4  14
ATOM     14  S   UNL     1       2.880   5.646  19.269  0.00  0.00    +0.000 S 
ATOM     15  O   UNL     1       4.224   5.772  19.804  0.00  0.00    +0.000 OA
ATOM     16  O   UNL     1       1.882   4.846  19.955  0.00  0.00    +0.000 OA
BRANCH  14  17
ATOM     17  O   UNL     1       2.952   5.173  17.705  0.00  0.00    +0.000 OA
BRANCH  17  18
ATOM     18  C   UNL     1       4.138   5.214  17.012  0.00  0.00    +0.000 A 
ATOM     19  C   UNL     1       4.698   3.984  16.655  0.00  0.00    +0.000 A 
ATOM     20  C   UNL     1       5.897   3.936  15.931  0.00  0.00    +0.000 A 
ATOM     21  C   UNL     1       6.519   5.123  15.559  0.00  0.00    +0.000 A 
ATOM     22  C   UNL     1       5.966   6.350  15.899  0.00  0.00    +0.000 A 
ATOM     23  C   UNL     1       4.773   6.395  16.619  0.00  0.00    +0.000 A 
BRANCH  21  24
ATOM     24  O   UNL     1       7.683   5.134  14.851  0.00  0.00    +0.000 OA
ATOM     25  H   UNL     1       7.835   6.030  14.510  0.00  0.00    +0.000 HD
ENDBRANCH  21  24
ENDBRANCH  17  18
ENDBRANCH  14  17
ENDBRANCH   4  14
TORSDOF 5
ENDMDL
MODEL 7
REMARK VINA RESULT:      -7.3      5.418      7.998
REMARK  Name = 
REMARK  5 active torsions:
REMARK  status: ('A' for Active; 'I' for Inactive)
REMARK    1  A    between atoms: N_6  and  C_7
REMARK    2  A    between atoms: C_10  and  S_11
REMARK    3  A    between atoms: S_11  and  O_14
REMARK    4  A    between atoms: O_14  and  C_15
REMARK    5  A    between atoms: C_18  and  O_19
REMARK                            x       y       z     vdW  Elec       q    Type
REMARK                         _______ _______ _______ _____ _____    ______ ____
ROOT
ATOM      1  C   UNL     1       3.306   5.955  18.854  0.00  0.00    +0.000 A 
ATOM      2  C   UNL     1       2.699   5.639  20.077  0.00  0.00    +0.000 A 
ATOM      3  C   UNL     1       1.884   6.557  20.743  0.00  0.00    +0.000 A 
ATOM      4  C   UNL     1       1.654   7.813  20.181  0.00  0.00    +0.000 A 
ATOM      5  C   UNL     1       2.225   8.148  18.953  0.00  0.00    +0.000 A 
ATOM      6  C   UNL     1       3.040   7.219  18.296  0.00  0.00    +0.000 A 
ENDROOT
BRANCH   1  12
ATOM      7  O   UNL     1       6.133   5.092  19.633  0.00  0.00    +0.000 OA
ATOM      8  C   UNL     1       5.513   4.738  18.646  0.00  0.00    +0.000 C 
ATOM      9  N   UNL     1       6.072   3.903  17.678  0.00  0.00    +0.000 N 
ATOM     10  C   UNL     1       5.264   3.914  16.498  0.00  0.00    +0.000 C 
ATOM     11  C   UNL     1       3.895   4.317  17.021  0.00  0.00    +0.000 C 
ATOM     12  N   UNL     1       4.205   5.058  18.228  0.00  0.00    +0.000 N 
ATOM     13  H   UNL     1       7.073   3.757  17.707  0.00  0.00    +0.000 HD
ENDBRANCH   1  12
BRANCH   4  14
ATOM     14  S   UNL     1       0.791   9.040  21.144  0.00  0.00    +0.000 S 
ATOM     15  O   UNL     1      -0.564   8.537  21.286  0.00  0.00    +0.000 OA
ATOM     16  O   UNL     1       1.609   9.308  22.313  0.00  0.00    +0.000 OA
BRANCH  14  17
ATOM     17  O   UNL     1       0.787  10.366  20.187  0.00  0.00    +0.000 OA
BRANCH  17  18
ATOM     18  C   UNL     1      -0.341  10.725  19.487  0.00  0.00    +0.000 A 
ATOM     19  C   UNL     1      -1.139  11.724  20.052  0.00  0.00    +0.000 A 
ATOM     20  C   UNL     1      -2.295  12.162  19.395  0.00  0.00    +0.000 A 
ATOM     21  C   UNL     1      -2.638  11.603  18.167  0.00  0.00    +0.000 A 
ATOM     22  C   UNL     1      -1.847  10.619  17.592  0.00  0.00    +0.000 A 
ATOM     23  C   UNL     1      -0.696  10.184  18.248  0.00  0.00    +0.000 A 
BRANCH  21  24
ATOM     24  O   UNL     1      -3.749  11.996  17.483  0.00  0.00    +0.000 OA
ATOM     25  H   UNL     1      -4.432  11.311  17.574  0.00  0.00    +0.000 HD
ENDBRANCH  21  24
ENDBRANCH  17  18
ENDBRANCH  14  17
ENDBRANCH   4  14
TORSDOF 5
ENDMDL
MODEL 8
REMARK VINA RESULT:      -7.3      4.729      5.724
REMARK  Name = 
REMARK  5 active torsions:
REMARK  status: ('A' for Active; 'I' for Inactive)
REMARK    1  A    between atoms: N_6  and  C_7
REMARK    2  A    between atoms: C_10  and  S_11
REMARK    3  A    between atoms: S_11  and  O_14
REMARK    4  A    between atoms: O_14  and  C_15
REMARK    5  A    between atoms: C_18  and  O_19
REMARK                            x       y       z     vdW  Elec       q    Type
REMARK                         _______ _______ _______ _____ _____    ______ ____
ROOT
ATOM      1  C   UNL     1       0.962   9.480  19.693  0.00  0.00    +0.000 A 
ATOM      2  C   UNL     1       1.063   8.604  20.782  0.00  0.00    +0.000 A 
ATOM      3  C   UNL     1       1.737   7.385  20.674  0.00  0.00    +0.000 A 
ATOM      4  C   UNL     1       2.336   7.030  19.465  0.00  0.00    +0.000 A 
ATOM      5  C   UNL     1       2.271   7.893  18.371  0.00  0.00    +0.000 A 
ATOM      6  C   UNL     1       1.593   9.110  18.491  0.00  0.00    +0.000 A 
ENDROOT
BRANCH   1  12
ATOM      7  O   UNL     1       1.460  12.062  21.252  0.00  0.00    +0.000 OA
ATOM      8  C   UNL     1       0.493  11.812  20.553  0.00  0.00    +0.000 C 
ATOM      9  N   UNL     1      -0.579  12.695  20.425  0.00  0.00    +0.000 N 
ATOM     10  C   UNL     1      -1.692  12.028  19.825  0.00  0.00    +0.000 C 
ATOM     11  C   UNL     1      -1.039  10.888  19.059  0.00  0.00    +0.000 C 
ATOM     12  N   UNL     1       0.199  10.670  19.779  0.00  0.00    +0.000 N 
ATOM     13  H   UNL     1      -0.635  13.463  21.082  0.00  0.00    +0.000 HD
ENDBRANCH   1  12
BRANCH   4  14
ATOM     14  S   UNL     1       3.002   5.387  19.286  0.00  0.00    +0.000 S 
ATOM     15  O   UNL     1       4.365   5.467  19.780  0.00  0.00    +0.000 OA
ATOM     16  O   UNL     1       2.046   4.477  19.893  0.00  0.00    +0.000 OA
BRANCH  14  17
ATOM     17  O   UNL     1       3.017   5.137  17.670  0.00  0.00    +0.000 OA
BRANCH  17  18
ATOM     18  C   UNL     1       4.192   5.193  16.960  0.00  0.00    +0.000 A 
ATOM     19  C   UNL     1       4.728   3.974  16.535  0.00  0.00    +0.000 A 
ATOM     20  C   UNL     1       5.914   3.944  15.790  0.00  0.00    +0.000 A 
ATOM     21  C   UNL     1       6.549   5.138  15.465  0.00  0.00    +0.000 A 
ATOM     22  C   UNL     1       6.020   6.355  15.872  0.00  0.00    +0.000 A 
ATOM     23  C   UNL     1       4.839   6.383  16.614  0.00  0.00    +0.000 A 
BRANCH  21  24
ATOM     24  O   UNL     1       7.701   5.166  14.739  0.00  0.00    +0.000 OA
ATOM     25  H   UNL     1       8.365   5.682  15.223  0.00  0.00    +0.000 HD
ENDBRANCH  21  24
ENDBRANCH  17  18
ENDBRANCH  14  17
ENDBRANCH   4  14
TORSDOF 5
ENDMDL
MODEL 9
REMARK VINA RESULT:      -7.3      5.659      7.752
REMARK  Name = 
REMARK  5 active torsions:
REMARK  status: ('A' for Active; 'I' for Inactive)
REMARK    1  A    between atoms: N_6  and  C_7
REMARK    2  A    between atoms: C_10  and  S_11
REMARK    3  A    between atoms: S_11  and  O_14
REMARK    4  A    between atoms: O_14  and  C_15
REMARK    5  A    between atoms: C_18  and  O_19
REMARK                            x       y       z     vdW  Elec       q    Type
REMARK                         _______ _______ _______ _____ _____    ______ ____
ROOT
ATOM      1  C   UNL     1       2.454   6.002  19.199  0.00  0.00    +0.000 A 
ATOM      2  C   UNL     1       2.599   7.070  18.304  0.00  0.00    +0.000 A 
ATOM      3  C   UNL     1       2.160   8.356  18.629  0.00  0.00    +0.000 A 
ATOM      4  C   UNL     1       1.577   8.594  19.874  0.00  0.00    +0.000 A 
ATOM      5  C   UNL     1       1.441   7.555  20.795  0.00  0.00    +0.000 A 
ATOM      6  C   UNL     1       1.884   6.271  20.457  0.00  0.00    +0.000 A 
ENDROOT
BRANCH   1  12
ATOM      7  O   UNL     1       1.116   4.028  17.287  0.00  0.00    +0.000 OA
ATOM      8  C   UNL     1       2.116   3.827  17.954  0.00  0.00    +0.000 C 
ATOM      9  N   UNL     1       2.763   2.591  17.968  0.00  0.00    +0.000 N 
ATOM     10  C   UNL     1       3.687   2.536  19.058  0.00  0.00    +0.000 C 
ATOM     11  C   UNL     1       3.994   4.002  19.324  0.00  0.00    +0.000 C 
ATOM     12  N   UNL     1       2.814   4.683  18.830  0.00  0.00    +0.000 N 
ATOM     13  H   UNL     1       2.273   1.800  17.570  0.00  0.00    +0.000 HD
ENDBRANCH   1  12
BRANCH   4  14
ATOM     14  S   UNL     1       0.834  10.184  20.185  0.00  0.00    +0.000 S 
ATOM     15  O   UNL     1       1.129  10.482  21.575  0.00  0.00    +0.000 OA
ATOM     16  O   UNL     1       1.279  11.071  19.126  0.00  0.00    +0.000 OA
BRANCH  14  17
ATOM     17  O   UNL     1      -0.770   9.915  20.010  0.00  0.00    +0.000 OA
BRANCH  17  18
ATOM     18  C   UNL     1      -1.420  10.273  18.853  0.00  0.00    +0.000 A 
ATOM     19  C   UNL     1      -2.217  11.420  18.910  0.00  0.00    +0.000 A 
ATOM     20  C   UNL     1      -2.900  11.865  17.771  0.00  0.00    +0.000 A 
ATOM     21  C   UNL     1      -2.769  11.163  16.577  0.00  0.00    +0.000 A 
ATOM     22  C   UNL     1      -1.971  10.029  16.506  0.00  0.00    +0.000 A 
ATOM     23  C   UNL     1      -1.293   9.588  17.641  0.00  0.00    +0.000 A 
BRANCH  21  24
ATOM     24  O   UNL     1      -3.406  11.555  15.438  0.00  0.00    +0.000 OA
ATOM     25  H   UNL     1      -4.363  11.552  15.597  0.00  0.00    +0.000 HD
ENDBRANCH  21  24
ENDBRANCH  17  18
ENDBRANCH  14  17
ENDBRANCH   4  14
TORSDOF 5
ENDMDL
