MODEL 1
REMARK VINA RESULT:      -6.5      0.000      0.000
REMARK  Name = 
REMARK  5 active torsions:
REMARK  status: ('A' for Active; 'I' for Inactive)
REMARK    1  A    between atoms: C_1  and  N_2
REMARK    2  A    between atoms: C_4  and  C_5
REMARK    3  A    between atoms: C_14  and  N_15
REMARK    4  A    between atoms: C_16  and  C_17
REMARK    5  A    between atoms: C_19  and  C_20
REMARK                            x       y       z     vdW  Elec       q    Type
REMARK                         _______ _______ _______ _____ _____    ______ ____
ROOT
ATOM      1  C   UNL     1       3.448   1.467  18.485  0.00  0.00    +0.000 C 
ATOM      2  N   UNL     1       3.885   2.632  17.758  0.00  0.00    +0.000 N 
ATOM      3  N   UNL     1       4.640   2.507  16.648  0.00  0.00    +0.000 NA
ATOM      4  C   UNL     1       4.855   3.771  16.222  0.00  0.00    +0.000 A 
ATOM      5  C   UNL     1       4.247   4.693  17.114  0.00  0.00    +0.000 A 
ATOM      6  C   UNL     1       3.610   3.927  18.060  0.00  0.00    +0.000 A 
ATOM      7  O   UNL     1       2.869   4.343  19.084  0.00  0.00    +0.000 OA
ATOM      8  C   UNL     1       2.584   5.721  19.119  0.00  0.00    +0.000 C 
ATOM      9  C   UNL     1       3.133   6.581  18.220  0.00  0.00    +0.000 C 
ATOM     10  C   UNL     1       4.166   6.173  17.194  0.00  0.00    +0.000 C 
ENDROOT
BRANCH  10  11
ATOM     11  C   UNL     1       5.555   6.670  17.571  0.00  0.00    +0.000 A 
ATOM     12  C   UNL     1       6.151   7.773  16.946  0.00  0.00    +0.000 A 
ATOM     13  C   UNL     1       7.448   8.138  17.296  0.00  0.00    +0.000 A 
ATOM     14  C   UNL     1       8.124   7.399  18.256  0.00  0.00    +0.000 A 
ATOM     15  C   UNL     1       7.473   6.318  18.828  0.00  0.00    +0.000 A 
ATOM     16 BR   UNL     1       8.380   5.294  20.141  0.00  0.00    +0.000 Br
ATOM     17  N   UNL     1       6.219   5.935  18.499  0.00  0.00    +0.000 NA
ENDBRANCH  10  11
BRANCH   4  18
ATOM     18  C   UNL     1       5.653   4.052  15.023  0.00  0.00    +0.000 A 
ATOM     19  C   UNL     1       6.863   4.757  15.094  0.00  0.00    +0.000 A 
ATOM     20  C   UNL     1       7.658   4.942  13.961  0.00  0.00    +0.000 A 
ATOM     21  C   UNL     1       7.234   4.452  12.731  0.00  0.00    +0.000 A 
ATOM     22  C   UNL     1       6.014   3.788  12.632  0.00  0.00    +0.000 A 
ATOM     23  C   UNL     1       5.228   3.589  13.772  0.00  0.00    +0.000 A 
ENDBRANCH   4  18
BRANCH   8  24
ATOM     24  N   UNL     1       1.728   6.071  20.137  0.00  0.00    +0.000 N 
ATOM     25  H   UNL     1       0.872   5.524  20.149  0.00  0.00    +0.000 HD
ATOM     26  H   UNL     1       1.586   7.065  20.298  0.00  0.00    +0.000 HD
ENDBRANCH   8  24
BRANCH   9  27
ATOM     27  C   UNL     1       2.707   8.039  18.213  0.00  0.00    +0.000 C 
ATOM     28  N   UNL     1       2.354   9.250  18.207  0.00  0.00    +0.000 NA
ENDBRANCH   9  27
TORSDOF 4
ENDMDL
MODEL 2
REMARK VINA RESULT:      -6.4      7.926     10.668
REMARK  Name = 
REMARK  5 active torsions:
REMARK  status: ('A' for Active; 'I' for Inactive)
REMARK    1  A    between atoms: C_1  and  N_2
REMARK    2  A    between atoms: C_4  and  C_5
REMARK    3  A    between atoms: C_14  and  N_15
REMARK    4  A    between atoms: C_16  and  C_17
REMARK    5  A    between atoms: C_19  and  C_20
REMARK                            x       y       z     vdW  Elec       q    Type
REMARK                         _______ _______ _______ _____ _____    ______ ____
ROOT
ATOM      1  C   UNL     1      -6.162  12.856  21.435  0.00  0.00    +0.000 C 
ATOM      2  N   UNL     1      -5.005  12.616  20.609  0.00  0.00    +0.000 N 
ATOM      3  N   UNL     1      -5.104  11.877  19.486  0.00  0.00    +0.000 NA
ATOM      4  C   UNL     1      -3.860  11.864  18.961  0.00  0.00    +0.000 A 
ATOM      5  C   UNL     1      -2.971  12.584  19.802  0.00  0.00    +0.000 A 
ATOM      6  C   UNL     1      -3.746  13.076  20.824  0.00  0.00    +0.000 A 
ATOM      7  O   UNL     1      -3.366  13.849  21.839  0.00  0.00    +0.000 OA
ATOM      8  C   UNL     1      -2.047  14.338  21.781  0.00  0.00    +0.000 C 
ATOM      9  C   UNL     1      -1.189  13.945  20.803  0.00  0.00    +0.000 C 
ATOM     10  C   UNL     1      -1.517  12.885  19.775  0.00  0.00    +0.000 C 
ENDROOT
BRANCH  10  11
ATOM     11  C   UNL     1      -0.792  11.579  20.066  0.00  0.00    +0.000 A 
ATOM     12  C   UNL     1      -0.900  10.921  21.299  0.00  0.00    +0.000 A 
ATOM     13  C   UNL     1      -0.163   9.762  21.521  0.00  0.00    +0.000 A 
ATOM     14  C   UNL     1       0.666   9.283  20.517  0.00  0.00    +0.000 A 
ATOM     15  C   UNL     1       0.726   9.988  19.326  0.00  0.00    +0.000 A 
ATOM     16 BR   UNL     1       1.854   9.352  17.941  0.00  0.00    +0.000 Br
ATOM     17  N   UNL     1       0.030  11.123  19.088  0.00  0.00    +0.000 NA
ENDBRANCH  10  11
BRANCH   4  18
ATOM     18  C   UNL     1      -3.557  11.145  17.718  0.00  0.00    +0.000 A 
ATOM     19  C   UNL     1      -4.072  11.564  16.482  0.00  0.00    +0.000 A 
ATOM     20  C   UNL     1      -3.707  10.926  15.295  0.00  0.00    +0.000 A 
ATOM     21  C   UNL     1      -2.846   9.835  15.333  0.00  0.00    +0.000 A 
ATOM     22  C   UNL     1      -2.360   9.376  16.554  0.00  0.00    +0.000 A 
ATOM     23  C   UNL     1      -2.713  10.028  17.740  0.00  0.00    +0.000 A 
ENDBRANCH   4  18
BRANCH   8  24
ATOM     24  N   UNL     1      -1.750  15.212  22.799  0.00  0.00    +0.000 N 
ATOM     25  H   UNL     1      -1.348  14.760  23.615  0.00  0.00    +0.000 HD
ATOM     26  H   UNL     1      -2.450  15.916  23.020  0.00  0.00    +0.000 HD
ENDBRANCH   8  24
BRANCH   9  27
ATOM     27  C   UNL     1       0.185  14.586  20.702  0.00  0.00    +0.000 C 
ATOM     28  N   UNL     1       1.326  15.118  20.618  0.00  0.00    +0.000 NA
ENDBRANCH   9  27
TORSDOF 4
ENDMDL
MODEL 3
REMARK VINA RESULT:      -6.3      7.601     10.465
REMARK  Name = 
REMARK  5 active torsions:
REMARK  status: ('A' for Active; 'I' for Inactive)
REMARK    1  A    between atoms: C_1  and  N_2
REMARK    2  A    between atoms: C_4  and  C_5
REMARK    3  A    between atoms: C_14  and  N_15
REMARK    4  A    between atoms: C_16  and  C_17
REMARK    5  A    between atoms: C_19  and  C_20
REMARK                            x       y       z     vdW  Elec       q    Type
REMARK                         _______ _______ _______ _____ _____    ______ ____
ROOT
ATOM      1  C   UNL     1      -5.471  13.217  21.928  0.00  0.00    +0.000 C 
ATOM      2  N   UNL     1      -4.377  12.855  21.063  0.00  0.00    +0.000 N 
ATOM      3  N   UNL     1      -4.601  12.187  19.913  0.00  0.00    +0.000 NA
ATOM      4  C   UNL     1      -3.382  12.024  19.355  0.00  0.00    +0.000 A 
ATOM      5  C   UNL     1      -2.384  12.574  20.202  0.00  0.00    +0.000 A 
ATOM      6  C   UNL     1      -3.061  13.123  21.264  0.00  0.00    +0.000 A 
ATOM      7  O   UNL     1      -2.556  13.788  22.300  0.00  0.00    +0.000 OA
ATOM      8  C   UNL     1      -1.182  14.089  22.229  0.00  0.00    +0.000 C 
ATOM      9  C   UNL     1      -0.408  13.625  21.213  0.00  0.00    +0.000 C 
ATOM     10  C   UNL     1      -0.903  12.669  20.150  0.00  0.00    +0.000 C 
ENDROOT
BRANCH  10  11
ATOM     11  C   UNL     1      -0.364  11.263  20.368  0.00  0.00    +0.000 A 
ATOM     12  C   UNL     1      -0.577  10.554  21.558  0.00  0.00    +0.000 A 
ATOM     13  C   UNL     1      -0.005   9.295  21.715  0.00  0.00    +0.000 A 
ATOM     14  C   UNL     1       0.766   8.769  20.689  0.00  0.00    +0.000 A 
ATOM     15  C   UNL     1       0.938   9.528  19.543  0.00  0.00    +0.000 A 
ATOM     16 BR   UNL     1       1.990   8.828  18.130  0.00  0.00    +0.000 Br
ATOM     17  N   UNL     1       0.404  10.758  19.369  0.00  0.00    +0.000 NA
ENDBRANCH  10  11
BRANCH   4  18
ATOM     18  C   UNL     1      -3.209  11.327  18.076  0.00  0.00    +0.000 A 
ATOM     19  C   UNL     1      -2.262  10.305  17.917  0.00  0.00    +0.000 A 
ATOM     20  C   UNL     1      -2.167   9.587  16.723  0.00  0.00    +0.000 A 
ATOM     21  C   UNL     1      -2.998   9.909  15.656  0.00  0.00    +0.000 A 
ATOM     22  C   UNL     1      -3.914  10.951  15.778  0.00  0.00    +0.000 A 
ATOM     23  C   UNL     1      -4.019  11.655  16.982  0.00  0.00    +0.000 A 
ENDBRANCH   4  18
BRANCH   8  24
ATOM     24  N   UNL     1      -0.745  14.867  23.274  0.00  0.00    +0.000 N 
ATOM     25  H   UNL     1       0.267  14.899  23.356  0.00  0.00    +0.000 HD
ATOM     26  H   UNL     1      -1.228  14.759  24.162  0.00  0.00    +0.000 HD
ENDBRANCH   8  24
BRANCH   9  27
ATOM     27  C   UNL     1       1.041  14.071  21.103  0.00  0.00    +0.000 C 
ATOM     28  N   UNL     1       2.243  14.441  21.011  0.00  0.00    +0.000 NA
ENDBRANCH   9  27
TORSDOF 4
ENDMDL
MODEL 4
REMARK VINA RESULT:      -6.2      7.303     10.319
REMARK  Name = 
REMARK  5 active torsions:
REMARK  status: ('A' for Active; 'I' for Inactive)
REMARK    1  A    between atoms: C_1  and  N_2
REMARK    2  A    between atoms: C_4  and  C_5
REMARK    3  A    between atoms: C_14  and  N_15
REMARK    4  A    between atoms: C_16  and  C_17
REMARK    5  A    between atoms: C_19  and  C_20
REMARK                            x       y       z     vdW  Elec       q    Type
REMARK                         _______ _______ _______ _____ _____    ______ ____
ROOT
ATOM      1  C   UNL     1      -4.656  13.799  22.008  0.00  0.00    +0.000 C 
ATOM      2  N   UNL     1      -3.720  13.266  21.051  0.00  0.00    +0.000 N 
ATOM      3  N   UNL     1      -4.148  12.511  20.018  0.00  0.00    +0.000 NA
ATOM      4  C   UNL     1      -3.032  12.195  19.326  0.00  0.00    +0.000 A 
ATOM      5  C   UNL     1      -1.891  12.740  19.971  0.00  0.00    +0.000 A 
ATOM      6  C   UNL     1      -2.374  13.443  21.047  0.00  0.00    +0.000 A 
ATOM      7  O   UNL     1      -1.686  14.161  21.931  0.00  0.00    +0.000 OA
ATOM      8  C   UNL     1      -0.318  14.340  21.648  0.00  0.00    +0.000 C 
ATOM      9  C   UNL     1       0.274  13.717  20.594  0.00  0.00    +0.000 C 
ATOM     10  C   UNL     1      -0.428  12.707  19.715  0.00  0.00    +0.000 C 
ENDROOT
BRANCH  10  11
ATOM     11  C   UNL     1       0.038  11.289  20.008  0.00  0.00    +0.000 A 
ATOM     12  C   UNL     1      -0.199  10.661  21.239  0.00  0.00    +0.000 A 
ATOM     13  C   UNL     1       0.306   9.385  21.464  0.00  0.00    +0.000 A 
ATOM     14  C   UNL     1       1.038   8.760  20.464  0.00  0.00    +0.000 A 
ATOM     15  C   UNL     1       1.237   9.442  19.275  0.00  0.00    +0.000 A 
ATOM     16 BR   UNL     1       2.236   8.608  17.896  0.00  0.00    +0.000 Br
ATOM     17  N   UNL     1       0.767  10.687  19.034  0.00  0.00    +0.000 NA
ENDBRANCH  10  11
BRANCH   4  18
ATOM     18  C   UNL     1      -3.087  11.366  18.117  0.00  0.00    +0.000 A 
ATOM     19  C   UNL     1      -3.988  11.640  17.077  0.00  0.00    +0.000 A 
ATOM     20  C   UNL     1      -3.971  10.899  15.894  0.00  0.00    +0.000 A 
ATOM     21  C   UNL     1      -3.073   9.848  15.749  0.00  0.00    +0.000 A 
ATOM     22  C   UNL     1      -2.201   9.531  16.788  0.00  0.00    +0.000 A 
ATOM     23  C   UNL     1      -2.207  10.286  17.965  0.00  0.00    +0.000 A 
ENDBRANCH   4  18
BRANCH   8  24
ATOM     24  N   UNL     1       0.314  15.176  22.537  0.00  0.00    +0.000 N 
ATOM     25  H   UNL     1      -0.121  16.092  22.607  0.00  0.00    +0.000 HD
ATOM     26  H   UNL     1       1.330  15.203  22.503  0.00  0.00    +0.000 HD
ENDBRANCH   8  24
BRANCH   9  27
ATOM     27  C   UNL     1       1.720  14.029  20.248  0.00  0.00    +0.000 C 
ATOM     28  N   UNL     1       2.920  14.289  19.960  0.00  0.00    +0.000 NA
ENDBRANCH   9  27
TORSDOF 4
ENDMDL
MODEL 5
REMARK VINA RESULT:      -6.2      9.174     11.550
REMARK  Name = 
REMARK  5 active torsions:
REMARK  status: ('A' for Active; 'I' for Inactive)
REMARK    1  A    between atoms: C_1  and  N_2
REMARK    2  A    between atoms: C_4  and  C_5
REMARK    3  A    between atoms: C_14  and  N_15
REMARK    4  A    between atoms: C_16  and  C_17
REMARK    5  A    between atoms: C_19  and  C_20
REMARK                            x       y       z     vdW  Elec       q    Type
REMARK                         _______ _______ _______ _____ _____    ______ ____
ROOT
ATOM      1  C   UNL     1      -7.565  11.881  21.263  0.00  0.00    +0.000 C 
ATOM      2  N   UNL     1      -6.288  12.035  20.612  0.00  0.00    +0.000 N 
ATOM      3  N   UNL     1      -5.995  11.331  19.500  0.00  0.00    +0.000 NA
ATOM      4  C   UNL     1      -4.749  11.720  19.154  0.00  0.00    +0.000 A 
ATOM      5  C   UNL     1      -4.254  12.657  20.099  0.00  0.00    +0.000 A 
ATOM      6  C   UNL     1      -5.278  12.857  20.993  0.00  0.00    +0.000 A 
ATOM      7  O   UNL     1      -5.302  13.681  22.037  0.00  0.00    +0.000 OA
ATOM      8  C   UNL     1      -4.206  14.558  22.156  0.00  0.00    +0.000 C 
ATOM      9  C   UNL     1      -3.141  14.477  21.315  0.00  0.00    +0.000 C 
ATOM     10  C   UNL     1      -2.977  13.396  20.271  0.00  0.00    +0.000 C 
ENDROOT
BRANCH  10  11
ATOM     11  C   UNL     1      -1.929  12.373  20.684  0.00  0.00    +0.000 A 
ATOM     12  C   UNL     1      -1.846  11.870  21.989  0.00  0.00    +0.000 A 
ATOM     13  C   UNL     1      -0.827  10.982  22.316  0.00  0.00    +0.000 A 
ATOM     14  C   UNL     1       0.089  10.613  21.341  0.00  0.00    +0.000 A 
ATOM     15  C   UNL     1      -0.052  11.153  20.073  0.00  0.00    +0.000 A 
ATOM     16 BR   UNL     1       1.189  10.663  18.726  0.00  0.00    +0.000 Br
ATOM     17  N   UNL     1      -1.026  12.027  19.732  0.00  0.00    +0.000 NA
ENDBRANCH  10  11
BRANCH   4  18
ATOM     18  C   UNL     1      -4.068  11.164  17.979  0.00  0.00    +0.000 A 
ATOM     19  C   UNL     1      -4.359  11.610  16.681  0.00  0.00    +0.000 A 
ATOM     20  C   UNL     1      -3.643  11.139  15.579  0.00  0.00    +0.000 A 
ATOM     21  C   UNL     1      -2.647  10.186  15.757  0.00  0.00    +0.000 A 
ATOM     22  C   UNL     1      -2.374   9.697  17.033  0.00  0.00    +0.000 A 
ATOM     23  C   UNL     1      -3.080  10.184  18.137  0.00  0.00    +0.000 A 
ENDBRANCH   4  18
BRANCH   8  24
ATOM     24  N   UNL     1      -4.340  15.454  23.190  0.00  0.00    +0.000 N 
ATOM     25  H   UNL     1      -4.968  15.133  23.922  0.00  0.00    +0.000 HD
ATOM     26  H   UNL     1      -4.464  16.431  22.938  0.00  0.00    +0.000 HD
ENDBRANCH   8  24
BRANCH   9  27
ATOM     27  C   UNL     1      -2.035  15.516  21.396  0.00  0.00    +0.000 C 
ATOM     28  N   UNL     1      -1.117  16.378  21.464  0.00  0.00    +0.000 NA
ENDBRANCH   9  27
TORSDOF 4
ENDMDL
MODEL 6
REMARK VINA RESULT:      -6.0      8.456     11.732
REMARK  Name = 
REMARK  5 active torsions:
REMARK  status: ('A' for Active; 'I' for Inactive)
REMARK    1  A    between atoms: C_1  and  N_2
REMARK    2  A    between atoms: C_4  and  C_5
REMARK    3  A    between atoms: C_14  and  N_15
REMARK    4  A    between atoms: C_16  and  C_17
REMARK    5  A    between atoms: C_19  and  C_20
REMARK                            x       y       z     vdW  Elec       q    Type
REMARK                         _______ _______ _______ _____ _____    ______ ____
ROOT
ATOM      1  C   UNL     1       9.333  10.098  19.133  0.00  0.00    +0.000 C 
ATOM      2  N   UNL     1       9.413  11.444  19.643  0.00  0.00    +0.000 N 
ATOM      3  N   UNL     1       9.086  11.714  20.923  0.00  0.00    +0.000 NA
ATOM      4  C   UNL     1       9.282  13.043  21.065  0.00  0.00    +0.000 A 
ATOM      5  C   UNL     1       9.706  13.605  19.832  0.00  0.00    +0.000 A 
ATOM      6  C   UNL     1       9.809  12.548  18.960  0.00  0.00    +0.000 A 
ATOM      7  O   UNL     1      10.211  12.572  17.692  0.00  0.00    +0.000 OA
ATOM      8  C   UNL     1      10.727  13.798  17.231  0.00  0.00    +0.000 C 
ATOM      9  C   UNL     1      10.704  14.912  18.010  0.00  0.00    +0.000 C 
ATOM     10  C   UNL     1      10.038  14.975  19.365  0.00  0.00    +0.000 C 
ENDROOT
BRANCH  10  11
ATOM     11  C   UNL     1       8.730  15.750  19.311  0.00  0.00    +0.000 A 
ATOM     12  C   UNL     1       8.579  17.009  19.908  0.00  0.00    +0.000 A 
ATOM     13  C   UNL     1       7.339  17.638  19.874  0.00  0.00    +0.000 A 
ATOM     14  C   UNL     1       6.275  17.003  19.249  0.00  0.00    +0.000 A 
ATOM     15  C   UNL     1       6.496  15.758  18.683  0.00  0.00    +0.000 A 
ATOM     16 BR   UNL     1       5.055  14.873  17.825  0.00  0.00    +0.000 Br
ATOM     17  N   UNL     1       7.688  15.120  18.712  0.00  0.00    +0.000 NA
ENDBRANCH  10  11
BRANCH   4  18
ATOM     18  C   UNL     1       9.025  13.726  22.338  0.00  0.00    +0.000 A 
ATOM     19  C   UNL     1       9.710  14.896  22.696  0.00  0.00    +0.000 A 
ATOM     20  C   UNL     1       9.394  15.587  23.868  0.00  0.00    +0.000 A 
ATOM     21  C   UNL     1       8.411  15.094  24.718  0.00  0.00    +0.000 A 
ATOM     22  C   UNL     1       7.752  13.908  24.403  0.00  0.00    +0.000 A 
ATOM     23  C   UNL     1       8.056  13.228  23.219  0.00  0.00    +0.000 A 
ENDBRANCH   4  18
BRANCH   8  24
ATOM     24  N   UNL     1      11.221  13.730  15.951  0.00  0.00    +0.000 N 
ATOM     25  H   UNL     1      11.040  12.840  15.496  0.00  0.00    +0.000 HD
ATOM     26  H   UNL     1      12.162  14.085  15.801  0.00  0.00    +0.000 HD
ENDBRANCH   8  24
BRANCH   9  27
ATOM     27  C   UNL     1      11.380  16.185  17.526  0.00  0.00    +0.000 C 
ATOM     28  N   UNL     1      11.941  17.241  17.125  0.00  0.00    +0.000 NA
ENDBRANCH   9  27
TORSDOF 4
ENDMDL
MODEL 7
REMARK VINA RESULT:      -6.0      6.468      9.689
REMARK  Name = 
REMARK  5 active torsions:
REMARK  status: ('A' for Active; 'I' for Inactive)
REMARK    1  A    between atoms: C_1  and  N_2
REMARK    2  A    between atoms: C_4  and  C_5
REMARK    3  A    between atoms: C_14  and  N_15
REMARK    4  A    between atoms: C_16  and  C_17
REMARK    5  A    between atoms: C_19  and  C_20
REMARK                            x       y       z     vdW  Elec       q    Type
REMARK                         _______ _______ _______ _____ _____    ______ ____
ROOT
ATOM      1  C   UNL     1      -2.477  13.347  22.797  0.00  0.00    +0.000 C 
ATOM      2  N   UNL     1      -1.962  12.936  21.515  0.00  0.00    +0.000 N 
ATOM      3  N   UNL     1      -2.755  12.302  20.628  0.00  0.00    +0.000 NA
ATOM      4  C   UNL     1      -1.971  12.077  19.551  0.00  0.00    +0.000 A 
ATOM      5  C   UNL     1      -0.657  12.553  19.800  0.00  0.00    +0.000 A 
ATOM      6  C   UNL     1      -0.701  13.124  21.049  0.00  0.00    +0.000 A 
ATOM      7  O   UNL     1       0.281  13.741  21.701  0.00  0.00    +0.000 OA
ATOM      8  C   UNL     1       1.463  13.963  20.968  0.00  0.00    +0.000 C 
ATOM      9  C   UNL     1       1.619  13.470  19.711  0.00  0.00    +0.000 C 
ATOM     10  C   UNL     1       0.616  12.563  19.035  0.00  0.00    +0.000 C 
ENDROOT
BRANCH  10  11
ATOM     11  C   UNL     1       1.109  11.124  18.984  0.00  0.00    +0.000 A 
ATOM     12  C   UNL     1       1.729  10.585  17.849  0.00  0.00    +0.000 A 
ATOM     13  C   UNL     1       2.102   9.245  17.846  0.00  0.00    +0.000 A 
ATOM     14  C   UNL     1       1.849   8.468  18.968  0.00  0.00    +0.000 A 
ATOM     15  C   UNL     1       1.229   9.068  20.052  0.00  0.00    +0.000 A 
ATOM     16 BR   UNL     1       0.874   8.025  21.595  0.00  0.00    +0.000 Br
ATOM     17  N   UNL     1       0.846  10.364  20.077  0.00  0.00    +0.000 NA
ENDBRANCH  10  11
BRANCH   4  18
ATOM     18  C   UNL     1      -2.482  11.391  18.359  0.00  0.00    +0.000 A 
ATOM     19  C   UNL     1      -3.656  11.810  17.716  0.00  0.00    +0.000 A 
ATOM     20  C   UNL     1      -4.084  11.207  16.532  0.00  0.00    +0.000 A 
ATOM     21  C   UNL     1      -3.359  10.151  15.992  0.00  0.00    +0.000 A 
ATOM     22  C   UNL     1      -2.215   9.691  16.639  0.00  0.00    +0.000 A 
ATOM     23  C   UNL     1      -1.778  10.309  17.816  0.00  0.00    +0.000 A 
ENDBRANCH   4  18
BRANCH   8  24
ATOM     24  N   UNL     1       2.398  14.697  21.659  0.00  0.00    +0.000 N 
ATOM     25  H   UNL     1       2.740  14.229  22.493  0.00  0.00    +0.000 HD
ATOM     26  H   UNL     1       2.200  15.686  21.791  0.00  0.00    +0.000 HD
ENDBRANCH   8  24
BRANCH   9  27
ATOM     27  C   UNL     1       2.856  13.833  18.906  0.00  0.00    +0.000 C 
ATOM     28  N   UNL     1       3.882  14.134  18.238  0.00  0.00    +0.000 NA
ENDBRANCH   9  27
TORSDOF 4
ENDMDL
MODEL 8
REMARK VINA RESULT:      -6.0      9.725     13.712
REMARK  Name = 
REMARK  5 active torsions:
REMARK  status: ('A' for Active; 'I' for Inactive)
REMARK    1  A    between atoms: C_1  and  N_2
REMARK    2  A    between atoms: C_4  and  C_5
REMARK    3  A    between atoms: C_14  and  N_15
REMARK    4  A    between atoms: C_16  and  C_17
REMARK    5  A    between atoms: C_19  and  C_20
REMARK                            x       y       z     vdW  Elec       q    Type
REMARK                         _______ _______ _______ _____ _____    ______ ____
ROOT
ATOM      1  C   UNL     1      -0.618  10.514  19.222  0.00  0.00    +0.000 C 
ATOM      2  N   UNL     1      -1.728  11.336  19.635  0.00  0.00    +0.000 N 
ATOM      3  N   UNL     1      -1.703  11.980  20.820  0.00  0.00    +0.000 NA
ATOM      4  C   UNL     1      -2.872  12.653  20.881  0.00  0.00    +0.000 A 
ATOM      5  C   UNL     1      -3.647  12.386  19.722  0.00  0.00    +0.000 A 
ATOM      6  C   UNL     1      -2.869  11.569  18.937  0.00  0.00    +0.000 A 
ATOM      7  O   UNL     1      -3.151  11.084  17.731  0.00  0.00    +0.000 OA
ATOM      8  C   UNL     1      -4.322  11.580  17.125  0.00  0.00    +0.000 C 
ATOM      9  C   UNL     1      -5.162  12.416  17.790  0.00  0.00    +0.000 C 
ATOM     10  C   UNL     1      -4.992  12.795  19.244  0.00  0.00    +0.000 C 
ENDROOT
BRANCH  10  11
ATOM     11  C   UNL     1      -6.007  12.088  20.129  0.00  0.00    +0.000 A 
ATOM     12  C   UNL     1      -6.659  10.913  19.731  0.00  0.00    +0.000 A 
ATOM     13  C   UNL     1      -7.621  10.349  20.563  0.00  0.00    +0.000 A 
ATOM     14  C   UNL     1      -7.917  10.966  21.771  0.00  0.00    +0.000 A 
ATOM     15  C   UNL     1      -7.236  12.127  22.097  0.00  0.00    +0.000 A 
ATOM     16 BR   UNL     1      -7.626  12.986  23.742  0.00  0.00    +0.000 Br
ATOM     17  N   UNL     1      -6.305  12.702  21.302  0.00  0.00    +0.000 NA
ENDBRANCH  10  11
BRANCH   4  18
ATOM     18  C   UNL     1      -3.222  13.482  22.040  0.00  0.00    +0.000 A 
ATOM     19  C   UNL     1      -3.478  14.855  21.913  0.00  0.00    +0.000 A 
ATOM     20  C   UNL     1      -3.897  15.615  23.006  0.00  0.00    +0.000 A 
ATOM     21  C   UNL     1      -4.032  15.017  24.254  0.00  0.00    +0.000 A 
ATOM     22  C   UNL     1      -3.739  13.665  24.410  0.00  0.00    +0.000 A 
ATOM     23  C   UNL     1      -3.337  12.901  23.310  0.00  0.00    +0.000 A 
ENDBRANCH   4  18
BRANCH   8  24
ATOM     24  N   UNL     1      -4.501  11.123  15.842  0.00  0.00    +0.000 N 
ATOM     25  H   UNL     1      -4.318  11.828  15.134  0.00  0.00    +0.000 HD
ATOM     26  H   UNL     1      -5.333  10.565  15.664  0.00  0.00    +0.000 HD
ENDBRANCH   8  24
BRANCH   9  27
ATOM     27  C   UNL     1      -6.349  13.027  17.064  0.00  0.00    +0.000 C 
ATOM     28  N   UNL     1      -7.334  13.535  16.461  0.00  0.00    +0.000 NA
ENDBRANCH   9  27
TORSDOF 4
ENDMDL
MODEL 9
REMARK VINA RESULT:      -6.0      8.877     10.749
REMARK  Name = 
REMARK  5 active torsions:
REMARK  status: ('A' for Active; 'I' for Inactive)
REMARK    1  A    between atoms: C_1  and  N_2
REMARK    2  A    between atoms: C_4  and  C_5
REMARK    3  A    between atoms: C_14  and  N_15
REMARK    4  A    between atoms: C_16  and  C_17
REMARK    5  A    between atoms: C_19  and  C_20
REMARK                            x       y       z     vdW  Elec       q    Type
REMARK                         _______ _______ _______ _____ _____    ______ ____
ROOT
ATOM      1  C   UNL     1       6.992  11.613  24.147  0.00  0.00    +0.000 C 
ATOM      2  N   UNL     1       7.572  12.236  22.984  0.00  0.00    +0.000 N 
ATOM      3  N   UNL     1       8.475  11.577  22.230  0.00  0.00    +0.000 NA
ATOM      4  C   UNL     1       8.795  12.432  21.235  0.00  0.00    +0.000 A 
ATOM      5  C   UNL     1       8.097  13.657  21.405  0.00  0.00    +0.000 A 
ATOM      6  C   UNL     1       7.303  13.480  22.512  0.00  0.00    +0.000 A 
ATOM      7  O   UNL     1       6.436  14.339  23.042  0.00  0.00    +0.000 OA
ATOM      8  C   UNL     1       6.198  15.512  22.300  0.00  0.00    +0.000 C 
ATOM      9  C   UNL     1       6.903  15.790  21.171  0.00  0.00    +0.000 C 
ATOM     10  C   UNL     1       8.059  14.950  20.676  0.00  0.00    +0.000 C 
ENDROOT
BRANCH  10  11
ATOM     11  C   UNL     1       9.395  15.635  20.925  0.00  0.00    +0.000 A 
ATOM     12  C   UNL     1      10.326  15.855  19.901  0.00  0.00    +0.000 A 
ATOM     13  C   UNL     1      11.555  16.433  20.207  0.00  0.00    +0.000 A 
ATOM     14  C   UNL     1      11.832  16.778  21.523  0.00  0.00    +0.000 A 
ATOM     15  C   UNL     1      10.865  16.527  22.483  0.00  0.00    +0.000 A 
ATOM     16 BR   UNL     1      11.224  16.989  24.286  0.00  0.00    +0.000 Br
ATOM     17  N   UNL     1       9.669  15.957  22.214  0.00  0.00    +0.000 NA
ENDBRANCH  10  11
BRANCH   4  18
ATOM     18  C   UNL     1       9.768  12.074  20.197  0.00  0.00    +0.000 A 
ATOM     19  C   UNL     1       9.364  11.706  18.905  0.00  0.00    +0.000 A 
ATOM     20  C   UNL     1      10.300  11.453  17.901  0.00  0.00    +0.000 A 
ATOM     21  C   UNL     1      11.658  11.532  18.186  0.00  0.00    +0.000 A 
ATOM     22  C   UNL     1      12.080  11.852  19.474  0.00  0.00    +0.000 A 
ATOM     23  C   UNL     1      11.140  12.123  20.474  0.00  0.00    +0.000 A 
ENDBRANCH   4  18
BRANCH   8  24
ATOM     24  N   UNL     1       5.217  16.306  22.844  0.00  0.00    +0.000 N 
ATOM     25  H   UNL     1       5.346  17.295  22.649  0.00  0.00    +0.000 HD
ATOM     26  H   UNL     1       4.943  16.106  23.802  0.00  0.00    +0.000 HD
ENDBRANCH   8  24
BRANCH   9  27
ATOM     27  C   UNL     1       6.535  17.001  20.331  0.00  0.00    +0.000 C 
ATOM     28  N   UNL     1       6.230  18.007  19.634  0.00  0.00    +0.000 NA
ENDBRANCH   9  27
TORSDOF 4
ENDMDL
