MODEL 1
REMARK VINA RESULT:      -8.6      0.000      0.000
REMARK  Name = 
REMARK  6 active torsions:
REMARK  status: ('A' for Active; 'I' for Inactive)
REMARK    1  A    between atoms: C_2  and  O_3
REMARK    2  A    between atoms: C_2  and  C_4
REMARK    3  A    between atoms: C_8  and  C_9
REMARK    4  A    between atoms: C_9  and  S_10
REMARK    5  A    between atoms: S_10  and  C_11
REMARK    6  A    between atoms: C_13  and  C_14
REMARK                            x       y       z     vdW  Elec       q    Type
REMARK                         _______ _______ _______ _____ _____    ______ ____
ROOT
ATOM      1  C   UNL     1       4.939   6.035  17.431  0.00  0.00    +0.000 A 
ATOM      2  N   UNL     1       5.113   5.782  16.179  0.00  0.00    +0.000 NA
ATOM      3  C   UNL     1       6.318   5.216  15.835  0.00  0.00    +0.000 A 
ATOM      4  C   UNL     1       7.294   4.918  16.705  0.00  0.00    +0.000 A 
ATOM      5  C   UNL     1       7.056   5.214  18.123  0.00  0.00    +0.000 A 
ATOM      6  O   UNL     1       7.882   4.936  18.982  0.00  0.00    +0.000 OA
ATOM      7  N   UNL     1       5.856   5.787  18.402  0.00  0.00    +0.000 N 
ATOM      8  H   UNL     1       5.638   5.997  19.362  0.00  0.00    +0.000 HD
ENDROOT
BRANCH   3   9
ATOM      9  C   UNL     1       6.512   4.808  14.433  0.00  0.00    +0.000 A 
ATOM     10  C   UNL     1       5.665   3.835  13.887  0.00  0.00    +0.000 A 
ATOM     11  C   UNL     1       5.857   3.381  12.582  0.00  0.00    +0.000 A 
ATOM     12  C   UNL     1       6.891   3.905  11.810  0.00  0.00    +0.000 A 
ATOM     13  C   UNL     1       7.732   4.884  12.339  0.00  0.00    +0.000 A 
ATOM     14  C   UNL     1       7.547   5.337  13.649  0.00  0.00    +0.000 A 
ENDBRANCH   3   9
BRANCH   1  15
ATOM     15  S   UNL     1       3.484   6.736  18.068  0.00  0.00    +0.000 S 
BRANCH  15  16
ATOM     16  C   UNL     1       2.366   5.318  17.895  0.00  0.00    +0.000 C 
BRANCH  16  21
ATOM     17  C   UNL     1       3.528   2.564  20.280  0.00  0.00    +0.000 A 
ATOM     18  C   UNL     1       2.632   2.715  21.345  0.00  0.00    +0.000 A 
ATOM     19  C   UNL     1       1.630   3.684  21.271  0.00  0.00    +0.000 A 
ATOM     20  C   UNL     1       1.535   4.516  20.152  0.00  0.00    +0.000 A 
ATOM     21  C   UNL     1       2.449   4.398  19.092  0.00  0.00    +0.000 A 
ATOM     22  C   UNL     1       3.441   3.408  19.163  0.00  0.00    +0.000 A 
BRANCH  17  24
ATOM     23  O   UNL     1       5.412   1.476  21.238  0.00  0.00    +0.000 OA
ATOM     24  C   UNL     1       4.622   1.562  20.315  0.00  0.00    +0.000 C 
BRANCH  24  25
ATOM     25  O   UNL     1       4.681   0.781  19.215  0.00  0.00    +0.000 OA
ATOM     26  H   UNL     1       4.901  -0.152  19.387  0.00  0.00    +0.000 HD
ENDBRANCH  24  25
ENDBRANCH  17  24
ENDBRANCH  16  21
ENDBRANCH  15  16
ENDBRANCH   1  15
TORSDOF 6
ENDMDL
MODEL 2
REMARK VINA RESULT:      -8.5      3.177      7.457
REMARK  Name = 
REMARK  6 active torsions:
REMARK  status: ('A' for Active; 'I' for Inactive)
REMARK    1  A    between atoms: C_2  and  O_3
REMARK    2  A    between atoms: C_2  and  C_4
REMARK    3  A    between atoms: C_8  and  C_9
REMARK    4  A    between atoms: C_9  and  S_10
REMARK    5  A    between atoms: S_10  and  C_11
REMARK    6  A    between atoms: C_13  and  C_14
REMARK                            x       y       z     vdW  Elec       q    Type
REMARK                         _______ _______ _______ _____ _____    ______ ____
ROOT
ATOM      1  C   UNL     1       4.796   6.408  17.483  0.00  0.00    +0.000 A 
ATOM      2  N   UNL     1       4.269   5.493  18.223  0.00  0.00    +0.000 NA
ATOM      3  C   UNL     1       3.023   5.766  18.734  0.00  0.00    +0.000 A 
ATOM      4  C   UNL     1       2.341   6.899  18.510  0.00  0.00    +0.000 A 
ATOM      5  C   UNL     1       2.969   7.914  17.655  0.00  0.00    +0.000 A 
ATOM      6  O   UNL     1       2.394   8.957  17.372  0.00  0.00    +0.000 OA
ATOM      7  N   UNL     1       4.206   7.597  17.192  0.00  0.00    +0.000 N 
ATOM      8  H   UNL     1       4.675   8.254  16.590  0.00  0.00    +0.000 HD
ENDROOT
BRANCH   3   9
ATOM      9  C   UNL     1       2.340   4.704  19.492  0.00  0.00    +0.000 A 
ATOM     10  C   UNL     1       2.542   4.622  20.876  0.00  0.00    +0.000 A 
ATOM     11  C   UNL     1       1.960   3.594  21.617  0.00  0.00    +0.000 A 
ATOM     12  C   UNL     1       1.163   2.645  20.981  0.00  0.00    +0.000 A 
ATOM     13  C   UNL     1       0.944   2.725  19.605  0.00  0.00    +0.000 A 
ATOM     14  C   UNL     1       1.531   3.750  18.858  0.00  0.00    +0.000 A 
ENDBRANCH   3   9
BRANCH   1  15
ATOM     15  S   UNL     1       6.354   6.249  16.734  0.00  0.00    +0.000 S 
BRANCH  15  16
ATOM     16  C   UNL     1       6.228   4.542  16.135  0.00  0.00    +0.000 C 
BRANCH  16  21
ATOM     17  C   UNL     1       6.111   3.494  12.460  0.00  0.00    +0.000 A 
ATOM     18  C   UNL     1       7.105   4.306  11.903  0.00  0.00    +0.000 A 
ATOM     19  C   UNL     1       7.838   5.163  12.725  0.00  0.00    +0.000 A 
ATOM     20  C   UNL     1       7.563   5.230  14.094  0.00  0.00    +0.000 A 
ATOM     21  C   UNL     1       6.545   4.447  14.661  0.00  0.00    +0.000 A 
ATOM     22  C   UNL     1       5.827   3.571  13.832  0.00  0.00    +0.000 A 
BRANCH  17  24
ATOM     23  O   UNL     1       4.214   2.895  11.156  0.00  0.00    +0.000 OA
ATOM     24  C   UNL     1       5.292   2.578  11.627  0.00  0.00    +0.000 C 
BRANCH  24  25
ATOM     25  O   UNL     1       5.835   1.351  11.473  0.00  0.00    +0.000 OA
ATOM     26  H   UNL     1       6.267   1.200  10.613  0.00  0.00    +0.000 HD
ENDBRANCH  24  25
ENDBRANCH  17  24
ENDBRANCH  16  21
ENDBRANCH  15  16
ENDBRANCH   1  15
TORSDOF 6
ENDMDL
MODEL 3
REMARK VINA RESULT:      -8.3      5.032      8.275
REMARK  Name = 
REMARK  6 active torsions:
REMARK  status: ('A' for Active; 'I' for Inactive)
REMARK    1  A    between atoms: C_2  and  O_3
REMARK    2  A    between atoms: C_2  and  C_4
REMARK    3  A    between atoms: C_8  and  C_9
REMARK    4  A    between atoms: C_9  and  S_10
REMARK    5  A    between atoms: S_10  and  C_11
REMARK    6  A    between atoms: C_13  and  C_14
REMARK                            x       y       z     vdW  Elec       q    Type
REMARK                         _______ _______ _______ _____ _____    ______ ____
ROOT
ATOM      1  C   UNL     1       7.121   6.552  17.519  0.00  0.00    +0.000 A 
ATOM      2  N   UNL     1       5.944   6.163  17.871  0.00  0.00    +0.000 NA
ATOM      3  C   UNL     1       5.236   5.444  16.937  0.00  0.00    +0.000 A 
ATOM      4  C   UNL     1       5.691   5.131  15.715  0.00  0.00    +0.000 A 
ATOM      5  C   UNL     1       7.039   5.585  15.353  0.00  0.00    +0.000 A 
ATOM      6  O   UNL     1       7.539   5.306  14.271  0.00  0.00    +0.000 OA
ATOM      7  N   UNL     1       7.684   6.304  16.308  0.00  0.00    +0.000 N 
ATOM      8  H   UNL     1       8.618   6.627  16.114  0.00  0.00    +0.000 HD
ENDROOT
BRANCH   3   9
ATOM      9  C   UNL     1       3.934   4.885  17.339  0.00  0.00    +0.000 A 
ATOM     10  C   UNL     1       3.070   5.671  18.113  0.00  0.00    +0.000 A 
ATOM     11  C   UNL     1       1.854   5.154  18.562  0.00  0.00    +0.000 A 
ATOM     12  C   UNL     1       1.490   3.851  18.231  0.00  0.00    +0.000 A 
ATOM     13  C   UNL     1       2.336   3.065  17.450  0.00  0.00    +0.000 A 
ATOM     14  C   UNL     1       3.558   3.577  17.003  0.00  0.00    +0.000 A 
ENDBRANCH   3   9
BRANCH   1  15
ATOM     15  S   UNL     1       8.176   7.459  18.558  0.00  0.00    +0.000 S 
BRANCH  15  16
ATOM     16  C   UNL     1       8.090   9.075  17.738  0.00  0.00    +0.000 C 
BRANCH  16  21
ATOM     17  C   UNL     1      10.509  11.975  18.334  0.00  0.00    +0.000 A 
ATOM     18  C   UNL     1      10.547  12.030  19.731  0.00  0.00    +0.000 A 
ATOM     19  C   UNL     1       9.819  11.102  20.478  0.00  0.00    +0.000 A 
ATOM     20  C   UNL     1       9.035  10.140  19.835  0.00  0.00    +0.000 A 
ATOM     21  C   UNL     1       8.961  10.096  18.434  0.00  0.00    +0.000 A 
ATOM     22  C   UNL     1       9.713  11.017  17.689  0.00  0.00    +0.000 A 
BRANCH  17  24
ATOM     23  O   UNL     1      10.961  14.130  17.434  0.00  0.00    +0.000 OA
ATOM     24  C   UNL     1      11.252  12.948  17.493  0.00  0.00    +0.000 C 
BRANCH  24  25
ATOM     25  O   UNL     1      12.252  12.395  16.774  0.00  0.00    +0.000 OA
ATOM     26  H   UNL     1      13.136  12.471  17.177  0.00  0.00    +0.000 HD
ENDBRANCH  24  25
ENDBRANCH  17  24
ENDBRANCH  16  21
ENDBRANCH  15  16
ENDBRANCH   1  15
TORSDOF 6
ENDMDL
MODEL 4
REMARK VINA RESULT:      -8.2      1.373      2.069
REMARK  Name = 
REMARK  6 active torsions:
REMARK  status: ('A' for Active; 'I' for Inactive)
REMARK    1  A    between atoms: C_2  and  O_3
REMARK    2  A    between atoms: C_2  and  C_4
REMARK    3  A    between atoms: C_8  and  C_9
REMARK    4  A    between atoms: C_9  and  S_10
REMARK    5  A    between atoms: S_10  and  C_11
REMARK    6  A    between atoms: C_13  and  C_14
REMARK                            x       y       z     vdW  Elec       q    Type
REMARK                         _______ _______ _______ _____ _____    ______ ____
ROOT
ATOM      1  C   UNL     1       4.966   6.302  17.016  0.00  0.00    +0.000 A 
ATOM      2  N   UNL     1       5.183   5.951  15.795  0.00  0.00    +0.000 NA
ATOM      3  C   UNL     1       6.296   5.175  15.574  0.00  0.00    +0.000 A 
ATOM      4  C   UNL     1       7.143   4.770  16.531  0.00  0.00    +0.000 A 
ATOM      5  C   UNL     1       6.858   5.183  17.911  0.00  0.00    +0.000 A 
ATOM      6  O   UNL     1       7.562   4.822  18.846  0.00  0.00    +0.000 OA
ATOM      7  N   UNL     1       5.755   5.962  18.068  0.00  0.00    +0.000 N 
ATOM      8  H   UNL     1       5.508   6.260  18.997  0.00  0.00    +0.000 HD
ENDROOT
BRANCH   3   9
ATOM      9  C   UNL     1       6.518   4.660  14.212  0.00  0.00    +0.000 A 
ATOM     10  C   UNL     1       7.565   5.194  13.449  0.00  0.00    +0.000 A 
ATOM     11  C   UNL     1       7.769   4.773  12.134  0.00  0.00    +0.000 A 
ATOM     12  C   UNL     1       6.932   3.809  11.576  0.00  0.00    +0.000 A 
ATOM     13  C   UNL     1       5.895   3.262  12.331  0.00  0.00    +0.000 A 
ATOM     14  C   UNL     1       5.684   3.685  13.647  0.00  0.00    +0.000 A 
ENDBRANCH   3   9
BRANCH   1  15
ATOM     15  S   UNL     1       3.609   7.270  17.503  0.00  0.00    +0.000 S 
BRANCH  15  16
ATOM     16  C   UNL     1       3.400   6.663  19.199  0.00  0.00    +0.000 C 
BRANCH  16  21
ATOM     17  C   UNL     1       1.923   3.353  20.419  0.00  0.00    +0.000 A 
ATOM     18  C   UNL     1       1.180   2.948  19.305  0.00  0.00    +0.000 A 
ATOM     19  C   UNL     1       1.189   3.728  18.147  0.00  0.00    +0.000 A 
ATOM     20  C   UNL     1       1.916   4.921  18.108  0.00  0.00    +0.000 A 
ATOM     21  C   UNL     1       2.638   5.357  19.231  0.00  0.00    +0.000 A 
ATOM     22  C   UNL     1       2.642   4.557  20.384  0.00  0.00    +0.000 A 
BRANCH  17  24
ATOM     23  O   UNL     1       0.928   2.346  22.329  0.00  0.00    +0.000 OA
ATOM     24  C   UNL     1       1.934   2.569  21.679  0.00  0.00    +0.000 C 
BRANCH  24  25
ATOM     25  O   UNL     1       3.164   2.160  22.055  0.00  0.00    +0.000 OA
ATOM     26  H   UNL     1       3.587   2.710  22.740  0.00  0.00    +0.000 HD
ENDBRANCH  24  25
ENDBRANCH  17  24
ENDBRANCH  16  21
ENDBRANCH  15  16
ENDBRANCH   1  15
TORSDOF 6
ENDMDL
MODEL 5
REMARK VINA RESULT:      -8.2      3.551      4.642
REMARK  Name = 
REMARK  6 active torsions:
REMARK  status: ('A' for Active; 'I' for Inactive)
REMARK    1  A    between atoms: C_2  and  O_3
REMARK    2  A    between atoms: C_2  and  C_4
REMARK    3  A    between atoms: C_8  and  C_9
REMARK    4  A    between atoms: C_9  and  S_10
REMARK    5  A    between atoms: S_10  and  C_11
REMARK    6  A    between atoms: C_13  and  C_14
REMARK                            x       y       z     vdW  Elec       q    Type
REMARK                         _______ _______ _______ _____ _____    ______ ____
ROOT
ATOM      1  C   UNL     1       4.460   4.747  17.548  0.00  0.00    +0.000 A 
ATOM      2  N   UNL     1       4.736   4.656  16.292  0.00  0.00    +0.000 NA
ATOM      3  C   UNL     1       6.070   4.699  15.958  0.00  0.00    +0.000 A 
ATOM      4  C   UNL     1       7.071   4.823  16.842  0.00  0.00    +0.000 A 
ATOM      5  C   UNL     1       6.717   4.916  18.264  0.00  0.00    +0.000 A 
ATOM      6  O   UNL     1       7.575   4.991  19.133  0.00  0.00    +0.000 OA
ATOM      7  N   UNL     1       5.385   4.884  18.533  0.00  0.00    +0.000 N 
ATOM      8  H   UNL     1       5.090   4.930  19.495  0.00  0.00    +0.000 HD
ENDROOT
BRANCH   3   9
ATOM      9  C   UNL     1       6.434   4.487  14.548  0.00  0.00    +0.000 A 
ATOM     10  C   UNL     1       7.483   5.237  13.999  0.00  0.00    +0.000 A 
ATOM     11  C   UNL     1       7.817   5.106  12.651  0.00  0.00    +0.000 A 
ATOM     12  C   UNL     1       7.111   4.216  11.844  0.00  0.00    +0.000 A 
ATOM     13  C   UNL     1       6.074   3.455  12.383  0.00  0.00    +0.000 A 
ATOM     14  C   UNL     1       5.732   3.588  13.732  0.00  0.00    +0.000 A 
ENDBRANCH   3   9
BRANCH   1  15
ATOM     15  S   UNL     1       2.841   4.700  18.173  0.00  0.00    +0.000 S 
BRANCH  15  16
ATOM     16  C   UNL     1       3.044   5.780  19.617  0.00  0.00    +0.000 C 
BRANCH  16  21
ATOM     17  C   UNL     1       1.093   9.000  20.283  0.00  0.00    +0.000 A 
ATOM     18  C   UNL     1       1.149   9.628  19.034  0.00  0.00    +0.000 A 
ATOM     19  C   UNL     1       1.785   8.989  17.968  0.00  0.00    +0.000 A 
ATOM     20  C   UNL     1       2.386   7.741  18.153  0.00  0.00    +0.000 A 
ATOM     21  C   UNL     1       2.368   7.115  19.409  0.00  0.00    +0.000 A 
ATOM     22  C   UNL     1       1.708   7.753  20.471  0.00  0.00    +0.000 A 
BRANCH  17  24
ATOM     23  O   UNL     1       0.727  10.764  21.835  0.00  0.00    +0.000 OA
ATOM     24  C   UNL     1       0.443   9.642  21.453  0.00  0.00    +0.000 C 
BRANCH  24  25
ATOM     25  O   UNL     1      -0.461   8.855  22.074  0.00  0.00    +0.000 OA
ATOM     26  H   UNL     1      -0.998   9.305  22.752  0.00  0.00    +0.000 HD
ENDBRANCH  24  25
ENDBRANCH  17  24
ENDBRANCH  16  21
ENDBRANCH  15  16
ENDBRANCH   1  15
TORSDOF 6
ENDMDL
MODEL 6
REMARK VINA RESULT:      -8.2      0.572      1.305
REMARK  Name = 
REMARK  6 active torsions:
REMARK  status: ('A' for Active; 'I' for Inactive)
REMARK    1  A    between atoms: C_2  and  O_3
REMARK    2  A    between atoms: C_2  and  C_4
REMARK    3  A    between atoms: C_8  and  C_9
REMARK    4  A    between atoms: C_9  and  S_10
REMARK    5  A    between atoms: S_10  and  C_11
REMARK    6  A    between atoms: C_13  and  C_14
REMARK                            x       y       z     vdW  Elec       q    Type
REMARK                         _______ _______ _______ _____ _____    ______ ____
ROOT
ATOM      1  C   UNL     1       4.977   6.381  17.388  0.00  0.00    +0.000 A 
ATOM      2  N   UNL     1       5.156   6.032  16.160  0.00  0.00    +0.000 NA
ATOM      3  C   UNL     1       6.275   5.278  15.898  0.00  0.00    +0.000 A 
ATOM      4  C   UNL     1       7.165   4.892  16.824  0.00  0.00    +0.000 A 
ATOM      5  C   UNL     1       6.923   5.300  18.213  0.00  0.00    +0.000 A 
ATOM      6  O   UNL     1       7.668   4.954  19.121  0.00  0.00    +0.000 OA
ATOM      7  N   UNL     1       5.812   6.057  18.410  0.00  0.00    +0.000 N 
ATOM      8  H   UNL     1       5.594   6.352  19.347  0.00  0.00    +0.000 HD
ENDROOT
BRANCH   3   9
ATOM      9  C   UNL     1       6.457   4.766  14.529  0.00  0.00    +0.000 A 
ATOM     10  C   UNL     1       7.527   5.247  13.763  0.00  0.00    +0.000 A 
ATOM     11  C   UNL     1       7.696   4.829  12.443  0.00  0.00    +0.000 A 
ATOM     12  C   UNL     1       6.802   3.921  11.882  0.00  0.00    +0.000 A 
ATOM     13  C   UNL     1       5.740   3.425  12.640  0.00  0.00    +0.000 A 
ATOM     14  C   UNL     1       5.564   3.846  13.962  0.00  0.00    +0.000 A 
ENDBRANCH   3   9
BRANCH   1  15
ATOM     15  S   UNL     1       3.621   7.322  17.924  0.00  0.00    +0.000 S 
BRANCH  15  16
ATOM     16  C   UNL     1       2.319   6.063  17.815  0.00  0.00    +0.000 C 
BRANCH  16  21
ATOM     17  C   UNL     1       3.330   2.879  19.674  0.00  0.00    +0.000 A 
ATOM     18  C   UNL     1       2.772   3.101  20.938  0.00  0.00    +0.000 A 
ATOM     19  C   UNL     1       2.036   4.263  21.174  0.00  0.00    +0.000 A 
ATOM     20  C   UNL     1       1.879   5.214  20.162  0.00  0.00    +0.000 A 
ATOM     21  C   UNL     1       2.463   5.021  18.900  0.00  0.00    +0.000 A 
ATOM     22  C   UNL     1       3.183   3.840  18.663  0.00  0.00    +0.000 A 
BRANCH  17  24
ATOM     23  O   UNL     1       3.836   0.872  18.504  0.00  0.00    +0.000 OA
ATOM     24  C   UNL     1       4.134   1.668  19.377  0.00  0.00    +0.000 C 
BRANCH  24  25
ATOM     25  O   UNL     1       5.203   1.512  20.186  0.00  0.00    +0.000 OA
ATOM     26  H   UNL     1       5.702   0.685  20.051  0.00  0.00    +0.000 HD
ENDBRANCH  24  25
ENDBRANCH  17  24
ENDBRANCH  16  21
ENDBRANCH  15  16
ENDBRANCH   1  15
TORSDOF 6
ENDMDL
MODEL 7
REMARK VINA RESULT:      -8.1      0.909      1.446
REMARK  Name = 
REMARK  6 active torsions:
REMARK  status: ('A' for Active; 'I' for Inactive)
REMARK    1  A    between atoms: C_2  and  O_3
REMARK    2  A    between atoms: C_2  and  C_4
REMARK    3  A    between atoms: C_8  and  C_9
REMARK    4  A    between atoms: C_9  and  S_10
REMARK    5  A    between atoms: S_10  and  C_11
REMARK    6  A    between atoms: C_13  and  C_14
REMARK                            x       y       z     vdW  Elec       q    Type
REMARK                         _______ _______ _______ _____ _____    ______ ____
ROOT
ATOM      1  C   UNL     1       4.867   6.365  17.275  0.00  0.00    +0.000 A 
ATOM      2  N   UNL     1       5.087   6.002  16.057  0.00  0.00    +0.000 NA
ATOM      3  C   UNL     1       6.274   5.348  15.822  0.00  0.00    +0.000 A 
ATOM      4  C   UNL     1       7.188   5.071  16.763  0.00  0.00    +0.000 A 
ATOM      5  C   UNL     1       6.899   5.492  18.139  0.00  0.00    +0.000 A 
ATOM      6  O   UNL     1       7.665   5.242  19.060  0.00  0.00    +0.000 OA
ATOM      7  N   UNL     1       5.720   6.148  18.309  0.00  0.00    +0.000 N 
ATOM      8  H   UNL     1       5.468   6.446  19.237  0.00  0.00    +0.000 HD
ENDROOT
BRANCH   3   9
ATOM      9  C   UNL     1       6.513   4.818  14.469  0.00  0.00    +0.000 A 
ATOM     10  C   UNL     1       7.584   5.326  13.723  0.00  0.00    +0.000 A 
ATOM     11  C   UNL     1       7.805   4.892  12.416  0.00  0.00    +0.000 A 
ATOM     12  C   UNL     1       6.963   3.939  11.849  0.00  0.00    +0.000 A 
ATOM     13  C   UNL     1       5.901   3.416  12.587  0.00  0.00    +0.000 A 
ATOM     14  C   UNL     1       5.672   3.854  13.896  0.00  0.00    +0.000 A 
ENDBRANCH   3   9
BRANCH   1  15
ATOM     15  S   UNL     1       3.425   7.190  17.778  0.00  0.00    +0.000 S 
BRANCH  15  16
ATOM     16  C   UNL     1       3.108   6.318  19.337  0.00  0.00    +0.000 C 
BRANCH  16  21
ATOM     17  C   UNL     1       3.528   2.518  19.380  0.00  0.00    +0.000 A 
ATOM     18  C   UNL     1       2.367   2.098  18.722  0.00  0.00    +0.000 A 
ATOM     19  C   UNL     1       1.469   3.048  18.231  0.00  0.00    +0.000 A 
ATOM     20  C   UNL     1       1.714   4.411  18.418  0.00  0.00    +0.000 A 
ATOM     21  C   UNL     1       2.858   4.845  19.107  0.00  0.00    +0.000 A 
ATOM     22  C   UNL     1       3.767   3.886  19.579  0.00  0.00    +0.000 A 
BRANCH  17  24
ATOM     23  O   UNL     1       5.091   1.728  20.988  0.00  0.00    +0.000 OA
ATOM     24  C   UNL     1       4.506   1.549  19.935  0.00  0.00    +0.000 C 
BRANCH  24  25
ATOM     25  O   UNL     1       4.714   0.473  19.146  0.00  0.00    +0.000 OA
ATOM     26  H   UNL     1       3.983  -0.171  19.132  0.00  0.00    +0.000 HD
ENDBRANCH  24  25
ENDBRANCH  17  24
ENDBRANCH  16  21
ENDBRANCH  15  16
ENDBRANCH   1  15
TORSDOF 6
ENDMDL
MODEL 8
REMARK VINA RESULT:      -8.1      2.603      3.612
REMARK  Name = 
REMARK  6 active torsions:
REMARK  status: ('A' for Active; 'I' for Inactive)
REMARK    1  A    between atoms: C_2  and  O_3
REMARK    2  A    between atoms: C_2  and  C_4
REMARK    3  A    between atoms: C_8  and  C_9
REMARK    4  A    between atoms: C_9  and  S_10
REMARK    5  A    between atoms: S_10  and  C_11
REMARK    6  A    between atoms: C_13  and  C_14
REMARK                            x       y       z     vdW  Elec       q    Type
REMARK                         _______ _______ _______ _____ _____    ______ ____
ROOT
ATOM      1  C   UNL     1       4.904   3.409  17.569  0.00  0.00    +0.000 A 
ATOM      2  N   UNL     1       5.115   3.544  16.305  0.00  0.00    +0.000 NA
ATOM      3  C   UNL     1       6.211   4.294  15.947  0.00  0.00    +0.000 A 
ATOM      4  C   UNL     1       7.050   4.875  16.817  0.00  0.00    +0.000 A 
ATOM      5  C   UNL     1       6.782   4.693  18.249  0.00  0.00    +0.000 A 
ATOM      6  O   UNL     1       7.525   5.158  19.103  0.00  0.00    +0.000 OA
ATOM      7  N   UNL     1       5.678   3.956  18.542  0.00  0.00    +0.000 N 
ATOM      8  H   UNL     1       5.458   3.790  19.511  0.00  0.00    +0.000 HD
ENDROOT
BRANCH   3   9
ATOM      9  C   UNL     1       6.551   4.379  14.517  0.00  0.00    +0.000 A 
ATOM     10  C   UNL     1       5.897   3.531  13.614  0.00  0.00    +0.000 A 
ATOM     11  C   UNL     1       6.235   3.542  12.261  0.00  0.00    +0.000 A 
ATOM     12  C   UNL     1       7.223   4.409  11.799  0.00  0.00    +0.000 A 
ATOM     13  C   UNL     1       7.871   5.268  12.687  0.00  0.00    +0.000 A 
ATOM     14  C   UNL     1       7.539   5.255  14.045  0.00  0.00    +0.000 A 
ENDBRANCH   3   9
BRANCH   1  15
ATOM     15  S   UNL     1       3.584   2.491  18.223  0.00  0.00    +0.000 S 
BRANCH  15  16
ATOM     16  C   UNL     1       2.201   3.555  17.725  0.00  0.00    +0.000 C 
BRANCH  16  21
ATOM     17  C   UNL     1       2.124   7.207  18.856  0.00  0.00    +0.000 A 
ATOM     18  C   UNL     1       1.876   7.074  20.226  0.00  0.00    +0.000 A 
ATOM     19  C   UNL     1       1.772   5.800  20.789  0.00  0.00    +0.000 A 
ATOM     20  C   UNL     1       1.890   4.664  19.983  0.00  0.00    +0.000 A 
ATOM     21  C   UNL     1       2.104   4.783  18.601  0.00  0.00    +0.000 A 
ATOM     22  C   UNL     1       2.229   6.066  18.046  0.00  0.00    +0.000 A 
BRANCH  17  24
ATOM     23  O   UNL     1       1.712   9.541  18.666  0.00  0.00    +0.000 OA
ATOM     24  C   UNL     1       2.227   8.538  18.206  0.00  0.00    +0.000 C 
BRANCH  24  25
ATOM     25  O   UNL     1       2.909   8.524  17.041  0.00  0.00    +0.000 OA
ATOM     26  H   UNL     1       3.873   8.410  17.133  0.00  0.00    +0.000 HD
ENDBRANCH  24  25
ENDBRANCH  17  24
ENDBRANCH  16  21
ENDBRANCH  15  16
ENDBRANCH   1  15
TORSDOF 6
ENDMDL
MODEL 9
REMARK VINA RESULT:      -8.1      1.333      2.084
REMARK  Name = 
REMARK  6 active torsions:
REMARK  status: ('A' for Active; 'I' for Inactive)
REMARK    1  A    between atoms: C_2  and  O_3
REMARK    2  A    between atoms: C_2  and  C_4
REMARK    3  A    between atoms: C_8  and  C_9
REMARK    4  A    between atoms: C_9  and  S_10
REMARK    5  A    between atoms: S_10  and  C_11
REMARK    6  A    between atoms: C_13  and  C_14
REMARK                            x       y       z     vdW  Elec       q    Type
REMARK                         _______ _______ _______ _____ _____    ______ ____
ROOT
ATOM      1  C   UNL     1       4.673   6.136  17.629  0.00  0.00    +0.000 A 
ATOM      2  N   UNL     1       4.896   5.845  16.393  0.00  0.00    +0.000 NA
ATOM      3  C   UNL     1       6.083   5.205  16.123  0.00  0.00    +0.000 A 
ATOM      4  C   UNL     1       6.995   4.873  17.048  0.00  0.00    +0.000 A 
ATOM      5  C   UNL     1       6.702   5.213  18.446  0.00  0.00    +0.000 A 
ATOM      6  O   UNL     1       7.466   4.909  19.353  0.00  0.00    +0.000 OA
ATOM      7  N   UNL     1       5.524   5.859  18.651  0.00  0.00    +0.000 N 
ATOM      8  H   UNL     1       5.269   6.102  19.594  0.00  0.00    +0.000 HD
ENDROOT
BRANCH   3   9
ATOM      9  C   UNL     1       6.325   4.756  14.742  0.00  0.00    +0.000 A 
ATOM     10  C   UNL     1       7.422   5.276  14.043  0.00  0.00    +0.000 A 
ATOM     11  C   UNL     1       7.649   4.919  12.713  0.00  0.00    +0.000 A 
ATOM     12  C   UNL     1       6.786   4.031  12.076  0.00  0.00    +0.000 A 
ATOM     13  C   UNL     1       5.698   3.496  12.766  0.00  0.00    +0.000 A 
ATOM     14  C   UNL     1       5.464   3.856  14.097  0.00  0.00    +0.000 A 
ENDBRANCH   3   9
BRANCH   1  15
ATOM     15  S   UNL     1       3.230   6.930  18.175  0.00  0.00    +0.000 S 
BRANCH  15  16
ATOM     16  C   UNL     1       1.991   5.743  17.587  0.00  0.00    +0.000 C 
BRANCH  16  21
ATOM     17  C   UNL     1       2.377   2.796  19.992  0.00  0.00    +0.000 A 
ATOM     18  C   UNL     1       2.702   1.756  19.114  0.00  0.00    +0.000 A 
ATOM     19  C   UNL     1       2.834   2.019  17.750  0.00  0.00    +0.000 A 
ATOM     20  C   UNL     1       2.617   3.310  17.258  0.00  0.00    +0.000 A 
ATOM     21  C   UNL     1       2.256   4.355  18.122  0.00  0.00    +0.000 A 
ATOM     22  C   UNL     1       2.146   4.088  19.496  0.00  0.00    +0.000 A 
BRANCH  17  24
ATOM     23  O   UNL     1       1.173   2.810  22.042  0.00  0.00    +0.000 OA
ATOM     24  C   UNL     1       2.209   2.566  21.448  0.00  0.00    +0.000 C 
BRANCH  24  25
ATOM     25  O   UNL     1       3.319   2.098  22.058  0.00  0.00    +0.000 OA
ATOM     26  H   UNL     1       3.773   1.378  21.583  0.00  0.00    +0.000 HD
ENDBRANCH  24  25
ENDBRANCH  17  24
ENDBRANCH  16  21
ENDBRANCH  15  16
ENDBRANCH   1  15
TORSDOF 6
ENDMDL
