MODEL 1
REMARK VINA RESULT:      -6.1      0.000      0.000
REMARK  Name = 
REMARK  9 active torsions:
REMARK  status: ('A' for Active; 'I' for Inactive)
REMARK    1  A    between atoms: C_1  and  C_2
REMARK    2  A    between atoms: C_2  and  C_3
REMARK    3  A    between atoms: C_3  and  C_4
REMARK    4  A    between atoms: C_4  and  C_5
REMARK    5  A    between atoms: C_4  and  N_8
REMARK    6  A    between atoms: C_5  and  C_6
REMARK    7  A    between atoms: C_6  and  C_7
REMARK    8  A    between atoms: C_9  and  C_11
REMARK    9  A    between atoms: C_12  and  C_13
REMARK                            x       y       z     vdW  Elec       q    Type
REMARK                         _______ _______ _______ _____ _____    ______ ____
ROOT
ATOM      1  N   UNL     1       6.708   6.955  17.044  0.00  0.00    +0.000 N 
ATOM      2  C   UNL     1       7.689   7.348  17.926  0.00  0.00    +0.000 C 
ATOM      3  O   UNL     1       8.113   6.649  18.836  0.00  0.00    +0.000 OA
ATOM      4  H   UNL     1       6.481   7.547  16.257  0.00  0.00    +0.000 HD
ENDROOT
BRANCH   2   5
ATOM      5  C   UNL     1       8.186   8.728  17.678  0.00  0.00    +0.000 C 
ATOM      6  C   UNL     1       8.794   9.403  18.668  0.00  0.00    +0.000 C 
BRANCH   6   7
ATOM      7  C   UNL     1       9.286  10.750  18.607  0.00  0.00    +0.000 A 
ATOM      8  C   UNL     1      10.448  11.282  19.250  0.00  0.00    +0.000 A 
ATOM      9  C   UNL     1      10.647  12.616  18.957  0.00  0.00    +0.000 A 
ATOM     10  S   UNL     1       9.437  13.236  17.924  0.00  0.00    +0.000 S 
ATOM     11  C   UNL     1       8.645  11.719  17.859  0.00  0.00    +0.000 A 
ENDBRANCH   6   7
ENDBRANCH   2   5
BRANCH   1  12
ATOM     12  C   UNL     1       6.100   5.622  17.094  0.00  0.00    +0.000 C 
BRANCH  12  13
ATOM     13  C   UNL     1       4.612   5.718  16.694  0.00  0.00    +0.000 C 
BRANCH  13  15
ATOM     14  C   UNL     1       3.073   3.821  17.354  0.00  0.00    +0.000 C 
ATOM     15  C   UNL     1       3.648   5.173  17.752  0.00  0.00    +0.000 C 
ENDBRANCH  13  15
ENDBRANCH  12  13
BRANCH  12  16
ATOM     16  C   UNL     1       6.926   4.605  16.277  0.00  0.00    +0.000 C 
BRANCH  16  17
ATOM     17  C   UNL     1       6.114   3.801  15.256  0.00  0.00    +0.000 C 
ATOM     18  C   UNL     1       6.443   4.215  13.828  0.00  0.00    +0.000 C 
ENDBRANCH  16  17
ENDBRANCH  12  16
ENDBRANCH   1  12
TORSDOF 7
ENDMDL
MODEL 2
REMARK VINA RESULT:      -6.1      0.991      1.093
REMARK  Name = 
REMARK  9 active torsions:
REMARK  status: ('A' for Active; 'I' for Inactive)
REMARK    1  A    between atoms: C_1  and  C_2
REMARK    2  A    between atoms: C_2  and  C_3
REMARK    3  A    between atoms: C_3  and  C_4
REMARK    4  A    between atoms: C_4  and  C_5
REMARK    5  A    between atoms: C_4  and  N_8
REMARK    6  A    between atoms: C_5  and  C_6
REMARK    7  A    between atoms: C_6  and  C_7
REMARK    8  A    between atoms: C_9  and  C_11
REMARK    9  A    between atoms: C_12  and  C_13
REMARK                            x       y       z     vdW  Elec       q    Type
REMARK                         _______ _______ _______ _____ _____    ______ ____
ROOT
ATOM      1  N   UNL     1       6.823   7.080  16.914  0.00  0.00    +0.000 N 
ATOM      2  C   UNL     1       7.700   7.428  17.918  0.00  0.00    +0.000 C 
ATOM      3  O   UNL     1       8.076   6.664  18.795  0.00  0.00    +0.000 OA
ATOM      4  H   UNL     1       6.638   7.733  16.166  0.00  0.00    +0.000 HD
ENDROOT
BRANCH   2   5
ATOM      5  C   UNL     1       8.146   8.845  17.843  0.00  0.00    +0.000 C 
ATOM      6  C   UNL     1       8.964   9.334  18.790  0.00  0.00    +0.000 C 
BRANCH   6   7
ATOM      7  C   UNL     1       9.446  10.683  18.890  0.00  0.00    +0.000 A 
ATOM      8  C   UNL     1      10.226  11.401  17.930  0.00  0.00    +0.000 A 
ATOM      9  C   UNL     1      10.496  12.693  18.332  0.00  0.00    +0.000 A 
ATOM     10  S   UNL     1       9.827  13.043  19.865  0.00  0.00    +0.000 S 
ATOM     11  C   UNL     1       9.168  11.469  19.992  0.00  0.00    +0.000 A 
ENDBRANCH   6   7
ENDBRANCH   2   5
BRANCH   1  12
ATOM     12  C   UNL     1       6.282   5.724  16.786  0.00  0.00    +0.000 C 
BRANCH  12  13
ATOM     13  C   UNL     1       4.754   5.794  16.580  0.00  0.00    +0.000 C 
BRANCH  13  15
ATOM     14  C   UNL     1       2.906   5.974  18.299  0.00  0.00    +0.000 C 
ATOM     15  C   UNL     1       4.034   6.702  17.582  0.00  0.00    +0.000 C 
ENDBRANCH  13  15
ENDBRANCH  12  13
BRANCH  12  16
ATOM     16  C   UNL     1       7.044   4.923  15.707  0.00  0.00    +0.000 C 
BRANCH  16  17
ATOM     17  C   UNL     1       6.205   3.855  14.997  0.00  0.00    +0.000 C 
ATOM     18  C   UNL     1       6.417   3.888  13.490  0.00  0.00    +0.000 C 
ENDBRANCH  16  17
ENDBRANCH  12  16
ENDBRANCH   1  12
TORSDOF 7
ENDMDL
MODEL 3
REMARK VINA RESULT:      -6.1      1.469      2.642
REMARK  Name = 
REMARK  9 active torsions:
REMARK  status: ('A' for Active; 'I' for Inactive)
REMARK    1  A    between atoms: C_1  and  C_2
REMARK    2  A    between atoms: C_2  and  C_3
REMARK    3  A    between atoms: C_3  and  C_4
REMARK    4  A    between atoms: C_4  and  C_5
REMARK    5  A    between atoms: C_4  and  N_8
REMARK    6  A    between atoms: C_5  and  C_6
REMARK    7  A    between atoms: C_6  and  C_7
REMARK    8  A    between atoms: C_9  and  C_11
REMARK    9  A    between atoms: C_12  and  C_13
REMARK                            x       y       z     vdW  Elec       q    Type
REMARK                         _______ _______ _______ _____ _____    ______ ____
ROOT
ATOM      1  N   UNL     1       7.432   6.441  18.449  0.00  0.00    +0.000 N 
ATOM      2  C   UNL     1       7.635   7.661  17.845  0.00  0.00    +0.000 C 
ATOM      3  O   UNL     1       7.099   8.008  16.802  0.00  0.00    +0.000 OA
ATOM      4  H   UNL     1       7.830   6.265  19.361  0.00  0.00    +0.000 HD
ENDROOT
BRANCH   2   5
ATOM      5  C   UNL     1       8.591   8.531  18.582  0.00  0.00    +0.000 C 
ATOM      6  C   UNL     1       8.684   9.833  18.265  0.00  0.00    +0.000 C 
BRANCH   6   7
ATOM      7  C   UNL     1       9.583  10.792  18.843  0.00  0.00    +0.000 A 
ATOM      8  C   UNL     1       9.805  11.048  20.233  0.00  0.00    +0.000 A 
ATOM      9  C   UNL     1      10.762  12.020  20.443  0.00  0.00    +0.000 A 
ATOM     10  S   UNL     1      11.386  12.636  18.977  0.00  0.00    +0.000 S 
ATOM     11  C   UNL     1      10.382  11.598  18.056  0.00  0.00    +0.000 A 
ENDBRANCH   6   7
ENDBRANCH   2   5
BRANCH   1  12
ATOM     12  C   UNL     1       6.508   5.443  17.902  0.00  0.00    +0.000 C 
BRANCH  12  13
ATOM     13  C   UNL     1       7.280   4.471  16.986  0.00  0.00    +0.000 C 
BRANCH  13  15
ATOM     14  C   UNL     1       5.604   5.305  15.283  0.00  0.00    +0.000 C 
ATOM     15  C   UNL     1       6.594   4.205  15.642  0.00  0.00    +0.000 C 
ENDBRANCH  13  15
ENDBRANCH  12  13
BRANCH  12  16
ATOM     16  C   UNL     1       5.696   4.765  19.027  0.00  0.00    +0.000 C 
BRANCH  16  17
ATOM     17  C   UNL     1       4.177   4.808  18.830  0.00  0.00    +0.000 C 
ATOM     18  C   UNL     1       3.714   6.176  18.346  0.00  0.00    +0.000 C 
ENDBRANCH  16  17
ENDBRANCH  12  16
ENDBRANCH   1  12
TORSDOF 7
ENDMDL
MODEL 4
REMARK VINA RESULT:      -6.1      1.125      1.454
REMARK  Name = 
REMARK  9 active torsions:
REMARK  status: ('A' for Active; 'I' for Inactive)
REMARK    1  A    between atoms: C_1  and  C_2
REMARK    2  A    between atoms: C_2  and  C_3
REMARK    3  A    between atoms: C_3  and  C_4
REMARK    4  A    between atoms: C_4  and  C_5
REMARK    5  A    between atoms: C_4  and  N_8
REMARK    6  A    between atoms: C_5  and  C_6
REMARK    7  A    between atoms: C_6  and  C_7
REMARK    8  A    between atoms: C_9  and  C_11
REMARK    9  A    between atoms: C_12  and  C_13
REMARK                            x       y       z     vdW  Elec       q    Type
REMARK                         _______ _______ _______ _____ _____    ______ ____
ROOT
ATOM      1  N   UNL     1       6.408   7.474  16.986  0.00  0.00    +0.000 N 
ATOM      2  C   UNL     1       7.546   7.609  17.750  0.00  0.00    +0.000 C 
ATOM      3  O   UNL     1       7.975   6.744  18.501  0.00  0.00    +0.000 OA
ATOM      4  H   UNL     1       6.173   8.190  16.314  0.00  0.00    +0.000 HD
ENDROOT
BRANCH   2   5
ATOM      5  C   UNL     1       8.211   8.929  17.587  0.00  0.00    +0.000 C 
ATOM      6  C   UNL     1       8.730   9.549  18.661  0.00  0.00    +0.000 C 
BRANCH   6   7
ATOM      7  C   UNL     1       9.359  10.840  18.682  0.00  0.00    +0.000 A 
ATOM      8  C   UNL     1       9.026  11.982  17.888  0.00  0.00    +0.000 A 
ATOM      9  C   UNL     1       9.816  13.075  18.181  0.00  0.00    +0.000 A 
ATOM     10  S   UNL     1      10.965  12.730  19.397  0.00  0.00    +0.000 S 
ATOM     11  C   UNL     1      10.404  11.119  19.541  0.00  0.00    +0.000 A 
ENDBRANCH   6   7
ENDBRANCH   2   5
BRANCH   1  12
ATOM     12  C   UNL     1       5.616   6.241  16.977  0.00  0.00    +0.000 C 
BRANCH  12  13
ATOM     13  C   UNL     1       4.348   6.436  17.836  0.00  0.00    +0.000 C 
BRANCH  13  15
ATOM     14  C   UNL     1       5.404   4.487  19.056  0.00  0.00    +0.000 C 
ATOM     15  C   UNL     1       4.197   5.410  18.963  0.00  0.00    +0.000 C 
ENDBRANCH  13  15
ENDBRANCH  12  13
BRANCH  12  16
ATOM     16  C   UNL     1       5.351   5.763  15.533  0.00  0.00    +0.000 C 
BRANCH  16  17
ATOM     17  C   UNL     1       5.458   4.247  15.336  0.00  0.00    +0.000 C 
ATOM     18  C   UNL     1       6.266   3.900  14.093  0.00  0.00    +0.000 C 
ENDBRANCH  16  17
ENDBRANCH  12  16
ENDBRANCH   1  12
TORSDOF 7
ENDMDL
MODEL 5
REMARK VINA RESULT:      -6.0      1.046      1.394
REMARK  Name = 
REMARK  9 active torsions:
REMARK  status: ('A' for Active; 'I' for Inactive)
REMARK    1  A    between atoms: C_1  and  C_2
REMARK    2  A    between atoms: C_2  and  C_3
REMARK    3  A    between atoms: C_3  and  C_4
REMARK    4  A    between atoms: C_4  and  C_5
REMARK    5  A    between atoms: C_4  and  N_8
REMARK    6  A    between atoms: C_5  and  C_6
REMARK    7  A    between atoms: C_6  and  C_7
REMARK    8  A    between atoms: C_9  and  C_11
REMARK    9  A    between atoms: C_12  and  C_13
REMARK                            x       y       z     vdW  Elec       q    Type
REMARK                         _______ _______ _______ _____ _____    ______ ____
ROOT
ATOM      1  N   UNL     1       6.526   7.532  17.087  0.00  0.00    +0.000 N 
ATOM      2  C   UNL     1       7.656   7.690  17.859  0.00  0.00    +0.000 C 
ATOM      3  O   UNL     1       8.155   6.801  18.535  0.00  0.00    +0.000 OA
ATOM      4  H   UNL     1       6.232   8.281  16.476  0.00  0.00    +0.000 HD
ENDROOT
BRANCH   2   5
ATOM      5  C   UNL     1       8.219   9.066  17.803  0.00  0.00    +0.000 C 
ATOM      6  C   UNL     1       8.911   9.542  18.851  0.00  0.00    +0.000 C 
BRANCH   6   7
ATOM      7  C   UNL     1       9.475  10.857  18.976  0.00  0.00    +0.000 A 
ATOM      8  C   UNL     1      10.233  11.378  20.073  0.00  0.00    +0.000 A 
ATOM      9  C   UNL     1      10.649  12.676  19.855  0.00  0.00    +0.000 A 
ATOM     10  S   UNL     1      10.123  13.276  18.345  0.00  0.00    +0.000 S 
ATOM     11  C   UNL     1       9.342  11.798  17.973  0.00  0.00    +0.000 A 
ENDBRANCH   6   7
ENDBRANCH   2   5
BRANCH   1  12
ATOM     12  C   UNL     1       5.829   6.247  16.978  0.00  0.00    +0.000 C 
BRANCH  12  13
ATOM     13  C   UNL     1       4.838   6.096  18.152  0.00  0.00    +0.000 C 
BRANCH  13  15
ATOM     14  C   UNL     1       2.840   7.643  18.013  0.00  0.00    +0.000 C 
ATOM     15  C   UNL     1       3.368   6.240  17.746  0.00  0.00    +0.000 C 
ENDBRANCH  13  15
ENDBRANCH  12  13
BRANCH  12  16
ATOM     16  C   UNL     1       5.204   6.073  15.577  0.00  0.00    +0.000 C 
BRANCH  16  17
ATOM     17  C   UNL     1       5.795   4.923  14.755  0.00  0.00    +0.000 C 
ATOM     18  C   UNL     1       6.916   4.216  15.506  0.00  0.00    +0.000 C 
ENDBRANCH  16  17
ENDBRANCH  12  16
ENDBRANCH   1  12
TORSDOF 7
ENDMDL
MODEL 6
REMARK VINA RESULT:      -6.0      1.602      2.917
REMARK  Name = 
REMARK  9 active torsions:
REMARK  status: ('A' for Active; 'I' for Inactive)
REMARK    1  A    between atoms: C_1  and  C_2
REMARK    2  A    between atoms: C_2  and  C_3
REMARK    3  A    between atoms: C_3  and  C_4
REMARK    4  A    between atoms: C_4  and  C_5
REMARK    5  A    between atoms: C_4  and  N_8
REMARK    6  A    between atoms: C_5  and  C_6
REMARK    7  A    between atoms: C_6  and  C_7
REMARK    8  A    between atoms: C_9  and  C_11
REMARK    9  A    between atoms: C_12  and  C_13
REMARK                            x       y       z     vdW  Elec       q    Type
REMARK                         _______ _______ _______ _____ _____    ______ ____
ROOT
ATOM      1  N   UNL     1       7.420   6.400  18.367  0.00  0.00    +0.000 N 
ATOM      2  C   UNL     1       7.573   7.642  17.794  0.00  0.00    +0.000 C 
ATOM      3  O   UNL     1       6.987   8.008  16.784  0.00  0.00    +0.000 OA
ATOM      4  H   UNL     1       7.858   6.205  19.256  0.00  0.00    +0.000 HD
ENDROOT
BRANCH   2   5
ATOM      5  C   UNL     1       8.540   8.510  18.518  0.00  0.00    +0.000 C 
ATOM      6  C   UNL     1       8.631   9.812  18.199  0.00  0.00    +0.000 C 
BRANCH   6   7
ATOM      7  C   UNL     1       9.541  10.768  18.765  0.00  0.00    +0.000 A 
ATOM      8  C   UNL     1      10.504  11.569  18.073  0.00  0.00    +0.000 A 
ATOM      9  C   UNL     1      11.198  12.406  18.922  0.00  0.00    +0.000 A 
ATOM     10  S   UNL     1      10.708  12.227  20.548  0.00  0.00    +0.000 S 
ATOM     11  C   UNL     1       9.558  11.032  20.121  0.00  0.00    +0.000 A 
ENDBRANCH   6   7
ENDBRANCH   2   5
BRANCH   1  12
ATOM     12  C   UNL     1       6.494   5.399  17.827  0.00  0.00    +0.000 C 
BRANCH  12  13
ATOM     13  C   UNL     1       7.267   4.416  16.923  0.00  0.00    +0.000 C 
BRANCH  13  15
ATOM     14  C   UNL     1       5.571   5.193  15.214  0.00  0.00    +0.000 C 
ATOM     15  C   UNL     1       6.931   4.546  15.434  0.00  0.00    +0.000 C 
ENDBRANCH  13  15
ENDBRANCH  12  13
BRANCH  12  16
ATOM     16  C   UNL     1       5.678   4.734  18.956  0.00  0.00    +0.000 C 
BRANCH  16  17
ATOM     17  C   UNL     1       4.373   5.456  19.308  0.00  0.00    +0.000 C 
ATOM     18  C   UNL     1       3.317   4.486  19.822  0.00  0.00    +0.000 C 
ENDBRANCH  16  17
ENDBRANCH  12  16
ENDBRANCH   1  12
TORSDOF 7
ENDMDL
MODEL 7
REMARK VINA RESULT:      -6.0      5.369      7.385
REMARK  Name = 
REMARK  9 active torsions:
REMARK  status: ('A' for Active; 'I' for Inactive)
REMARK    1  A    between atoms: C_1  and  C_2
REMARK    2  A    between atoms: C_2  and  C_3
REMARK    3  A    between atoms: C_3  and  C_4
REMARK    4  A    between atoms: C_4  and  C_5
REMARK    5  A    between atoms: C_4  and  N_8
REMARK    6  A    between atoms: C_5  and  C_6
REMARK    7  A    between atoms: C_6  and  C_7
REMARK    8  A    between atoms: C_9  and  C_11
REMARK    9  A    between atoms: C_12  and  C_13
REMARK                            x       y       z     vdW  Elec       q    Type
REMARK                         _______ _______ _______ _____ _____    ______ ____
ROOT
ATOM      1  N   UNL     1       5.685   3.427  13.300  0.00  0.00    +0.000 N 
ATOM      2  C   UNL     1       6.441   4.408  13.901  0.00  0.00    +0.000 C 
ATOM      3  O   UNL     1       7.279   5.081  13.318  0.00  0.00    +0.000 OA
ATOM      4  H   UNL     1       4.942   2.983  13.821  0.00  0.00    +0.000 HD
ENDROOT
BRANCH   2   5
ATOM      5  C   UNL     1       6.151   4.569  15.351  0.00  0.00    +0.000 C 
ATOM      6  C   UNL     1       4.981   4.133  15.846  0.00  0.00    +0.000 C 
BRANCH   6   7
ATOM      7  C   UNL     1       4.529   4.254  17.204  0.00  0.00    +0.000 A 
ATOM      8  C   UNL     1       3.734   3.321  17.942  0.00  0.00    +0.000 A 
ATOM      9  C   UNL     1       3.502   3.738  19.238  0.00  0.00    +0.000 A 
ATOM     10  S   UNL     1       4.225   5.250  19.566  0.00  0.00    +0.000 S 
ATOM     11  C   UNL     1       4.857   5.350  17.978  0.00  0.00    +0.000 A 
ENDBRANCH   6   7
ENDBRANCH   2   5
BRANCH   1  12
ATOM     12  C   UNL     1       5.794   3.123  11.870  0.00  0.00    +0.000 C 
BRANCH  12  13
ATOM     13  C   UNL     1       6.799   1.971  11.662  0.00  0.00    +0.000 C 
BRANCH  13  15
ATOM     14  C   UNL     1       6.192  -0.475  11.433  0.00  0.00    +0.000 C 
ATOM     15  C   UNL     1       6.296   0.869  10.725  0.00  0.00    +0.000 C 
ENDBRANCH  13  15
ENDBRANCH  12  13
BRANCH  12  16
ATOM     16  C   UNL     1       4.401   2.887  11.246  0.00  0.00    +0.000 C 
BRANCH  16  17
ATOM     17  C   UNL     1       3.659   4.166  10.844  0.00  0.00    +0.000 C 
ATOM     18  C   UNL     1       2.964   4.010   9.498  0.00  0.00    +0.000 C 
ENDBRANCH  16  17
ENDBRANCH  12  16
ENDBRANCH   1  12
TORSDOF 7
ENDMDL
MODEL 8
REMARK VINA RESULT:      -6.0      3.900      6.164
REMARK  Name = 
REMARK  9 active torsions:
REMARK  status: ('A' for Active; 'I' for Inactive)
REMARK    1  A    between atoms: C_1  and  C_2
REMARK    2  A    between atoms: C_2  and  C_3
REMARK    3  A    between atoms: C_3  and  C_4
REMARK    4  A    between atoms: C_4  and  C_5
REMARK    5  A    between atoms: C_4  and  N_8
REMARK    6  A    between atoms: C_5  and  C_6
REMARK    7  A    between atoms: C_6  and  C_7
REMARK    8  A    between atoms: C_9  and  C_11
REMARK    9  A    between atoms: C_12  and  C_13
REMARK                            x       y       z     vdW  Elec       q    Type
REMARK                         _______ _______ _______ _____ _____    ______ ____
ROOT
ATOM      1  N   UNL     1       4.801   5.085  17.275  0.00  0.00    +0.000 N 
ATOM      2  C   UNL     1       3.576   4.578  17.649  0.00  0.00    +0.000 C 
ATOM      3  O   UNL     1       3.290   3.389  17.626  0.00  0.00    +0.000 OA
ATOM      4  H   UNL     1       4.997   6.066  17.418  0.00  0.00    +0.000 HD
ENDROOT
BRANCH   2   5
ATOM      5  C   UNL     1       2.612   5.626  18.079  0.00  0.00    +0.000 C 
ATOM      6  C   UNL     1       3.016   6.904  18.167  0.00  0.00    +0.000 C 
BRANCH   6   7
ATOM      7  C   UNL     1       2.229   8.021  18.609  0.00  0.00    +0.000 A 
ATOM      8  C   UNL     1       1.805   9.147  17.834  0.00  0.00    +0.000 A 
ATOM      9  C   UNL     1       1.035  10.028  18.565  0.00  0.00    +0.000 A 
ATOM     10  S   UNL     1       0.829   9.515  20.181  0.00  0.00    +0.000 S 
ATOM     11  C   UNL     1       1.765   8.108  19.907  0.00  0.00    +0.000 A 
ENDBRANCH   6   7
ENDBRANCH   2   5
BRANCH   1  12
ATOM     12  C   UNL     1       5.904   4.222  16.843  0.00  0.00    +0.000 C 
BRANCH  12  13
ATOM     13  C   UNL     1       5.784   3.949  15.328  0.00  0.00    +0.000 C 
BRANCH  13  15
ATOM     14  C   UNL     1       6.823   4.208  13.036  0.00  0.00    +0.000 C 
ATOM     15  C   UNL     1       6.818   4.693  14.479  0.00  0.00    +0.000 C 
ENDBRANCH  13  15
ENDBRANCH  12  13
BRANCH  12  16
ATOM     16  C   UNL     1       7.265   4.797  17.290  0.00  0.00    +0.000 C 
BRANCH  16  17
ATOM     17  C   UNL     1       7.168   6.006  18.227  0.00  0.00    +0.000 C 
ATOM     18  C   UNL     1       7.545   7.298  17.515  0.00  0.00    +0.000 C 
ENDBRANCH  16  17
ENDBRANCH  12  16
ENDBRANCH   1  12
TORSDOF 7
ENDMDL
MODEL 9
REMARK VINA RESULT:      -5.9      4.203      6.139
REMARK  Name = 
REMARK  9 active torsions:
REMARK  status: ('A' for Active; 'I' for Inactive)
REMARK    1  A    between atoms: C_1  and  C_2
REMARK    2  A    between atoms: C_2  and  C_3
REMARK    3  A    between atoms: C_3  and  C_4
REMARK    4  A    between atoms: C_4  and  C_5
REMARK    5  A    between atoms: C_4  and  N_8
REMARK    6  A    between atoms: C_5  and  C_6
REMARK    7  A    between atoms: C_6  and  C_7
REMARK    8  A    between atoms: C_9  and  C_11
REMARK    9  A    between atoms: C_12  and  C_13
REMARK                            x       y       z     vdW  Elec       q    Type
REMARK                         _______ _______ _______ _____ _____    ______ ____
ROOT
ATOM      1  N   UNL     1       4.658   4.899  16.362  0.00  0.00    +0.000 N 
ATOM      2  C   UNL     1       3.862   4.335  17.334  0.00  0.00    +0.000 C 
ATOM      3  O   UNL     1       3.929   3.165  17.681  0.00  0.00    +0.000 OA
ATOM      4  H   UNL     1       4.615   5.896  16.201  0.00  0.00    +0.000 HD
ENDROOT
BRANCH   2   5
ATOM      5  C   UNL     1       2.889   5.293  17.927  0.00  0.00    +0.000 C 
ATOM      6  C   UNL     1       3.213   6.593  18.024  0.00  0.00    +0.000 C 
BRANCH   6   7
ATOM      7  C   UNL     1       2.412   7.631  18.609  0.00  0.00    +0.000 A 
ATOM      8  C   UNL     1       1.976   7.732  19.968  0.00  0.00    +0.000 A 
ATOM      9  C   UNL     1       1.241   8.876  20.201  0.00  0.00    +0.000 A 
ATOM     10  S   UNL     1       1.062   9.824  18.791  0.00  0.00    +0.000 S 
ATOM     11  C   UNL     1       1.974   8.710  17.865  0.00  0.00    +0.000 A 
ENDBRANCH   6   7
ENDBRANCH   2   5
BRANCH   1  12
ATOM     12  C   UNL     1       5.701   4.138  15.669  0.00  0.00    +0.000 C 
BRANCH  12  13
ATOM     13  C   UNL     1       5.432   4.157  14.149  0.00  0.00    +0.000 C 
BRANCH  13  15
ATOM     14  C   UNL     1       6.509   3.353  12.006  0.00  0.00    +0.000 C 
ATOM     15  C   UNL     1       6.701   4.143  13.293  0.00  0.00    +0.000 C 
ENDBRANCH  13  15
ENDBRANCH  12  13
BRANCH  12  16
ATOM     16  C   UNL     1       7.107   4.622  16.083  0.00  0.00    +0.000 C 
BRANCH  16  17
ATOM     17  C   UNL     1       7.337   4.691  17.596  0.00  0.00    +0.000 C 
ATOM     18  C   UNL     1       7.429   6.130  18.084  0.00  0.00    +0.000 C 
ENDBRANCH  16  17
ENDBRANCH  12  16
ENDBRANCH   1  12
TORSDOF 7
ENDMDL
