MODEL 1
REMARK VINA RESULT:      -8.0      0.000      0.000
REMARK  Name = 
REMARK  4 active torsions:
REMARK  status: ('A' for Active; 'I' for Inactive)
REMARK    1  A    between atoms: C_1  and  N_2
REMARK    2  A    between atoms: N_5  and  C_6
REMARK    3  A    between atoms: C_11  and  C_12
REMARK    4  A    between atoms: C_13  and  N_14
REMARK                            x       y       z     vdW  Elec       q    Type
REMARK                         _______ _______ _______ _____ _____    ______ ____
ROOT
ATOM      1  C   UNL     1      -1.345  11.506  22.033  0.00  0.00    +0.000 A 
ATOM      2  C   UNL     1      -1.002  10.730  23.152  0.00  0.00    +0.000 A 
ATOM      3  C   UNL     1      -0.140   9.625  23.066  0.00  0.00    +0.000 A 
ATOM      4  C   UNL     1       0.396   9.296  21.819  0.00  0.00    +0.000 A 
ATOM      5  N   UNL     1       1.259   8.290  21.474  0.00  0.00    +0.000 NA
ATOM      6  C   UNL     1       1.453   8.402  20.167  0.00  0.00    +0.000 A 
ATOM      7  N   UNL     1       0.759   9.489  19.682  0.00  0.00    +0.000 N 
ATOM      8  C   UNL     1       0.059  10.057  20.713  0.00  0.00    +0.000 A 
ATOM      9  C   UNL     1      -0.801  11.154  20.780  0.00  0.00    +0.000 A 
ATOM     10  H   UNL     1       0.777   9.805  18.719  0.00  0.00    +0.000 HD
ENDROOT
BRANCH   6  11
ATOM     11  C   UNL     1       2.252   7.597  19.291  0.00  0.00    +0.000 A 
ATOM     12  C   UNL     1       2.597   6.335  19.679  0.00  0.00    +0.000 A 
ATOM     13  C   UNL     1       3.474   5.630  18.790  0.00  0.00    +0.000 A 
ATOM     14  S   UNL     1       4.099   4.063  19.090  0.00  0.00    +0.000 S 
ATOM     15  C   UNL     1       4.981   4.065  17.622  0.00  0.00    +0.000 A 
ATOM     16  C   UNL     1       4.803   5.232  16.909  0.00  0.00    +0.000 A 
ATOM     17  C   UNL     1       3.939   6.124  17.592  0.00  0.00    +0.000 A 
ATOM     18  N   UNL     1       3.544   7.377  17.184  0.00  0.00    +0.000 N 
ATOM     19  C   UNL     1       2.718   8.154  17.956  0.00  0.00    +0.000 A 
ATOM     20  O   UNL     1       2.370   9.267  17.561  0.00  0.00    +0.000 OA
ATOM     21  H   UNL     1       3.862   7.752  16.298  0.00  0.00    +0.000 HD
BRANCH  12  22
ATOM     22  N   UNL     1       2.164   5.722  20.854  0.00  0.00    +0.000 N 
ATOM     23  H   UNL     1       2.133   6.387  21.639  0.00  0.00    +0.000 HD
ATOM     24  H   UNL     1       2.673   4.872  21.074  0.00  0.00    +0.000 HD
ENDBRANCH  12  22
ENDBRANCH   6  11
BRANCH   1  29
ATOM     25  C   UNL     1      -5.049  15.636  22.796  0.00  0.00    +0.000 C 
ATOM     26  N   UNL     1      -3.784  15.018  22.410  0.00  0.00    +0.000 NA
ATOM     27  C   UNL     1      -4.004  14.022  21.335  0.00  0.00    +0.000 C 
ATOM     28  C   UNL     1      -2.710  13.274  20.933  0.00  0.00    +0.000 C 
ATOM     29  N   UNL     1      -2.132  12.644  22.129  0.00  0.00    +0.000 N 
ATOM     30  C   UNL     1      -1.849  13.611  23.207  0.00  0.00    +0.000 C 
ATOM     31  C   UNL     1      -3.155  14.351  23.576  0.00  0.00    +0.000 C 
ENDBRANCH   1  29
TORSDOF 3
ENDMDL
MODEL 2
REMARK VINA RESULT:      -7.7      3.947      9.157
REMARK  Name = 
REMARK  4 active torsions:
REMARK  status: ('A' for Active; 'I' for Inactive)
REMARK    1  A    between atoms: C_1  and  N_2
REMARK    2  A    between atoms: N_5  and  C_6
REMARK    3  A    between atoms: C_11  and  C_12
REMARK    4  A    between atoms: C_13  and  N_14
REMARK                            x       y       z     vdW  Elec       q    Type
REMARK                         _______ _______ _______ _____ _____    ______ ____
ROOT
ATOM      1  C   UNL     1       2.188   6.729  19.581  0.00  0.00    +0.000 A 
ATOM      2  C   UNL     1       1.630   6.848  20.865  0.00  0.00    +0.000 A 
ATOM      3  C   UNL     1       1.087   8.052  21.339  0.00  0.00    +0.000 A 
ATOM      4  C   UNL     1       1.100   9.165  20.496  0.00  0.00    +0.000 A 
ATOM      5  N   UNL     1       0.627  10.432  20.711  0.00  0.00    +0.000 NA
ATOM      6  C   UNL     1       0.888  11.117  19.606  0.00  0.00    +0.000 A 
ATOM      7  N   UNL     1       1.483  10.292  18.675  0.00  0.00    +0.000 N 
ATOM      8  C   UNL     1       1.649   9.053  19.231  0.00  0.00    +0.000 A 
ATOM      9  C   UNL     1       2.200   7.865  18.746  0.00  0.00    +0.000 A 
ATOM     10  H   UNL     1       1.744  10.572  17.736  0.00  0.00    +0.000 HD
ENDROOT
BRANCH   6  11
ATOM     11  C   UNL     1       0.622  12.491  19.299  0.00  0.00    +0.000 A 
ATOM     12  C   UNL     1       1.422  13.458  19.835  0.00  0.00    +0.000 A 
ATOM     13  C   UNL     1       1.033  14.810  19.556  0.00  0.00    +0.000 A 
ATOM     14  S   UNL     1       1.836  16.193  20.172  0.00  0.00    +0.000 S 
ATOM     15  C   UNL     1       0.743  17.254  19.390  0.00  0.00    +0.000 A 
ATOM     16  C   UNL     1      -0.215  16.575  18.668  0.00  0.00    +0.000 A 
ATOM     17  C   UNL     1      -0.040  15.172  18.774  0.00  0.00    +0.000 A 
ATOM     18  N   UNL     1      -0.810  14.191  18.195  0.00  0.00    +0.000 N 
ATOM     19  C   UNL     1      -0.546  12.860  18.399  0.00  0.00    +0.000 A 
ATOM     20  O   UNL     1      -1.243  12.002  17.858  0.00  0.00    +0.000 OA
ATOM     21  H   UNL     1      -1.595  14.436  17.602  0.00  0.00    +0.000 HD
BRANCH  12  22
ATOM     22  N   UNL     1       2.549  13.209  20.617  0.00  0.00    +0.000 N 
ATOM     23  H   UNL     1       3.048  14.078  20.850  0.00  0.00    +0.000 HD
ATOM     24  H   UNL     1       3.155  12.494  20.230  0.00  0.00    +0.000 HD
ENDBRANCH  12  22
ENDBRANCH   6  11
BRANCH   1  29
ATOM     25  C   UNL     1       3.629   1.514  18.136  0.00  0.00    +0.000 C 
ATOM     26  N   UNL     1       3.551   2.968  18.025  0.00  0.00    +0.000 NA
ATOM     27  C   UNL     1       4.189   3.609  19.200  0.00  0.00    +0.000 C 
ATOM     28  C   UNL     1       4.072   5.151  19.181  0.00  0.00    +0.000 C 
ATOM     29  N   UNL     1       2.653   5.521  19.081  0.00  0.00    +0.000 N 
ATOM     30  C   UNL     1       1.992   4.945  17.895  0.00  0.00    +0.000 C 
ATOM     31  C   UNL     1       2.137   3.406  17.935  0.00  0.00    +0.000 C 
ENDBRANCH   1  29
TORSDOF 3
ENDMDL
MODEL 3
REMARK VINA RESULT:      -7.6      2.907      9.441
REMARK  Name = 
REMARK  4 active torsions:
REMARK  status: ('A' for Active; 'I' for Inactive)
REMARK    1  A    between atoms: C_1  and  N_2
REMARK    2  A    between atoms: N_5  and  C_6
REMARK    3  A    between atoms: C_11  and  C_12
REMARK    4  A    between atoms: C_13  and  N_14
REMARK                            x       y       z     vdW  Elec       q    Type
REMARK                         _______ _______ _______ _____ _____    ______ ____
ROOT
ATOM      1  C   UNL     1       3.245   6.625  18.479  0.00  0.00    +0.000 A 
ATOM      2  C   UNL     1       2.871   6.066  19.712  0.00  0.00    +0.000 A 
ATOM      3  C   UNL     1       1.940   6.680  20.565  0.00  0.00    +0.000 A 
ATOM      4  C   UNL     1       1.366   7.888  20.162  0.00  0.00    +0.000 A 
ATOM      5  N   UNL     1       0.437   8.670  20.795  0.00  0.00    +0.000 NA
ATOM      6  C   UNL     1       0.231   9.713  20.003  0.00  0.00    +0.000 A 
ATOM      7  N   UNL     1       0.984   9.585  18.856  0.00  0.00    +0.000 N 
ATOM      8  C   UNL     1       1.733   8.443  18.949  0.00  0.00    +0.000 A 
ATOM      9  C   UNL     1       2.661   7.849  18.092  0.00  0.00    +0.000 A 
ATOM     10  H   UNL     1       0.971  10.236  18.079  0.00  0.00    +0.000 HD
ENDROOT
BRANCH   6  11
ATOM     11  C   UNL     1      -0.630  10.844  20.188  0.00  0.00    +0.000 A 
ATOM     12  C   UNL     1      -0.819  11.335  21.447  0.00  0.00    +0.000 A 
ATOM     13  C   UNL     1      -1.766  12.406  21.560  0.00  0.00    +0.000 A 
ATOM     14  S   UNL     1      -2.223  13.141  23.038  0.00  0.00    +0.000 S 
ATOM     15  C   UNL     1      -3.313  14.199  22.249  0.00  0.00    +0.000 A 
ATOM     16  C   UNL     1      -3.331  14.005  20.884  0.00  0.00    +0.000 A 
ATOM     17  C   UNL     1      -2.442  12.970  20.501  0.00  0.00    +0.000 A 
ATOM     18  N   UNL     1      -2.206  12.504  19.229  0.00  0.00    +0.000 N 
ATOM     19  C   UNL     1      -1.331  11.473  18.995  0.00  0.00    +0.000 A 
ATOM     20  O   UNL     1      -1.129  11.082  17.845  0.00  0.00    +0.000 OA
ATOM     21  H   UNL     1      -2.680  12.917  18.434  0.00  0.00    +0.000 HD
BRANCH  12  22
ATOM     22  N   UNL     1      -0.171  10.862  22.587  0.00  0.00    +0.000 N 
ATOM     23  H   UNL     1       0.070  11.628  23.231  0.00  0.00    +0.000 HD
ATOM     24  H   UNL     1       0.616  10.256  22.378  0.00  0.00    +0.000 HD
ENDBRANCH  12  22
ENDBRANCH   6  11
BRANCH   1  29
ATOM     25  C   UNL     1       6.089   4.003  14.429  0.00  0.00    +0.000 C 
ATOM     26  N   UNL     1       5.884   4.686  15.703  0.00  0.00    +0.000 NA
ATOM     27  C   UNL     1       4.938   3.923  16.551  0.00  0.00    +0.000 C 
ATOM     28  C   UNL     1       4.618   4.634  17.887  0.00  0.00    +0.000 C 
ATOM     29  N   UNL     1       4.103   5.980  17.599  0.00  0.00    +0.000 N 
ATOM     30  C   UNL     1       5.038   6.794  16.799  0.00  0.00    +0.000 C 
ATOM     31  C   UNL     1       5.349   6.051  15.479  0.00  0.00    +0.000 C 
ENDBRANCH   1  29
TORSDOF 3
ENDMDL
MODEL 4
REMARK VINA RESULT:      -7.6      3.363      9.521
REMARK  Name = 
REMARK  4 active torsions:
REMARK  status: ('A' for Active; 'I' for Inactive)
REMARK    1  A    between atoms: C_1  and  N_2
REMARK    2  A    between atoms: N_5  and  C_6
REMARK    3  A    between atoms: C_11  and  C_12
REMARK    4  A    between atoms: C_13  and  N_14
REMARK                            x       y       z     vdW  Elec       q    Type
REMARK                         _______ _______ _______ _____ _____    ______ ____
ROOT
ATOM      1  C   UNL     1       2.230   7.154  18.918  0.00  0.00    +0.000 A 
ATOM      2  C   UNL     1       2.245   7.987  17.788  0.00  0.00    +0.000 A 
ATOM      3  C   UNL     1       1.815   9.323  17.832  0.00  0.00    +0.000 A 
ATOM      4  C   UNL     1       1.361   9.834  19.049  0.00  0.00    +0.000 A 
ATOM      5  N   UNL     1       0.906  11.089  19.357  0.00  0.00    +0.000 NA
ATOM      6  C   UNL     1       0.590  11.062  20.644  0.00  0.00    +0.000 A 
ATOM      7  N   UNL     1       0.875   9.820  21.170  0.00  0.00    +0.000 N 
ATOM      8  C   UNL     1       1.343   9.016  20.165  0.00  0.00    +0.000 A 
ATOM      9  C   UNL     1       1.761   7.685  20.138  0.00  0.00    +0.000 A 
ATOM     10  H   UNL     1       0.755   9.562  22.143  0.00  0.00    +0.000 HD
ENDROOT
BRANCH   6  11
ATOM     11  C   UNL     1       0.051  12.099  21.474  0.00  0.00    +0.000 A 
ATOM     12  C   UNL     1       0.432  13.390  21.254  0.00  0.00    +0.000 A 
ATOM     13  C   UNL     1      -0.078  14.355  22.185  0.00  0.00    +0.000 A 
ATOM     14  S   UNL     1       0.311  16.023  22.158  0.00  0.00    +0.000 S 
ATOM     15  C   UNL     1      -0.659  16.336  23.534  0.00  0.00    +0.000 A 
ATOM     16  C   UNL     1      -1.274  15.197  24.008  0.00  0.00    +0.000 A 
ATOM     17  C   UNL     1      -0.930  14.065  23.227  0.00  0.00    +0.000 A 
ATOM     18  N   UNL     1      -1.350  12.769  23.410  0.00  0.00    +0.000 N 
ATOM     19  C   UNL     1      -0.920  11.755  22.592  0.00  0.00    +0.000 A 
ATOM     20  O   UNL     1      -1.321  10.604  22.770  0.00  0.00    +0.000 OA
ATOM     21  H   UNL     1      -1.990  12.537  24.161  0.00  0.00    +0.000 HD
BRANCH  12  22
ATOM     22  N   UNL     1       1.265  13.804  20.216  0.00  0.00    +0.000 N 
ATOM     23  H   UNL     1       2.259  13.686  20.458  0.00  0.00    +0.000 HD
ATOM     24  H   UNL     1       1.047  14.733  19.873  0.00  0.00    +0.000 HD
ENDBRANCH  12  22
ENDBRANCH   6  11
BRANCH   1  29
ATOM     25  C   UNL     1       3.554   1.729  18.492  0.00  0.00    +0.000 C 
ATOM     26  N   UNL     1       3.763   3.147  18.770  0.00  0.00    +0.000 NA
ATOM     27  C   UNL     1       2.853   3.600  19.849  0.00  0.00    +0.000 C 
ATOM     28  C   UNL     1       2.972   5.115  20.140  0.00  0.00    +0.000 C 
ATOM     29  N   UNL     1       2.730   5.860  18.896  0.00  0.00    +0.000 N 
ATOM     30  C   UNL     1       3.650   5.476  17.809  0.00  0.00    +0.000 C 
ATOM     31  C   UNL     1       3.519   3.956  17.551  0.00  0.00    +0.000 C 
ENDBRANCH   1  29
TORSDOF 3
ENDMDL
MODEL 5
REMARK VINA RESULT:      -7.5      2.364      2.925
REMARK  Name = 
REMARK  4 active torsions:
REMARK  status: ('A' for Active; 'I' for Inactive)
REMARK    1  A    between atoms: C_1  and  N_2
REMARK    2  A    between atoms: N_5  and  C_6
REMARK    3  A    between atoms: C_11  and  C_12
REMARK    4  A    between atoms: C_13  and  N_14
REMARK                            x       y       z     vdW  Elec       q    Type
REMARK                         _______ _______ _______ _____ _____    ______ ____
ROOT
ATOM      1  C   UNL     1       0.354  11.660  20.112  0.00  0.00    +0.000 A 
ATOM      2  C   UNL     1       0.285  11.141  21.416  0.00  0.00    +0.000 A 
ATOM      3  C   UNL     1       0.686   9.831  21.726  0.00  0.00    +0.000 A 
ATOM      4  C   UNL     1       1.174   9.025  20.696  0.00  0.00    +0.000 A 
ATOM      5  N   UNL     1       1.635   7.736  20.737  0.00  0.00    +0.000 NA
ATOM      6  C   UNL     1       1.975   7.425  19.493  0.00  0.00    +0.000 A 
ATOM      7  N   UNL     1       1.775   8.511  18.669  0.00  0.00    +0.000 N 
ATOM      8  C   UNL     1       1.242   9.531  19.410  0.00  0.00    +0.000 A 
ATOM      9  C   UNL     1       0.842  10.828  19.083  0.00  0.00    +0.000 A 
ATOM     10  H   UNL     1       1.995   8.535  17.679  0.00  0.00    +0.000 HD
ENDROOT
BRANCH   6  11
ATOM     11  C   UNL     1       2.498   6.198  18.970  0.00  0.00    +0.000 A 
ATOM     12  C   UNL     1       2.044   5.014  19.472  0.00  0.00    +0.000 A 
ATOM     13  C   UNL     1       2.684   3.836  18.962  0.00  0.00    +0.000 A 
ATOM     14  S   UNL     1       2.336   2.243  19.487  0.00  0.00    +0.000 S 
ATOM     15  C   UNL     1       3.502   1.572  18.428  0.00  0.00    +0.000 A 
ATOM     16  C   UNL     1       4.145   2.537  17.682  0.00  0.00    +0.000 A 
ATOM     17  C   UNL     1       3.670   3.833  18.001  0.00  0.00    +0.000 A 
ATOM     18  N   UNL     1       4.085   5.028  17.462  0.00  0.00    +0.000 N 
ATOM     19  C   UNL     1       3.557   6.224  17.879  0.00  0.00    +0.000 A 
ATOM     20  O   UNL     1       3.938   7.279  17.371  0.00  0.00    +0.000 OA
ATOM     21  H   UNL     1       4.798   5.047  16.741  0.00  0.00    +0.000 HD
BRANCH  12  22
ATOM     22  N   UNL     1       1.033   4.894  20.425  0.00  0.00    +0.000 N 
ATOM     23  H   UNL     1       0.788   3.909  20.597  0.00  0.00    +0.000 HD
ATOM     24  H   UNL     1       0.226   5.476  20.229  0.00  0.00    +0.000 HD
ENDBRANCH  12  22
ENDBRANCH   6  11
BRANCH   1  29
ATOM     25  C   UNL     1      -0.411  17.172  19.490  0.00  0.00    +0.000 C 
ATOM     26  N   UNL     1      -0.559  15.751  19.189  0.00  0.00    +0.000 NA
ATOM     27  C   UNL     1      -1.187  15.045  20.331  0.00  0.00    +0.000 C 
ATOM     28  C   UNL     1      -1.302  13.519  20.105  0.00  0.00    +0.000 C 
ATOM     29  N   UNL     1       0.034  12.977  19.818  0.00  0.00    +0.000 N 
ATOM     30  C   UNL     1       0.675  13.618  18.654  0.00  0.00    +0.000 C 
ATOM     31  C   UNL     1       0.763  15.142  18.903  0.00  0.00    +0.000 C 
ENDBRANCH   1  29
TORSDOF 3
ENDMDL
MODEL 6
REMARK VINA RESULT:      -7.5      3.249      9.574
REMARK  Name = 
REMARK  4 active torsions:
REMARK  status: ('A' for Active; 'I' for Inactive)
REMARK    1  A    between atoms: C_1  and  N_2
REMARK    2  A    between atoms: N_5  and  C_6
REMARK    3  A    between atoms: C_11  and  C_12
REMARK    4  A    between atoms: C_13  and  N_14
REMARK                            x       y       z     vdW  Elec       q    Type
REMARK                         _______ _______ _______ _____ _____    ______ ____
ROOT
ATOM      1  C   UNL     1       2.264   7.288  18.852  0.00  0.00    +0.000 A 
ATOM      2  C   UNL     1       2.501   8.249  17.855  0.00  0.00    +0.000 A 
ATOM      3  C   UNL     1       1.959   9.542  17.912  0.00  0.00    +0.000 A 
ATOM      4  C   UNL     1       1.160   9.880  19.007  0.00  0.00    +0.000 A 
ATOM      5  N   UNL     1       0.533  11.061  19.302  0.00  0.00    +0.000 NA
ATOM      6  C   UNL     1      -0.105  10.864  20.447  0.00  0.00    +0.000 A 
ATOM      7  N   UNL     1       0.140   9.587  20.906  0.00  0.00    +0.000 N 
ATOM      8  C   UNL     1       0.922   8.936  19.991  0.00  0.00    +0.000 A 
ATOM      9  C   UNL     1       1.448   7.644  19.946  0.00  0.00    +0.000 A 
ATOM     10  H   UNL     1      -0.207   9.210  21.780  0.00  0.00    +0.000 HD
ENDROOT
BRANCH   6  11
ATOM     11  C   UNL     1      -0.931  11.763  21.199  0.00  0.00    +0.000 A 
ATOM     12  C   UNL     1      -1.699  12.672  20.533  0.00  0.00    +0.000 A 
ATOM     13  C   UNL     1      -2.423  13.596  21.358  0.00  0.00    +0.000 A 
ATOM     14  S   UNL     1      -3.400  14.868  20.757  0.00  0.00    +0.000 S 
ATOM     15  C   UNL     1      -3.796  15.396  22.337  0.00  0.00    +0.000 A 
ATOM     16  C   UNL     1      -3.203  14.619  23.309  0.00  0.00    +0.000 A 
ATOM     17  C   UNL     1      -2.414  13.592  22.735  0.00  0.00    +0.000 A 
ATOM     18  N   UNL     1      -1.677  12.638  23.398  0.00  0.00    +0.000 N 
ATOM     19  C   UNL     1      -0.932  11.708  22.718  0.00  0.00    +0.000 A 
ATOM     20  O   UNL     1      -0.291  10.858  23.336  0.00  0.00    +0.000 OA
ATOM     21  H   UNL     1      -1.670  12.607  24.411  0.00  0.00    +0.000 HD
BRANCH  12  22
ATOM     22  N   UNL     1      -1.808  12.752  19.146  0.00  0.00    +0.000 N 
ATOM     23  H   UNL     1      -1.792  13.728  18.820  0.00  0.00    +0.000 HD
ATOM     24  H   UNL     1      -2.588  12.222  18.774  0.00  0.00    +0.000 HD
ENDBRANCH  12  22
ENDBRANCH   6  11
BRANCH   1  29
ATOM     25  C   UNL     1       4.445   2.178  19.551  0.00  0.00    +0.000 C 
ATOM     26  N   UNL     1       4.049   3.385  18.831  0.00  0.00    +0.000 NA
ATOM     27  C   UNL     1       4.754   4.568  19.379  0.00  0.00    +0.000 C 
ATOM     28  C   UNL     1       4.320   5.892  18.708  0.00  0.00    +0.000 C 
ATOM     29  N   UNL     1       2.863   6.037  18.838  0.00  0.00    +0.000 N 
ATOM     30  C   UNL     1       2.120   4.903  18.256  0.00  0.00    +0.000 C 
ATOM     31  C   UNL     1       2.585   3.594  18.936  0.00  0.00    +0.000 C 
ENDBRANCH   1  29
TORSDOF 3
ENDMDL
MODEL 7
REMARK VINA RESULT:      -7.3      3.300      9.549
REMARK  Name = 
REMARK  4 active torsions:
REMARK  status: ('A' for Active; 'I' for Inactive)
REMARK    1  A    between atoms: C_1  and  N_2
REMARK    2  A    between atoms: N_5  and  C_6
REMARK    3  A    between atoms: C_11  and  C_12
REMARK    4  A    between atoms: C_13  and  N_14
REMARK                            x       y       z     vdW  Elec       q    Type
REMARK                         _______ _______ _______ _____ _____    ______ ____
ROOT
ATOM      1  C   UNL     1       2.223   7.113  19.345  0.00  0.00    +0.000 A 
ATOM      2  C   UNL     1       2.368   7.875  18.174  0.00  0.00    +0.000 A 
ATOM      3  C   UNL     1       1.858   9.177  18.056  0.00  0.00    +0.000 A 
ATOM      4  C   UNL     1       1.189   9.731  19.149  0.00  0.00    +0.000 A 
ATOM      5  N   UNL     1       0.619  10.968  19.292  0.00  0.00    +0.000 NA
ATOM      6  C   UNL     1       0.105  10.998  20.514  0.00  0.00    +0.000 A 
ATOM      7  N   UNL     1       0.375   9.813  21.165  0.00  0.00    +0.000 N 
ATOM      8  C   UNL     1       1.042   8.984  20.305  0.00  0.00    +0.000 A 
ATOM      9  C   UNL     1       1.537   7.685  20.437  0.00  0.00    +0.000 A 
ATOM     10  H   UNL     1       0.118   9.608  22.124  0.00  0.00    +0.000 HD
ENDROOT
BRANCH   6  11
ATOM     11  C   UNL     1      -0.618  12.045  21.175  0.00  0.00    +0.000 A 
ATOM     12  C   UNL     1      -1.076  13.100  20.442  0.00  0.00    +0.000 A 
ATOM     13  C   UNL     1      -1.706  14.149  21.190  0.00  0.00    +0.000 A 
ATOM     14  S   UNL     1      -2.299  15.603  20.505  0.00  0.00    +0.000 S 
ATOM     15  C   UNL     1      -2.806  16.190  22.032  0.00  0.00    +0.000 A 
ATOM     16  C   UNL     1      -2.536  15.298  23.049  0.00  0.00    +0.000 A 
ATOM     17  C   UNL     1      -1.901  14.132  22.553  0.00  0.00    +0.000 A 
ATOM     18  N   UNL     1      -1.483  13.040  23.277  0.00  0.00    +0.000 N 
ATOM     19  C   UNL     1      -0.854  11.979  22.675  0.00  0.00    +0.000 A 
ATOM     20  O   UNL     1      -0.501  11.009  23.345  0.00  0.00    +0.000 OA
ATOM     21  H   UNL     1      -1.632  13.000  24.279  0.00  0.00    +0.000 HD
BRANCH  12  22
ATOM     22  N   UNL     1      -0.960  13.212  19.057  0.00  0.00    +0.000 N 
ATOM     23  H   UNL     1      -1.851  13.489  18.623  0.00  0.00    +0.000 HD
ATOM     24  H   UNL     1      -0.544  12.395  18.623  0.00  0.00    +0.000 HD
ENDBRANCH  12  22
ENDBRANCH   6  11
BRANCH   1  29
ATOM     25  C   UNL     1       4.144   1.854  19.271  0.00  0.00    +0.000 C 
ATOM     26  N   UNL     1       4.022   3.235  19.728  0.00  0.00    +0.000 NA
ATOM     27  C   UNL     1       2.638   3.507  20.184  0.00  0.00    +0.000 C 
ATOM     28  C   UNL     1       2.423   4.978  20.610  0.00  0.00    +0.000 C 
ATOM     29  N   UNL     1       2.795   5.858  19.492  0.00  0.00    +0.000 N 
ATOM     30  C   UNL     1       4.184   5.656  19.041  0.00  0.00    +0.000 C 
ATOM     31  C   UNL     1       4.372   4.175  18.635  0.00  0.00    +0.000 C 
ENDBRANCH   1  29
TORSDOF 3
ENDMDL
MODEL 8
REMARK VINA RESULT:      -7.3      2.184      2.577
REMARK  Name = 
REMARK  4 active torsions:
REMARK  status: ('A' for Active; 'I' for Inactive)
REMARK    1  A    between atoms: C_1  and  N_2
REMARK    2  A    between atoms: N_5  and  C_6
REMARK    3  A    between atoms: C_11  and  C_12
REMARK    4  A    between atoms: C_13  and  N_14
REMARK                            x       y       z     vdW  Elec       q    Type
REMARK                         _______ _______ _______ _____ _____    ______ ____
ROOT
ATOM      1  C   UNL     1       0.348  11.606  20.596  0.00  0.00    +0.000 A 
ATOM      2  C   UNL     1       0.188  10.975  21.841  0.00  0.00    +0.000 A 
ATOM      3  C   UNL     1       0.540   9.633  22.053  0.00  0.00    +0.000 A 
ATOM      4  C   UNL     1       1.073   8.908  20.986  0.00  0.00    +0.000 A 
ATOM      5  N   UNL     1       1.503   7.609  20.936  0.00  0.00    +0.000 NA
ATOM      6  C   UNL     1       1.911   7.401  19.692  0.00  0.00    +0.000 A 
ATOM      7  N   UNL     1       1.786   8.562  18.959  0.00  0.00    +0.000 N 
ATOM      8  C   UNL     1       1.231   9.526  19.757  0.00  0.00    +0.000 A 
ATOM      9  C   UNL     1       0.880  10.857  19.526  0.00  0.00    +0.000 A 
ATOM     10  H   UNL     1       2.067   8.668  17.991  0.00  0.00    +0.000 HD
ENDROOT
BRANCH   6  11
ATOM     11  C   UNL     1       2.439   6.212  19.090  0.00  0.00    +0.000 A 
ATOM     12  C   UNL     1       1.977   4.997  19.506  0.00  0.00    +0.000 A 
ATOM     13  C   UNL     1       2.622   3.856  18.923  0.00  0.00    +0.000 A 
ATOM     14  S   UNL     1       2.266   2.231  19.332  0.00  0.00    +0.000 S 
ATOM     15  C   UNL     1       3.443   1.632  18.243  0.00  0.00    +0.000 A 
ATOM     16  C   UNL     1       4.096   2.645  17.572  0.00  0.00    +0.000 A 
ATOM     17  C   UNL     1       3.618   3.917  17.974  0.00  0.00    +0.000 A 
ATOM     18  N   UNL     1       4.041   5.146  17.523  0.00  0.00    +0.000 N 
ATOM     19  C   UNL     1       3.509   6.311  18.016  0.00  0.00    +0.000 A 
ATOM     20  O   UNL     1       3.897   7.398  17.586  0.00  0.00    +0.000 OA
ATOM     21  H   UNL     1       4.761   5.213  16.814  0.00  0.00    +0.000 HD
BRANCH  12  22
ATOM     22  N   UNL     1       0.956   4.815  20.437  0.00  0.00    +0.000 N 
ATOM     23  H   UNL     1       1.111   3.973  21.009  0.00  0.00    +0.000 HD
ATOM     24  H   UNL     1       0.029   4.852  20.028  0.00  0.00    +0.000 HD
ENDBRANCH  12  22
ENDBRANCH   6  11
BRANCH   1  29
ATOM     25  C   UNL     1      -1.432  16.800  19.493  0.00  0.00    +0.000 C 
ATOM     26  N   UNL     1      -0.562  15.765  20.043  0.00  0.00    +0.000 NA
ATOM     27  C   UNL     1       0.002  14.933  18.954  0.00  0.00    +0.000 C 
ATOM     28  C   UNL     1       0.874  13.767  19.476  0.00  0.00    +0.000 C 
ATOM     29  N   UNL     1       0.076  12.953  20.405  0.00  0.00    +0.000 N 
ATOM     30  C   UNL     1      -0.462  13.734  21.535  0.00  0.00    +0.000 C 
ATOM     31  C   UNL     1      -1.316  14.898  20.981  0.00  0.00    +0.000 C 
ENDBRANCH   1  29
TORSDOF 3
ENDMDL
MODEL 9
REMARK VINA RESULT:      -7.3      2.881      9.537
REMARK  Name = 
REMARK  4 active torsions:
REMARK  status: ('A' for Active; 'I' for Inactive)
REMARK    1  A    between atoms: C_1  and  N_2
REMARK    2  A    between atoms: N_5  and  C_6
REMARK    3  A    between atoms: C_11  and  C_12
REMARK    4  A    between atoms: C_13  and  N_14
REMARK                            x       y       z     vdW  Elec       q    Type
REMARK                         _______ _______ _______ _____ _____    ______ ____
ROOT
ATOM      1  C   UNL     1       3.529   6.050  18.517  0.00  0.00    +0.000 A 
ATOM      2  C   UNL     1       3.087   5.222  19.562  0.00  0.00    +0.000 A 
ATOM      3  C   UNL     1       2.167   5.657  20.529  0.00  0.00    +0.000 A 
ATOM      4  C   UNL     1       1.674   6.960  20.438  0.00  0.00    +0.000 A 
ATOM      5  N   UNL     1       0.772   7.613  21.234  0.00  0.00    +0.000 NA
ATOM      6  C   UNL     1       0.648   8.833  20.730  0.00  0.00    +0.000 A 
ATOM      7  N   UNL     1       1.427   8.953  19.600  0.00  0.00    +0.000 N 
ATOM      8  C   UNL     1       2.108   7.780  19.411  0.00  0.00    +0.000 A 
ATOM      9  C   UNL     1       3.027   7.366  18.445  0.00  0.00    +0.000 A 
ATOM     10  H   UNL     1       1.475   9.779  19.014  0.00  0.00    +0.000 HD
ENDROOT
BRANCH   6  11
ATOM     11  C   UNL     1      -0.153   9.931  21.184  0.00  0.00    +0.000 A 
ATOM     12  C   UNL     1      -0.915  10.614  20.282  0.00  0.00    +0.000 A 
ATOM     13  C   UNL     1      -1.614  11.756  20.797  0.00  0.00    +0.000 A 
ATOM     14  S   UNL     1      -2.577  12.809  19.850  0.00  0.00    +0.000 S 
ATOM     15  C   UNL     1      -2.945  13.792  21.202  0.00  0.00    +0.000 A 
ATOM     16  C   UNL     1      -2.353  13.331  22.358  0.00  0.00    +0.000 A 
ATOM     17  C   UNL     1      -1.587  12.164  22.112  0.00  0.00    +0.000 A 
ATOM     18  N   UNL     1      -0.858  11.439  23.025  0.00  0.00    +0.000 N 
ATOM     19  C   UNL     1      -0.136  10.334  22.650  0.00  0.00    +0.000 A 
ATOM     20  O   UNL     1       0.499   9.695  23.489  0.00  0.00    +0.000 OA
ATOM     21  H   UNL     1      -0.839  11.712  24.001  0.00  0.00    +0.000 HD
BRANCH  12  22
ATOM     22  N   UNL     1      -1.040  10.277  18.935  0.00  0.00    +0.000 N 
ATOM     23  H   UNL     1      -0.890  11.092  18.325  0.00  0.00    +0.000 HD
ATOM     24  H   UNL     1      -1.897   9.776  18.725  0.00  0.00    +0.000 HD
ENDBRANCH  12  22
ENDBRANCH   6  11
BRANCH   1  29
ATOM     25  C   UNL     1       6.289   4.135  14.036  0.00  0.00    +0.000 C 
ATOM     26  N   UNL     1       6.120   4.704  15.370  0.00  0.00    +0.000 NA
ATOM     27  C   UNL     1       5.391   3.756  16.246  0.00  0.00    +0.000 C 
ATOM     28  C   UNL     1       5.111   4.332  17.655  0.00  0.00    +0.000 C 
ATOM     29  N   UNL     1       4.376   5.597  17.516  0.00  0.00    +0.000 N 
ATOM     30  C   UNL     1       5.093   6.589  16.693  0.00  0.00    +0.000 C 
ATOM     31  C   UNL     1       5.370   5.981  15.298  0.00  0.00    +0.000 C 
ENDBRANCH   1  29
TORSDOF 3
ENDMDL
