MODEL 1
REMARK VINA RESULT:      -9.2      0.000      0.000
REMARK  Name = 
REMARK  5 active torsions:
REMARK  status: ('A' for Active; 'I' for Inactive)
REMARK    1  A    between atoms: C_2  and  C_5
REMARK    2  A    between atoms: N_3  and  O_4
REMARK    3  A    between atoms: C_6  and  C_7
REMARK    4  A    between atoms: C_13  and  C_14
REMARK    5  A    between atoms: C_20  and  C_21
REMARK                            x       y       z     vdW  Elec       q    Type
REMARK                         _______ _______ _______ _____ _____    ______ ____
ROOT
ATOM      1  C   UNL     1       2.277   5.152  18.392  0.00  0.00    +0.000 C 
ATOM      2  C   UNL     1       3.374   5.884  17.652  0.00  0.00    +0.000 C 
ATOM      3  C   UNL     1       2.931   6.354  19.043  0.00  0.00    +0.000 C 
ENDROOT
BRANCH   3   4
ATOM      4  C   UNL     1       2.219   7.693  19.119  0.00  0.00    +0.000 A 
ATOM      5  C   UNL     1       2.173   8.518  17.989  0.00  0.00    +0.000 A 
ATOM      6  C   UNL     1       1.417   9.689  17.982  0.00  0.00    +0.000 A 
ATOM      7  C   UNL     1       0.698  10.081  19.096  0.00  0.00    +0.000 A 
ATOM      8  N   UNL     1      -0.088  11.167  18.998  0.00  0.00    +0.000 NA
ATOM      9  C   UNL     1      -0.756  11.534  20.113  0.00  0.00    +0.000 A 
ATOM     10  C   UNL     1      -0.625  10.868  21.318  0.00  0.00    +0.000 A 
ATOM     11  N   UNL     1       0.155   9.742  21.411  0.00  0.00    +0.000 NA
ATOM     12  C   UNL     1       0.800   9.333  20.291  0.00  0.00    +0.000 A 
ATOM     13  C   UNL     1       1.564   8.159  20.276  0.00  0.00    +0.000 A 
BRANCH  10  14
ATOM     14  C   UNL     1      -1.316  11.453  22.532  0.00  0.00    +0.000 C 
ATOM     15  F   UNL     1      -0.646  12.518  23.067  0.00  0.00    +0.000 F 
ATOM     16  F   UNL     1      -2.575  11.915  22.281  0.00  0.00    +0.000 F 
ATOM     17  F   UNL     1      -1.437  10.560  23.554  0.00  0.00    +0.000 F 
ENDBRANCH  10  14
ENDBRANCH   3   4
BRANCH   2  18
ATOM     18  C   UNL     1       4.776   5.353  17.445  0.00  0.00    +0.000 A 
ATOM     19  C   UNL     1       5.174   4.745  16.246  0.00  0.00    +0.000 A 
ATOM     20  C   UNL     1       6.493   4.316  16.036  0.00  0.00    +0.000 A 
ATOM     21  C   UNL     1       7.449   4.503  17.033  0.00  0.00    +0.000 A 
ATOM     22  C   UNL     1       7.088   5.112  18.227  0.00  0.00    +0.000 A 
ATOM     23  C   UNL     1       5.769   5.532  18.428  0.00  0.00    +0.000 A 
ENDBRANCH   2  18
BRANCH   1  25
ATOM     24  O   UNL     1       3.029   3.580  20.018  0.00  0.00    +0.000 OA
ATOM     25  C   UNL     1       2.486   3.788  18.938  0.00  0.00    +0.000 C 
ATOM     26  N   UNL     1       2.026   2.778  18.134  0.00  0.00    +0.000 N 
ATOM     27  H   UNL     1       1.498   2.899  17.278  0.00  0.00    +0.000 HD
BRANCH  26  28
ATOM     28  O   UNL     1       2.213   1.459  18.599  0.00  0.00    +0.000 OA
ATOM     29  H   UNL     1       2.392   0.968  17.767  0.00  0.00    +0.000 HD
ENDBRANCH  26  28
ENDBRANCH   1  25
TORSDOF 5
ENDMDL
MODEL 2
REMARK VINA RESULT:      -9.1      0.183      1.188
REMARK  Name = 
REMARK  5 active torsions:
REMARK  status: ('A' for Active; 'I' for Inactive)
REMARK    1  A    between atoms: C_2  and  C_5
REMARK    2  A    between atoms: N_3  and  O_4
REMARK    3  A    between atoms: C_6  and  C_7
REMARK    4  A    between atoms: C_13  and  C_14
REMARK    5  A    between atoms: C_20  and  C_21
REMARK                            x       y       z     vdW  Elec       q    Type
REMARK                         _______ _______ _______ _____ _____    ______ ____
ROOT
ATOM      1  C   UNL     1       2.391   5.233  18.246  0.00  0.00    +0.000 C 
ATOM      2  C   UNL     1       3.497   6.022  17.581  0.00  0.00    +0.000 C 
ATOM      3  C   UNL     1       2.979   6.429  18.966  0.00  0.00    +0.000 C 
ENDROOT
BRANCH   3   4
ATOM      4  C   UNL     1       2.224   7.744  19.056  0.00  0.00    +0.000 A 
ATOM      5  C   UNL     1       2.105   8.554  17.920  0.00  0.00    +0.000 A 
ATOM      6  C   UNL     1       1.309   9.697  17.930  0.00  0.00    +0.000 A 
ATOM      7  C   UNL     1       0.621  10.078  19.067  0.00  0.00    +0.000 A 
ATOM      8  N   UNL     1      -0.205  11.135  18.989  0.00  0.00    +0.000 NA
ATOM      9  C   UNL     1      -0.842  11.492  20.124  0.00  0.00    +0.000 A 
ATOM     10  C   UNL     1      -0.641  10.845  21.330  0.00  0.00    +0.000 A 
ATOM     11  N   UNL     1       0.180   9.748  21.405  0.00  0.00    +0.000 NA
ATOM     12  C   UNL     1       0.796   9.348  20.265  0.00  0.00    +0.000 A 
ATOM     13  C   UNL     1       1.598   8.201  20.232  0.00  0.00    +0.000 A 
BRANCH  10  14
ATOM     14  C   UNL     1      -1.305  11.421  22.564  0.00  0.00    +0.000 C 
ATOM     15  F   UNL     1      -2.570  11.883  22.324  0.00  0.00    +0.000 F 
ATOM     16  F   UNL     1      -1.441  10.527  23.586  0.00  0.00    +0.000 F 
ATOM     17  F   UNL     1      -0.630  12.486  23.080  0.00  0.00    +0.000 F 
ENDBRANCH  10  14
ENDBRANCH   3   4
BRANCH   2  18
ATOM     18  C   UNL     1       4.922   5.540  17.420  0.00  0.00    +0.000 A 
ATOM     19  C   UNL     1       5.877   5.681  18.438  0.00  0.00    +0.000 A 
ATOM     20  C   UNL     1       7.177   5.171  18.308  0.00  0.00    +0.000 A 
ATOM     21  C   UNL     1       7.543   4.493  17.146  0.00  0.00    +0.000 A 
ATOM     22  C   UNL     1       6.617   4.329  16.125  0.00  0.00    +0.000 A 
ATOM     23  C   UNL     1       5.324   4.844  16.263  0.00  0.00    +0.000 A 
ENDBRANCH   2  18
BRANCH   1  25
ATOM     24  O   UNL     1       2.998   3.624  19.896  0.00  0.00    +0.000 OA
ATOM     25  C   UNL     1       2.617   3.858  18.753  0.00  0.00    +0.000 C 
ATOM     26  N   UNL     1       2.369   2.867  17.839  0.00  0.00    +0.000 N 
ATOM     27  H   UNL     1       1.975   3.001  16.916  0.00  0.00    +0.000 HD
BRANCH  26  28
ATOM     28  O   UNL     1       2.583   1.539  18.265  0.00  0.00    +0.000 OA
ATOM     29  H   UNL     1       3.506   1.372  17.972  0.00  0.00    +0.000 HD
ENDBRANCH  26  28
ENDBRANCH   1  25
TORSDOF 5
ENDMDL
MODEL 3
REMARK VINA RESULT:      -8.9      0.825      1.235
REMARK  Name = 
REMARK  5 active torsions:
REMARK  status: ('A' for Active; 'I' for Inactive)
REMARK    1  A    between atoms: C_2  and  C_5
REMARK    2  A    between atoms: N_3  and  O_4
REMARK    3  A    between atoms: C_6  and  C_7
REMARK    4  A    between atoms: C_13  and  C_14
REMARK    5  A    between atoms: C_20  and  C_21
REMARK                            x       y       z     vdW  Elec       q    Type
REMARK                         _______ _______ _______ _____ _____    ______ ____
ROOT
ATOM      1  C   UNL     1       2.272   5.070  19.030  0.00  0.00    +0.000 C 
ATOM      2  C   UNL     1       3.215   5.715  18.038  0.00  0.00    +0.000 C 
ATOM      3  C   UNL     1       2.934   6.385  19.389  0.00  0.00    +0.000 C 
ENDROOT
BRANCH   3   4
ATOM      4  C   UNL     1       2.159   7.691  19.359  0.00  0.00    +0.000 A 
ATOM      5  C   UNL     1       2.040   8.397  18.156  0.00  0.00    +0.000 A 
ATOM      6  C   UNL     1       1.228   9.526  18.060  0.00  0.00    +0.000 A 
ATOM      7  C   UNL     1       0.523   9.993  19.154  0.00  0.00    +0.000 A 
ATOM      8  N   UNL     1      -0.317  11.026  18.978  0.00  0.00    +0.000 NA
ATOM      9  C   UNL     1      -0.970  11.470  20.073  0.00  0.00    +0.000 A 
ATOM     10  C   UNL     1      -0.772  10.933  21.332  0.00  0.00    +0.000 A 
ATOM     11  N   UNL     1       0.064   9.860  21.508  0.00  0.00    +0.000 NA
ATOM     12  C   UNL     1       0.697   9.372  20.412  0.00  0.00    +0.000 A 
ATOM     13  C   UNL     1       1.516   8.238  20.486  0.00  0.00    +0.000 A 
BRANCH  10  14
ATOM     14  C   UNL     1      -1.456  11.604  22.506  0.00  0.00    +0.000 C 
ATOM     15  F   UNL     1      -1.687  10.749  23.548  0.00  0.00    +0.000 F 
ATOM     16  F   UNL     1      -0.745  12.637  23.043  0.00  0.00    +0.000 F 
ATOM     17  F   UNL     1      -2.679  12.112  22.186  0.00  0.00    +0.000 F 
ENDBRANCH  10  14
ENDBRANCH   3   4
BRANCH   2  18
ATOM     18  C   UNL     1       4.606   5.212  17.720  0.00  0.00    +0.000 A 
ATOM     19  C   UNL     1       4.891   4.496  16.549  0.00  0.00    +0.000 A 
ATOM     20  C   UNL     1       6.195   4.091  16.227  0.00  0.00    +0.000 A 
ATOM     21  C   UNL     1       7.250   4.412  17.080  0.00  0.00    +0.000 A 
ATOM     22  C   UNL     1       7.001   5.130  18.242  0.00  0.00    +0.000 A 
ATOM     23  C   UNL     1       5.697   5.525  18.555  0.00  0.00    +0.000 A 
ENDBRANCH   2  18
BRANCH   1  25
ATOM     24  O   UNL     1       3.029   2.814  19.164  0.00  0.00    +0.000 OA
ATOM     25  C   UNL     1       2.633   3.821  19.743  0.00  0.00    +0.000 C 
ATOM     26  N   UNL     1       2.484   3.880  21.104  0.00  0.00    +0.000 N 
ATOM     27  H   UNL     1       2.243   4.708  21.636  0.00  0.00    +0.000 HD
BRANCH  26  28
ATOM     28  O   UNL     1       2.800   2.713  21.832  0.00  0.00    +0.000 OA
ATOM     29  H   UNL     1       2.313   2.854  22.673  0.00  0.00    +0.000 HD
ENDBRANCH  26  28
ENDBRANCH   1  25
TORSDOF 5
ENDMDL
MODEL 4
REMARK VINA RESULT:      -8.8      0.616      1.421
REMARK  Name = 
REMARK  5 active torsions:
REMARK  status: ('A' for Active; 'I' for Inactive)
REMARK    1  A    between atoms: C_2  and  C_5
REMARK    2  A    between atoms: N_3  and  O_4
REMARK    3  A    between atoms: C_6  and  C_7
REMARK    4  A    between atoms: C_13  and  C_14
REMARK    5  A    between atoms: C_20  and  C_21
REMARK                            x       y       z     vdW  Elec       q    Type
REMARK                         _______ _______ _______ _____ _____    ______ ____
ROOT
ATOM      1  C   UNL     1       2.378   5.252  18.224  0.00  0.00    +0.000 C 
ATOM      2  C   UNL     1       3.466   6.037  17.524  0.00  0.00    +0.000 C 
ATOM      3  C   UNL     1       2.980   6.458  18.917  0.00  0.00    +0.000 C 
ENDROOT
BRANCH   3   4
ATOM      4  C   UNL     1       2.223   7.772  19.010  0.00  0.00    +0.000 A 
ATOM      5  C   UNL     1       2.093   8.578  17.874  0.00  0.00    +0.000 A 
ATOM      6  C   UNL     1       1.295   9.720  17.888  0.00  0.00    +0.000 A 
ATOM      7  C   UNL     1       0.616  10.102  19.030  0.00  0.00    +0.000 A 
ATOM      8  N   UNL     1      -0.213  11.158  18.957  0.00  0.00    +0.000 NA
ATOM      9  C   UNL     1      -0.840  11.516  20.098  0.00  0.00    +0.000 A 
ATOM     10  C   UNL     1      -0.627  10.873  21.304  0.00  0.00    +0.000 A 
ATOM     11  N   UNL     1       0.197   9.778  21.374  0.00  0.00    +0.000 NA
ATOM     12  C   UNL     1       0.803   9.376  20.229  0.00  0.00    +0.000 A 
ATOM     13  C   UNL     1       1.608   8.230  20.192  0.00  0.00    +0.000 A 
BRANCH  10  14
ATOM     14  C   UNL     1      -1.280  11.450  22.542  0.00  0.00    +0.000 C 
ATOM     15  F   UNL     1      -1.406  10.539  23.554  0.00  0.00    +0.000 F 
ATOM     16  F   UNL     1      -0.599  12.498  23.088  0.00  0.00    +0.000 F 
ATOM     17  F   UNL     1      -2.546  11.901  22.311  0.00  0.00    +0.000 F 
ENDBRANCH  10  14
ENDBRANCH   3   4
BRANCH   2  18
ATOM     18  C   UNL     1       4.888   5.556  17.335  0.00  0.00    +0.000 A 
ATOM     19  C   UNL     1       5.899   5.833  18.267  0.00  0.00    +0.000 A 
ATOM     20  C   UNL     1       7.200   5.328  18.120  0.00  0.00    +0.000 A 
ATOM     21  C   UNL     1       7.509   4.518  17.029  0.00  0.00    +0.000 A 
ATOM     22  C   UNL     1       6.526   4.217  16.095  0.00  0.00    +0.000 A 
ATOM     23  C   UNL     1       5.234   4.729  16.249  0.00  0.00    +0.000 A 
ENDBRANCH   2  18
BRANCH   1  25
ATOM     24  O   UNL     1       2.354   2.873  18.097  0.00  0.00    +0.000 OA
ATOM     25  C   UNL     1       2.620   3.883  18.740  0.00  0.00    +0.000 C 
ATOM     26  N   UNL     1       3.161   3.838  19.999  0.00  0.00    +0.000 N 
ATOM     27  H   UNL     1       3.475   4.637  20.535  0.00  0.00    +0.000 HD
BRANCH  26  28
ATOM     28  O   UNL     1       3.398   2.558  20.545  0.00  0.00    +0.000 OA
ATOM     29  H   UNL     1       2.556   2.375  21.019  0.00  0.00    +0.000 HD
ENDBRANCH  26  28
ENDBRANCH   1  25
TORSDOF 5
ENDMDL
MODEL 5
REMARK VINA RESULT:      -8.7      1.983      2.811
REMARK  Name = 
REMARK  5 active torsions:
REMARK  status: ('A' for Active; 'I' for Inactive)
REMARK    1  A    between atoms: C_2  and  C_5
REMARK    2  A    between atoms: N_3  and  O_4
REMARK    3  A    between atoms: C_6  and  C_7
REMARK    4  A    between atoms: C_13  and  C_14
REMARK    5  A    between atoms: C_20  and  C_21
REMARK                            x       y       z     vdW  Elec       q    Type
REMARK                         _______ _______ _______ _____ _____    ______ ____
ROOT
ATOM      1  C   UNL     1       3.037   4.269  18.627  0.00  0.00    +0.000 C 
ATOM      2  C   UNL     1       3.428   5.260  17.554  0.00  0.00    +0.000 C 
ATOM      3  C   UNL     1       3.504   5.651  19.035  0.00  0.00    +0.000 C 
ENDROOT
BRANCH   3   4
ATOM      4  C   UNL     1       2.521   6.705  19.516  0.00  0.00    +0.000 A 
ATOM      5  C   UNL     1       1.768   6.472  20.673  0.00  0.00    +0.000 A 
ATOM      6  C   UNL     1       0.958   7.467  21.218  0.00  0.00    +0.000 A 
ATOM      7  C   UNL     1       0.862   8.712  20.626  0.00  0.00    +0.000 A 
ATOM      8  N   UNL     1       0.141   9.661  21.248  0.00  0.00    +0.000 NA
ATOM      9  C   UNL     1       0.049  10.857  20.629  0.00  0.00    +0.000 A 
ATOM     10  C   UNL     1       0.624  11.107  19.396  0.00  0.00    +0.000 A 
ATOM     11  N   UNL     1       1.383  10.149  18.773  0.00  0.00    +0.000 NA
ATOM     12  C   UNL     1       1.522   8.955  19.400  0.00  0.00    +0.000 A 
ATOM     13  C   UNL     1       2.333   7.942  18.871  0.00  0.00    +0.000 A 
BRANCH  10  14
ATOM     14  C   UNL     1       0.338  12.441  18.737  0.00  0.00    +0.000 C 
ATOM     15  F   UNL     1      -0.735  12.399  17.890  0.00  0.00    +0.000 F 
ATOM     16  F   UNL     1       0.056  13.443  19.619  0.00  0.00    +0.000 F 
ATOM     17  F   UNL     1       1.375  12.888  17.974  0.00  0.00    +0.000 F 
ENDBRANCH  10  14
ENDBRANCH   3   4
BRANCH   2  18
ATOM     18  C   UNL     1       4.695   5.180  16.729  0.00  0.00    +0.000 A 
ATOM     19  C   UNL     1       5.829   5.950  17.028  0.00  0.00    +0.000 A 
ATOM     20  C   UNL     1       7.022   5.822  16.301  0.00  0.00    +0.000 A 
ATOM     21  C   UNL     1       7.102   4.901  15.257  0.00  0.00    +0.000 A 
ATOM     22  C   UNL     1       5.999   4.118  14.945  0.00  0.00    +0.000 A 
ATOM     23  C   UNL     1       4.813   4.256  15.673  0.00  0.00    +0.000 A 
ENDBRANCH   2  18
BRANCH   1  25
ATOM     24  O   UNL     1       4.853   3.109  19.645  0.00  0.00    +0.000 OA
ATOM     25  C   UNL     1       3.865   3.073  18.918  0.00  0.00    +0.000 C 
ATOM     26  N   UNL     1       3.439   1.924  18.305  0.00  0.00    +0.000 N 
ATOM     27  H   UNL     1       2.587   1.823  17.767  0.00  0.00    +0.000 HD
BRANCH  26  28
ATOM     28  O   UNL     1       4.200   0.758  18.537  0.00  0.00    +0.000 OA
ATOM     29  H   UNL     1       3.644   0.271  19.184  0.00  0.00    +0.000 HD
ENDBRANCH  26  28
ENDBRANCH   1  25
TORSDOF 5
ENDMDL
MODEL 6
REMARK VINA RESULT:      -8.7      2.060      2.871
REMARK  Name = 
REMARK  5 active torsions:
REMARK  status: ('A' for Active; 'I' for Inactive)
REMARK    1  A    between atoms: C_2  and  C_5
REMARK    2  A    between atoms: N_3  and  O_4
REMARK    3  A    between atoms: C_6  and  C_7
REMARK    4  A    between atoms: C_13  and  C_14
REMARK    5  A    between atoms: C_20  and  C_21
REMARK                            x       y       z     vdW  Elec       q    Type
REMARK                         _______ _______ _______ _____ _____    ______ ____
ROOT
ATOM      1  C   UNL     1       2.687   4.455  18.515  0.00  0.00    +0.000 C 
ATOM      2  C   UNL     1       3.299   5.463  17.569  0.00  0.00    +0.000 C 
ATOM      3  C   UNL     1       3.269   5.736  19.078  0.00  0.00    +0.000 C 
ENDROOT
BRANCH   3   4
ATOM      4  C   UNL     1       2.373   6.867  19.552  0.00  0.00    +0.000 A 
ATOM      5  C   UNL     1       1.651   6.725  20.743  0.00  0.00    +0.000 A 
ATOM      6  C   UNL     1       0.926   7.789  21.276  0.00  0.00    +0.000 A 
ATOM      7  C   UNL     1       0.885   9.015  20.640  0.00  0.00    +0.000 A 
ATOM      8  N   UNL     1       0.249  10.030  21.250  0.00  0.00    +0.000 NA
ATOM      9  C   UNL     1       0.209  11.206  20.588  0.00  0.00    +0.000 A 
ATOM     10  C   UNL     1       0.751  11.374  19.327  0.00  0.00    +0.000 A 
ATOM     11  N   UNL     1       1.425  10.348  18.715  0.00  0.00    +0.000 NA
ATOM     12  C   UNL     1       1.513   9.171  19.383  0.00  0.00    +0.000 A 
ATOM     13  C   UNL     1       2.238   8.090  18.866  0.00  0.00    +0.000 A 
BRANCH  10  14
ATOM     14  C   UNL     1       0.524  12.699  18.627  0.00  0.00    +0.000 C 
ATOM     15  F   UNL     1       0.361  13.741  19.497  0.00  0.00    +0.000 F 
ATOM     16  F   UNL     1       1.550  13.074  17.810  0.00  0.00    +0.000 F 
ATOM     17  F   UNL     1      -0.598  12.703  17.854  0.00  0.00    +0.000 F 
ENDBRANCH  10  14
ENDBRANCH   3   4
BRANCH   2  18
ATOM     18  C   UNL     1       4.625   5.285  16.860  0.00  0.00    +0.000 A 
ATOM     19  C   UNL     1       5.740   6.084  17.154  0.00  0.00    +0.000 A 
ATOM     20  C   UNL     1       6.985   5.869  16.542  0.00  0.00    +0.000 A 
ATOM     21  C   UNL     1       7.136   4.831  15.624  0.00  0.00    +0.000 A 
ATOM     22  C   UNL     1       6.052   4.017  15.321  0.00  0.00    +0.000 A 
ATOM     23  C   UNL     1       4.815   4.242  15.933  0.00  0.00    +0.000 A 
ENDBRANCH   2  18
BRANCH   1  25
ATOM     24  O   UNL     1       2.958   2.101  18.265  0.00  0.00    +0.000 OA
ATOM     25  C   UNL     1       3.335   3.148  18.781  0.00  0.00    +0.000 C 
ATOM     26  N   UNL     1       4.389   3.204  19.656  0.00  0.00    +0.000 N 
ATOM     27  H   UNL     1       4.791   4.049  20.042  0.00  0.00    +0.000 HD
BRANCH  26  28
ATOM     28  O   UNL     1       5.033   1.984  19.956  0.00  0.00    +0.000 OA
ATOM     29  H   UNL     1       5.622   2.238  20.701  0.00  0.00    +0.000 HD
ENDBRANCH  26  28
ENDBRANCH   1  25
TORSDOF 5
ENDMDL
MODEL 7
REMARK VINA RESULT:      -8.6      2.020      2.690
REMARK  Name = 
REMARK  5 active torsions:
REMARK  status: ('A' for Active; 'I' for Inactive)
REMARK    1  A    between atoms: C_2  and  C_5
REMARK    2  A    between atoms: N_3  and  O_4
REMARK    3  A    between atoms: C_6  and  C_7
REMARK    4  A    between atoms: C_13  and  C_14
REMARK    5  A    between atoms: C_20  and  C_21
REMARK                            x       y       z     vdW  Elec       q    Type
REMARK                         _______ _______ _______ _____ _____    ______ ____
ROOT
ATOM      1  C   UNL     1       2.100   5.239  17.929  0.00  0.00    +0.000 C 
ATOM      2  C   UNL     1       3.355   6.064  17.756  0.00  0.00    +0.000 C 
ATOM      3  C   UNL     1       2.675   5.967  19.127  0.00  0.00    +0.000 C 
ENDROOT
BRANCH   3   4
ATOM      4  C   UNL     1       2.030   7.233  19.664  0.00  0.00    +0.000 A 
ATOM      5  C   UNL     1       1.569   7.269  20.985  0.00  0.00    +0.000 A 
ATOM      6  C   UNL     1       1.096   8.452  21.551  0.00  0.00    +0.000 A 
ATOM      7  C   UNL     1       1.054   9.625  20.822  0.00  0.00    +0.000 A 
ATOM      8  N   UNL     1       0.679  10.753  21.449  0.00  0.00    +0.000 NA
ATOM      9  C   UNL     1       0.626  11.875  20.700  0.00  0.00    +0.000 A 
ATOM     10  C   UNL     1       0.900  11.883  19.344  0.00  0.00    +0.000 A 
ATOM     11  N   UNL     1       1.311  10.738  18.709  0.00  0.00    +0.000 NA
ATOM     12  C   UNL     1       1.411   9.610  19.454  0.00  0.00    +0.000 A 
ATOM     13  C   UNL     1       1.886   8.411  18.906  0.00  0.00    +0.000 A 
BRANCH  10  14
ATOM     14  C   UNL     1       0.675  13.172  18.582  0.00  0.00    +0.000 C 
ATOM     15  F   UNL     1       0.471  14.248  19.401  0.00  0.00    +0.000 F 
ATOM     16  F   UNL     1       1.718  13.529  17.778  0.00  0.00    +0.000 F 
ATOM     17  F   UNL     1      -0.424  13.126  17.777  0.00  0.00    +0.000 F 
ENDBRANCH  10  14
ENDBRANCH   3   4
BRANCH   2  18
ATOM     18  C   UNL     1       4.742   5.491  17.560  0.00  0.00    +0.000 A 
ATOM     19  C   UNL     1       5.170   4.978  16.326  0.00  0.00    +0.000 A 
ATOM     20  C   UNL     1       6.478   4.510  16.133  0.00  0.00    +0.000 A 
ATOM     21  C   UNL     1       7.394   4.561  17.182  0.00  0.00    +0.000 A 
ATOM     22  C   UNL     1       7.004   5.073  18.412  0.00  0.00    +0.000 A 
ATOM     23  C   UNL     1       5.696   5.533  18.596  0.00  0.00    +0.000 A 
ENDBRANCH   2  18
BRANCH   1  25
ATOM     24  O   UNL     1       2.230   3.145  16.799  0.00  0.00    +0.000 OA
ATOM     25  C   UNL     1       2.129   3.758  17.857  0.00  0.00    +0.000 C 
ATOM     26  N   UNL     1       2.029   3.128  19.070  0.00  0.00    +0.000 N 
ATOM     27  H   UNL     1       2.028   3.585  19.974  0.00  0.00    +0.000 HD
BRANCH  26  28
ATOM     28  O   UNL     1       2.037   1.716  19.057  0.00  0.00    +0.000 OA
ATOM     29  H   UNL     1       1.105   1.505  18.829  0.00  0.00    +0.000 HD
ENDBRANCH  26  28
ENDBRANCH   1  25
TORSDOF 5
ENDMDL
MODEL 8
REMARK VINA RESULT:      -8.6      2.417      3.234
REMARK  Name = 
REMARK  5 active torsions:
REMARK  status: ('A' for Active; 'I' for Inactive)
REMARK    1  A    between atoms: C_2  and  C_5
REMARK    2  A    between atoms: N_3  and  O_4
REMARK    3  A    between atoms: C_6  and  C_7
REMARK    4  A    between atoms: C_13  and  C_14
REMARK    5  A    between atoms: C_20  and  C_21
REMARK                            x       y       z     vdW  Elec       q    Type
REMARK                         _______ _______ _______ _____ _____    ______ ____
ROOT
ATOM      1  C   UNL     1       4.828   6.470  17.645  0.00  0.00    +0.000 C 
ATOM      2  C   UNL     1       4.080   5.641  18.665  0.00  0.00    +0.000 C 
ATOM      3  C   UNL     1       3.315   6.544  17.689  0.00  0.00    +0.000 C 
ENDROOT
BRANCH   3   4
ATOM      4  C   UNL     1       2.603   7.746  18.283  0.00  0.00    +0.000 A 
ATOM      5  C   UNL     1       2.401   8.888  17.499  0.00  0.00    +0.000 A 
ATOM      6  C   UNL     1       1.636   9.956  17.965  0.00  0.00    +0.000 A 
ATOM      7  C   UNL     1       1.062   9.928  19.222  0.00  0.00    +0.000 A 
ATOM      8  N   UNL     1       0.257  10.944  19.578  0.00  0.00    +0.000 NA
ATOM      9  C   UNL     1      -0.266  10.894  20.822  0.00  0.00    +0.000 A 
ATOM     10  C   UNL     1       0.027   9.882  21.718  0.00  0.00    +0.000 A 
ATOM     11  N   UNL     1       0.826   8.831  21.346  0.00  0.00    +0.000 NA
ATOM     12  C   UNL     1       1.327   8.841  20.086  0.00  0.00    +0.000 A 
ATOM     13  C   UNL     1       2.097   7.777  19.597  0.00  0.00    +0.000 A 
BRANCH  10  14
ATOM     14  C   UNL     1      -0.509  10.006  23.130  0.00  0.00    +0.000 C 
ATOM     15  F   UNL     1      -0.847  11.289  23.462  0.00  0.00    +0.000 F 
ATOM     16  F   UNL     1      -1.635   9.271  23.359  0.00  0.00    +0.000 F 
ATOM     17  F   UNL     1       0.395   9.621  24.075  0.00  0.00    +0.000 F 
ENDBRANCH  10  14
ENDBRANCH   3   4
BRANCH   2  18
ATOM     18  C   UNL     1       3.908   4.139  18.596  0.00  0.00    +0.000 A 
ATOM     19  C   UNL     1       4.638   3.266  19.416  0.00  0.00    +0.000 A 
ATOM     20  C   UNL     1       4.426   1.879  19.395  0.00  0.00    +0.000 A 
ATOM     21  C   UNL     1       3.458   1.340  18.549  0.00  0.00    +0.000 A 
ATOM     22  C   UNL     1       2.712   2.179  17.733  0.00  0.00    +0.000 A 
ATOM     23  C   UNL     1       2.934   3.560  17.759  0.00  0.00    +0.000 A 
ENDBRANCH   2  18
BRANCH   1  25
ATOM     24  O   UNL     1       4.950   5.114  15.688  0.00  0.00    +0.000 OA
ATOM     25  C   UNL     1       5.522   5.841  16.494  0.00  0.00    +0.000 C 
ATOM     26  N   UNL     1       6.858   6.136  16.407  0.00  0.00    +0.000 N 
ATOM     27  H   UNL     1       7.357   6.793  16.994  0.00  0.00    +0.000 HD
BRANCH  26  28
ATOM     28  O   UNL     1       7.571   5.551  15.338  0.00  0.00    +0.000 OA
ATOM     29  H   UNL     1       8.500   5.790  15.552  0.00  0.00    +0.000 HD
ENDBRANCH  26  28
ENDBRANCH   1  25
TORSDOF 5
ENDMDL
MODEL 9
REMARK VINA RESULT:      -8.5      2.136      2.847
REMARK  Name = 
REMARK  5 active torsions:
REMARK  status: ('A' for Active; 'I' for Inactive)
REMARK    1  A    between atoms: C_2  and  C_5
REMARK    2  A    between atoms: N_3  and  O_4
REMARK    3  A    between atoms: C_6  and  C_7
REMARK    4  A    between atoms: C_13  and  C_14
REMARK    5  A    between atoms: C_20  and  C_21
REMARK                            x       y       z     vdW  Elec       q    Type
REMARK                         _______ _______ _______ _____ _____    ______ ____
ROOT
ATOM      1  C   UNL     1       3.344   4.600  19.161  0.00  0.00    +0.000 C 
ATOM      2  C   UNL     1       3.245   5.265  17.806  0.00  0.00    +0.000 C 
ATOM      3  C   UNL     1       3.542   6.099  19.059  0.00  0.00    +0.000 C 
ENDROOT
BRANCH   3   4
ATOM      4  C   UNL     1       2.462   7.069  19.508  0.00  0.00    +0.000 A 
ATOM      5  C   UNL     1       1.721   6.793  20.663  0.00  0.00    +0.000 A 
ATOM      6  C   UNL     1       0.818   7.721  21.178  0.00  0.00    +0.000 A 
ATOM      7  C   UNL     1       0.615   8.939  20.557  0.00  0.00    +0.000 A 
ATOM      8  N   UNL     1      -0.196   9.831  21.152  0.00  0.00    +0.000 NA
ATOM      9  C   UNL     1      -0.390  11.000  20.505  0.00  0.00    +0.000 A 
ATOM     10  C   UNL     1       0.173  11.276  19.272  0.00  0.00    +0.000 A 
ATOM     11  N   UNL     1       1.023  10.378  18.677  0.00  0.00    +0.000 NA
ATOM     12  C   UNL     1       1.264   9.215  19.332  0.00  0.00    +0.000 A 
ATOM     13  C   UNL     1       2.169   8.270  18.833  0.00  0.00    +0.000 A 
BRANCH  10  14
ATOM     14  C   UNL     1      -0.227  12.563  18.581  0.00  0.00    +0.000 C 
ATOM     15  F   UNL     1       0.826  13.195  17.978  0.00  0.00    +0.000 F 
ATOM     16  F   UNL     1      -1.154  12.396  17.595  0.00  0.00    +0.000 F 
ATOM     17  F   UNL     1      -0.749  13.485  19.439  0.00  0.00    +0.000 F 
ENDBRANCH  10  14
ENDBRANCH   3   4
BRANCH   2  18
ATOM     18  C   UNL     1       4.285   5.150  16.713  0.00  0.00    +0.000 A 
ATOM     19  C   UNL     1       5.015   6.258  16.258  0.00  0.00    +0.000 A 
ATOM     20  C   UNL     1       6.024   6.133  15.291  0.00  0.00    +0.000 A 
ATOM     21  C   UNL     1       6.330   4.878  14.767  0.00  0.00    +0.000 A 
ATOM     22  C   UNL     1       5.632   3.760  15.206  0.00  0.00    +0.000 A 
ATOM     23  C   UNL     1       4.624   3.896  16.166  0.00  0.00    +0.000 A 
ENDBRANCH   2  18
BRANCH   1  25
ATOM     24  O   UNL     1       5.647   4.083  19.491  0.00  0.00    +0.000 OA
ATOM     25  C   UNL     1       4.479   3.709  19.507  0.00  0.00    +0.000 C 
ATOM     26  N   UNL     1       4.115   2.431  19.841  0.00  0.00    +0.000 N 
ATOM     27  H   UNL     1       3.166   2.096  19.950  0.00  0.00    +0.000 HD
BRANCH  26  28
ATOM     28  O   UNL     1       5.158   1.536  20.164  0.00  0.00    +0.000 OA
ATOM     29  H   UNL     1       4.685   0.840  20.672  0.00  0.00    +0.000 HD
ENDBRANCH  26  28
ENDBRANCH   1  25
TORSDOF 5
ENDMDL
