MODEL 1
REMARK VINA RESULT:      -8.5      0.000      0.000
REMARK  Name = 
REMARK  13 active torsions:
REMARK  status: ('A' for Active; 'I' for Inactive)
REMARK    1  A    between atoms: CE_1  and  SD_2
REMARK    2  A    between atoms: SD_2  and  CG_3
REMARK    3  A    between atoms: CG_3  and  CB_4
REMARK    4  A    between atoms: CB_4  and  CA_5
REMARK    5  A    between atoms: CA_5  and  N_6
REMARK    6  A    between atoms: CA_5  and  C_32
REMARK    7  A    between atoms: C_7  and  C_9
REMARK    8  A    between atoms: C_12  and  N_13
REMARK    9  A    between atoms: C_14  and  C_16
REMARK   10  A    between atoms: C_16  and  C_17
REMARK   11  A    between atoms: C_24  and  C_25
REMARK   12  A    between atoms: C_30  and  C_31
REMARK   13  A    between atoms: C_32  and  OXT_34
REMARK                            x       y       z     vdW  Elec       q    Type
REMARK                         _______ _______ _______ _____ _____    ______ ____
ROOT
ATOM      1  C   UNK A   0       3.435   6.357  18.246  0.00  0.00    +0.000 A 
ATOM      2  C   UNK A   0       3.617   7.644  17.693  0.00  0.00    +0.000 A 
ATOM      3  C   UNK A   0       2.786   8.711  18.036  0.00  0.00    +0.000 A 
ATOM      4  C   UNK A   0       1.772   8.529  18.961  0.00  0.00    +0.000 A 
ATOM      5  C   UNK A   0       1.638   7.274  19.560  0.00  0.00    +0.000 A 
ATOM      6  C   UNK A   0       2.405   6.130  19.204  0.00  0.00    +0.000 A 
ENDROOT
BRANCH   6   7
ATOM      7  C   UNK A   0       2.109   4.826  19.903  0.00  0.00    +0.000 A 
ATOM      8  C   UNK A   0       2.433   4.675  21.271  0.00  0.00    +0.000 A 
ATOM      9  C   UNK A   0       2.206   3.492  21.983  0.00  0.00    +0.000 A 
ATOM     10  C   UNK A   0       1.558   2.434  21.372  0.00  0.00    +0.000 A 
ATOM     11  C   UNK A   0       1.176   2.548  20.042  0.00  0.00    +0.000 A 
ATOM     12  C   UNK A   0       1.474   3.704  19.284  0.00  0.00    +0.000 A 
ATOM     13  C   UNK A   0       1.072   3.634  17.828  0.00  0.00    +0.000 C 
ENDBRANCH   6   7
BRANCH   1  15
ATOM     14  N   MET A   1       4.702   5.373  16.384  0.00  0.00    +0.000 N 
ATOM     15  C   UNK A   0       4.351   5.295  17.721  0.00  0.00    +0.000 C 
ATOM     16  O   UNK A   0       4.769   4.401  18.447  0.00  0.00    +0.000 OA
ATOM     17  H   MET A   1       4.324   6.084  15.765  0.00  0.00    +0.000 HD
BRANCH  14  18
ATOM     18  CA  MET A   1       5.677   4.440  15.814  0.00  0.00    +0.000 C 
BRANCH  18  19
ATOM     19  C   MET A   1       7.094   4.908  16.161  0.00  0.00    +0.000 C 
ATOM     20  O   MET A   1       7.951   4.186  16.656  0.00  0.00    +0.000 OA
BRANCH  19  21
ATOM     21  OXT MET A   1       7.318   6.210  15.885  0.00  0.00    +0.000 OA
ATOM     22  HXT MET A   1       7.813   6.691  16.571  0.00  0.00    +0.000 HD
ENDBRANCH  19  21
ENDBRANCH  18  19
BRANCH  18  23
ATOM     23  CB  MET A   1       5.497   4.324  14.293  0.00  0.00    +0.000 C 
BRANCH  23  24
ATOM     24  CG  MET A   1       6.782   4.104  13.493  0.00  0.00    +0.000 C 
BRANCH  24  26
ATOM     25  CE  MET A   1       4.680   3.383  11.848  0.00  0.00    +0.000 C 
ATOM     26  SD  MET A   1       6.459   3.127  11.988  0.00  0.00    +0.000 S 
ENDBRANCH  24  26
ENDBRANCH  23  24
ENDBRANCH  18  23
ENDBRANCH  14  18
ENDBRANCH   1  15
BRANCH   4  27
ATOM     27  N   UNK A   0       0.840   9.531  19.311  0.00  0.00    +0.000 N 
ATOM     28  C   UNK A   0       0.936  10.876  18.995  0.00  0.00    +0.000 C 
ATOM     29  O   UNK A   0       1.891  11.418  18.429  0.00  0.00    +0.000 OA
ATOM     30  H   UNK A   0       0.077   9.258  19.925  0.00  0.00    +0.000 HD
BRANCH  28  31
ATOM     31  C   UNK A   0      -0.249  11.706  19.446  0.00  0.00    +0.000 C 
BRANCH  31  32
ATOM     32  C   UNK A   0      -1.435  11.393  18.606  0.00  0.00    +0.000 A 
ATOM     33  C   UNK A   0      -2.730  11.825  18.822  0.00  0.00    +0.000 A 
ATOM     34  S   UNK A   0      -3.767  11.173  17.628  0.00  0.00    +0.000 S 
ATOM     35  C   UNK A   0      -2.425  10.384  16.906  0.00  0.00    +0.000 A 
ATOM     36  N   UNK A   0      -2.575   9.616  15.816  0.00  0.00    +0.000 N 
ATOM     37  N   UNK A   0      -1.272  10.567  17.503  0.00  0.00    +0.000 NA
ATOM     38  H   UNK A   0      -3.499   9.253  15.619  0.00  0.00    +0.000 HD
ATOM     39  H   UNK A   0      -1.820   8.970  15.620  0.00  0.00    +0.000 HD
ENDBRANCH  31  32
ENDBRANCH  28  31
ENDBRANCH   4  27
TORSDOF 11
ENDMDL
MODEL 2
REMARK VINA RESULT:      -8.4      1.796      2.377
REMARK  Name = 
REMARK  13 active torsions:
REMARK  status: ('A' for Active; 'I' for Inactive)
REMARK    1  A    between atoms: CE_1  and  SD_2
REMARK    2  A    between atoms: SD_2  and  CG_3
REMARK    3  A    between atoms: CG_3  and  CB_4
REMARK    4  A    between atoms: CB_4  and  CA_5
REMARK    5  A    between atoms: CA_5  and  N_6
REMARK    6  A    between atoms: CA_5  and  C_32
REMARK    7  A    between atoms: C_7  and  C_9
REMARK    8  A    between atoms: C_12  and  N_13
REMARK    9  A    between atoms: C_14  and  C_16
REMARK   10  A    between atoms: C_16  and  C_17
REMARK   11  A    between atoms: C_24  and  C_25
REMARK   12  A    between atoms: C_30  and  C_31
REMARK   13  A    between atoms: C_32  and  OXT_34
REMARK                            x       y       z     vdW  Elec       q    Type
REMARK                         _______ _______ _______ _____ _____    ______ ____
ROOT
ATOM      1  C   UNK A   0       3.485   6.357  18.065  0.00  0.00    +0.000 A 
ATOM      2  C   UNK A   0       3.716   7.636  17.513  0.00  0.00    +0.000 A 
ATOM      3  C   UNK A   0       2.951   8.741  17.886  0.00  0.00    +0.000 A 
ATOM      4  C   UNK A   0       1.958   8.605  18.841  0.00  0.00    +0.000 A 
ATOM      5  C   UNK A   0       1.778   7.355  19.439  0.00  0.00    +0.000 A 
ATOM      6  C   UNK A   0       2.475   6.176  19.054  0.00  0.00    +0.000 A 
ENDROOT
BRANCH   6   7
ATOM      7  C   UNK A   0       2.134   4.885  19.756  0.00  0.00    +0.000 A 
ATOM      8  C   UNK A   0       2.468   4.720  21.120  0.00  0.00    +0.000 A 
ATOM      9  C   UNK A   0       2.201   3.546  21.834  0.00  0.00    +0.000 A 
ATOM     10  C   UNK A   0       1.503   2.516  21.230  0.00  0.00    +0.000 A 
ATOM     11  C   UNK A   0       1.110   2.647  19.905  0.00  0.00    +0.000 A 
ATOM     12  C   UNK A   0       1.445   3.791  19.144  0.00  0.00    +0.000 A 
ATOM     13  C   UNK A   0       1.024   3.739  17.693  0.00  0.00    +0.000 C 
ENDBRANCH   6   7
BRANCH   1  15
ATOM     14  N   MET A   1       4.764   5.392  16.201  0.00  0.00    +0.000 N 
ATOM     15  C   UNK A   0       4.330   5.252  17.509  0.00  0.00    +0.000 C 
ATOM     16  O   UNK A   0       4.621   4.273  18.183  0.00  0.00    +0.000 OA
ATOM     17  H   MET A   1       4.489   6.179  15.620  0.00  0.00    +0.000 HD
BRANCH  14  18
ATOM     18  CA  MET A   1       5.681   4.414  15.611  0.00  0.00    +0.000 C 
BRANCH  18  19
ATOM     19  C   MET A   1       7.126   4.866  15.845  0.00  0.00    +0.000 C 
ATOM     20  O   MET A   1       7.634   5.841  15.306  0.00  0.00    +0.000 OA
BRANCH  19  21
ATOM     21  OXT MET A   1       7.810   4.075  16.699  0.00  0.00    +0.000 OA
ATOM     22  HXT MET A   1       8.688   3.801  16.383  0.00  0.00    +0.000 HD
ENDBRANCH  19  21
ENDBRANCH  18  19
BRANCH  18  23
ATOM     23  CB  MET A   1       5.400   4.236  14.112  0.00  0.00    +0.000 C 
BRANCH  23  24
ATOM     24  CG  MET A   1       6.603   3.829  13.260  0.00  0.00    +0.000 C 
BRANCH  24  26
ATOM     25  CE  MET A   1       4.438   3.361  11.605  0.00  0.00    +0.000 C 
ATOM     26  SD  MET A   1       6.099   2.725  11.898  0.00  0.00    +0.000 S 
ENDBRANCH  24  26
ENDBRANCH  23  24
ENDBRANCH  18  23
ENDBRANCH  14  18
ENDBRANCH   1  15
BRANCH   4  27
ATOM     27  N   UNK A   0       1.089   9.652  19.224  0.00  0.00    +0.000 N 
ATOM     28  C   UNK A   0      -0.072  10.024  18.568  0.00  0.00    +0.000 C 
ATOM     29  O   UNK A   0      -0.483   9.551  17.503  0.00  0.00    +0.000 OA
ATOM     30  H   UNK A   0       1.388  10.241  19.996  0.00  0.00    +0.000 HD
BRANCH  28  31
ATOM     31  C   UNK A   0      -0.838  11.141  19.248  0.00  0.00    +0.000 C 
BRANCH  31  32
ATOM     32  C   UNK A   0       0.105  12.196  19.706  0.00  0.00    +0.000 A 
ATOM     33  C   UNK A   0       0.168  12.745  20.973  0.00  0.00    +0.000 A 
ATOM     34  S   UNK A   0       1.373  13.959  21.020  0.00  0.00    +0.000 S 
ATOM     35  C   UNK A   0       1.732  13.654  19.370  0.00  0.00    +0.000 A 
ATOM     36  N   UNK A   0       2.680  14.353  18.725  0.00  0.00    +0.000 N 
ATOM     37  N   UNK A   0       1.007  12.725  18.795  0.00  0.00    +0.000 NA
ATOM     38  H   UNK A   0       2.948  15.249  19.111  0.00  0.00    +0.000 HD
ATOM     39  H   UNK A   0       2.642  14.325  17.713  0.00  0.00    +0.000 HD
ENDBRANCH  31  32
ENDBRANCH  28  31
ENDBRANCH   4  27
TORSDOF 11
ENDMDL
MODEL 3
REMARK VINA RESULT:      -8.2      2.003      2.693
REMARK  Name = 
REMARK  13 active torsions:
REMARK  status: ('A' for Active; 'I' for Inactive)
REMARK    1  A    between atoms: CE_1  and  SD_2
REMARK    2  A    between atoms: SD_2  and  CG_3
REMARK    3  A    between atoms: CG_3  and  CB_4
REMARK    4  A    between atoms: CB_4  and  CA_5
REMARK    5  A    between atoms: CA_5  and  N_6
REMARK    6  A    between atoms: CA_5  and  C_32
REMARK    7  A    between atoms: C_7  and  C_9
REMARK    8  A    between atoms: C_12  and  N_13
REMARK    9  A    between atoms: C_14  and  C_16
REMARK   10  A    between atoms: C_16  and  C_17
REMARK   11  A    between atoms: C_24  and  C_25
REMARK   12  A    between atoms: C_30  and  C_31
REMARK   13  A    between atoms: C_32  and  OXT_34
REMARK                            x       y       z     vdW  Elec       q    Type
REMARK                         _______ _______ _______ _____ _____    ______ ____
ROOT
ATOM      1  C   UNK A   0       3.445   6.375  18.178  0.00  0.00    +0.000 A 
ATOM      2  C   UNK A   0       3.635   7.662  17.629  0.00  0.00    +0.000 A 
ATOM      3  C   UNK A   0       2.808   8.732  17.974  0.00  0.00    +0.000 A 
ATOM      4  C   UNK A   0       1.793   8.552  18.898  0.00  0.00    +0.000 A 
ATOM      5  C   UNK A   0       1.651   7.297  19.494  0.00  0.00    +0.000 A 
ATOM      6  C   UNK A   0       2.413   6.150  19.135  0.00  0.00    +0.000 A 
ENDROOT
BRANCH   6   7
ATOM      7  C   UNK A   0       2.110   4.846  19.830  0.00  0.00    +0.000 A 
ATOM      8  C   UNK A   0       2.427   4.692  21.200  0.00  0.00    +0.000 A 
ATOM      9  C   UNK A   0       2.192   3.508  21.909  0.00  0.00    +0.000 A 
ATOM     10  C   UNK A   0       1.544   2.453  21.293  0.00  0.00    +0.000 A 
ATOM     11  C   UNK A   0       1.169   2.570  19.961  0.00  0.00    +0.000 A 
ATOM     12  C   UNK A   0       1.474   3.727  19.206  0.00  0.00    +0.000 A 
ATOM     13  C   UNK A   0       1.079   3.661  17.748  0.00  0.00    +0.000 C 
ENDBRANCH   6   7
BRANCH   1  15
ATOM     14  N   MET A   1       4.742   5.411  16.326  0.00  0.00    +0.000 N 
ATOM     15  C   UNK A   0       4.357   5.309  17.652  0.00  0.00    +0.000 C 
ATOM     16  O   UNK A   0       4.740   4.391  18.367  0.00  0.00    +0.000 OA
ATOM     17  H   MET A   1       4.392   6.143  15.715  0.00  0.00    +0.000 HD
BRANCH  14  18
ATOM     18  CA  MET A   1       5.715   4.475  15.759  0.00  0.00    +0.000 C 
BRANCH  18  19
ATOM     19  C   MET A   1       7.134   4.968  16.063  0.00  0.00    +0.000 C 
ATOM     20  O   MET A   1       7.578   6.047  15.691  0.00  0.00    +0.000 OA
BRANCH  19  21
ATOM     21  OXT MET A   1       7.871   4.090  16.776  0.00  0.00    +0.000 OA
ATOM     22  HXT MET A   1       8.821   4.093  16.564  0.00  0.00    +0.000 HD
ENDBRANCH  19  21
ENDBRANCH  18  19
BRANCH  18  23
ATOM     23  CB  MET A   1       5.504   4.318  14.245  0.00  0.00    +0.000 C 
BRANCH  23  24
ATOM     24  CG  MET A   1       6.751   3.946  13.442  0.00  0.00    +0.000 C 
BRANCH  24  26
ATOM     25  CE  MET A   1       4.521   3.366  11.913  0.00  0.00    +0.000 C 
ATOM     26  SD  MET A   1       6.303   3.093  11.893  0.00  0.00    +0.000 S 
ENDBRANCH  24  26
ENDBRANCH  23  24
ENDBRANCH  18  23
ENDBRANCH  14  18
ENDBRANCH   1  15
BRANCH   4  27
ATOM     27  N   UNK A   0       0.865   9.559  19.249  0.00  0.00    +0.000 N 
ATOM     28  C   UNK A   0       0.535   9.945  20.538  0.00  0.00    +0.000 C 
ATOM     29  O   UNK A   0       0.941   9.413  21.576  0.00  0.00    +0.000 OA
ATOM     30  H   UNK A   0       0.327   9.975  18.494  0.00  0.00    +0.000 HD
BRANCH  28  31
ATOM     31  C   UNK A   0      -0.444  11.100  20.608  0.00  0.00    +0.000 C 
BRANCH  31  32
ATOM     32  C   UNK A   0       0.283  12.361  20.907  0.00  0.00    +0.000 A 
ATOM     33  C   UNK A   0      -0.147  13.379  21.737  0.00  0.00    +0.000 A 
ATOM     34  S   UNK A   0       0.994  14.653  21.735  0.00  0.00    +0.000 S 
ATOM     35  C   UNK A   0       1.979  13.757  20.652  0.00  0.00    +0.000 A 
ATOM     36  N   UNK A   0       3.142  14.252  20.201  0.00  0.00    +0.000 N 
ATOM     37  N   UNK A   0       1.505  12.590  20.290  0.00  0.00    +0.000 NA
ATOM     38  H   UNK A   0       3.276  15.254  20.243  0.00  0.00    +0.000 HD
ATOM     39  H   UNK A   0       3.519  13.813  19.369  0.00  0.00    +0.000 HD
ENDBRANCH  31  32
ENDBRANCH  28  31
ENDBRANCH   4  27
TORSDOF 11
ENDMDL
MODEL 4
REMARK VINA RESULT:      -8.2      1.601      2.283
REMARK  Name = 
REMARK  13 active torsions:
REMARK  status: ('A' for Active; 'I' for Inactive)
REMARK    1  A    between atoms: CE_1  and  SD_2
REMARK    2  A    between atoms: SD_2  and  CG_3
REMARK    3  A    between atoms: CG_3  and  CB_4
REMARK    4  A    between atoms: CB_4  and  CA_5
REMARK    5  A    between atoms: CA_5  and  N_6
REMARK    6  A    between atoms: CA_5  and  C_32
REMARK    7  A    between atoms: C_7  and  C_9
REMARK    8  A    between atoms: C_12  and  N_13
REMARK    9  A    between atoms: C_14  and  C_16
REMARK   10  A    between atoms: C_16  and  C_17
REMARK   11  A    between atoms: C_24  and  C_25
REMARK   12  A    between atoms: C_30  and  C_31
REMARK   13  A    between atoms: C_32  and  OXT_34
REMARK                            x       y       z     vdW  Elec       q    Type
REMARK                         _______ _______ _______ _____ _____    ______ ____
ROOT
ATOM      1  C   UNK A   0       3.436   6.533  18.088  0.00  0.00    +0.000 A 
ATOM      2  C   UNK A   0       3.593   7.820  17.527  0.00  0.00    +0.000 A 
ATOM      3  C   UNK A   0       2.698   8.853  17.808  0.00  0.00    +0.000 A 
ATOM      4  C   UNK A   0       1.643   8.637  18.678  0.00  0.00    +0.000 A 
ATOM      5  C   UNK A   0       1.530   7.385  19.288  0.00  0.00    +0.000 A 
ATOM      6  C   UNK A   0       2.365   6.272  18.990  0.00  0.00    +0.000 A 
ENDROOT
BRANCH   6   7
ATOM      7  C   UNK A   0       2.088   4.965  19.691  0.00  0.00    +0.000 A 
ATOM      8  C   UNK A   0       2.354   4.841  21.075  0.00  0.00    +0.000 A 
ATOM      9  C   UNK A   0       2.140   3.658  21.790  0.00  0.00    +0.000 A 
ATOM     10  C   UNK A   0       1.561   2.569  21.163  0.00  0.00    +0.000 A 
ATOM     11  C   UNK A   0       1.237   2.654  19.816  0.00  0.00    +0.000 A 
ATOM     12  C   UNK A   0       1.525   3.813  19.057  0.00  0.00    +0.000 A 
ATOM     13  C   UNK A   0       1.193   3.712  17.586  0.00  0.00    +0.000 C 
ENDBRANCH   6   7
BRANCH   1  15
ATOM     14  N   MET A   1       4.926   5.645  16.347  0.00  0.00    +0.000 N 
ATOM     15  C   UNK A   0       4.426   5.506  17.630  0.00  0.00    +0.000 C 
ATOM     16  O   UNK A   0       4.773   4.587  18.362  0.00  0.00    +0.000 OA
ATOM     17  H   MET A   1       4.609   6.376  15.718  0.00  0.00    +0.000 HD
BRANCH  14  18
ATOM     18  CA  MET A   1       5.976   4.749  15.856  0.00  0.00    +0.000 C 
BRANCH  18  19
ATOM     19  C   MET A   1       7.315   5.136  16.494  0.00  0.00    +0.000 C 
ATOM     20  O   MET A   1       8.042   4.348  17.088  0.00  0.00    +0.000 OA
BRANCH  19  21
ATOM     21  OXT MET A   1       7.623   6.443  16.358  0.00  0.00    +0.000 OA
ATOM     22  HXT MET A   1       7.304   7.012  17.080  0.00  0.00    +0.000 HD
ENDBRANCH  19  21
ENDBRANCH  18  19
BRANCH  18  23
ATOM     23  CB  MET A   1       6.067   4.802  14.323  0.00  0.00    +0.000 C 
BRANCH  23  24
ATOM     24  CG  MET A   1       5.456   3.609  13.586  0.00  0.00    +0.000 C 
BRANCH  24  26
ATOM     25  CE  MET A   1       7.503   4.657  12.051  0.00  0.00    +0.000 C 
ATOM     26  SD  MET A   1       6.332   3.287  12.020  0.00  0.00    +0.000 S 
ENDBRANCH  24  26
ENDBRANCH  23  24
ENDBRANCH  18  23
ENDBRANCH  14  18
ENDBRANCH   1  15
BRANCH   4  27
ATOM     27  N   UNK A   0       0.650   9.602  18.961  0.00  0.00    +0.000 N 
ATOM     28  C   UNK A   0       0.842  10.972  19.019  0.00  0.00    +0.000 C 
ATOM     29  O   UNK A   0       1.926  11.554  18.910  0.00  0.00    +0.000 OA
ATOM     30  H   UNK A   0      -0.265   9.255  19.235  0.00  0.00    +0.000 HD
BRANCH  28  31
ATOM     31  C   UNK A   0      -0.423  11.765  19.279  0.00  0.00    +0.000 C 
BRANCH  31  32
ATOM     32  C   UNK A   0      -0.853  11.585  20.691  0.00  0.00    +0.000 A 
ATOM     33  C   UNK A   0      -1.735  12.388  21.389  0.00  0.00    +0.000 A 
ATOM     34  S   UNK A   0      -1.886  11.824  22.997  0.00  0.00    +0.000 S 
ATOM     35  C   UNK A   0      -0.790  10.552  22.645  0.00  0.00    +0.000 A 
ATOM     36  N   UNK A   0      -0.436   9.661  23.584  0.00  0.00    +0.000 N 
ATOM     37  N   UNK A   0      -0.317  10.534  21.422  0.00  0.00    +0.000 NA
ATOM     38  H   UNK A   0      -0.560   9.923  24.553  0.00  0.00    +0.000 HD
ATOM     39  H   UNK A   0       0.406   9.129  23.397  0.00  0.00    +0.000 HD
ENDBRANCH  31  32
ENDBRANCH  28  31
ENDBRANCH   4  27
TORSDOF 11
ENDMDL
MODEL 5
REMARK VINA RESULT:      -8.2      0.920      1.066
REMARK  Name = 
REMARK  13 active torsions:
REMARK  status: ('A' for Active; 'I' for Inactive)
REMARK    1  A    between atoms: CE_1  and  SD_2
REMARK    2  A    between atoms: SD_2  and  CG_3
REMARK    3  A    between atoms: CG_3  and  CB_4
REMARK    4  A    between atoms: CB_4  and  CA_5
REMARK    5  A    between atoms: CA_5  and  N_6
REMARK    6  A    between atoms: CA_5  and  C_32
REMARK    7  A    between atoms: C_7  and  C_9
REMARK    8  A    between atoms: C_12  and  N_13
REMARK    9  A    between atoms: C_14  and  C_16
REMARK   10  A    between atoms: C_16  and  C_17
REMARK   11  A    between atoms: C_24  and  C_25
REMARK   12  A    between atoms: C_30  and  C_31
REMARK   13  A    between atoms: C_32  and  OXT_34
REMARK                            x       y       z     vdW  Elec       q    Type
REMARK                         _______ _______ _______ _____ _____    ______ ____
ROOT
ATOM      1  C   UNK A   0       3.523   6.482  18.176  0.00  0.00    +0.000 A 
ATOM      2  C   UNK A   0       3.719   7.775  17.641  0.00  0.00    +0.000 A 
ATOM      3  C   UNK A   0       2.857   8.829  17.945  0.00  0.00    +0.000 A 
ATOM      4  C   UNK A   0       1.798   8.628  18.813  0.00  0.00    +0.000 A 
ATOM      5  C   UNK A   0       1.647   7.368  19.398  0.00  0.00    +0.000 A 
ATOM      6  C   UNK A   0       2.446   6.236  19.076  0.00  0.00    +0.000 A 
ENDROOT
BRANCH   6   7
ATOM      7  C   UNK A   0       2.130   4.924  19.751  0.00  0.00    +0.000 A 
ATOM      8  C   UNK A   0       2.383   4.769  21.134  0.00  0.00    +0.000 A 
ATOM      9  C   UNK A   0       2.133   3.578  21.825  0.00  0.00    +0.000 A 
ATOM     10  C   UNK A   0       1.530   2.517  21.175  0.00  0.00    +0.000 A 
ATOM     11  C   UNK A   0       1.218   2.635  19.827  0.00  0.00    +0.000 A 
ATOM     12  C   UNK A   0       1.541   3.799  19.092  0.00  0.00    +0.000 A 
ATOM     13  C   UNK A   0       1.218   3.734  17.617  0.00  0.00    +0.000 C 
ENDBRANCH   6   7
BRANCH   1  15
ATOM     14  N   MET A   1       4.701   5.366  16.330  0.00  0.00    +0.000 N 
ATOM     15  C   UNK A   0       4.479   5.434  17.696  0.00  0.00    +0.000 C 
ATOM     16  O   UNK A   0       5.037   4.676  18.478  0.00  0.00    +0.000 OA
ATOM     17  H   MET A   1       4.208   5.960  15.671  0.00  0.00    +0.000 HD
BRANCH  14  18
ATOM     18  CA  MET A   1       5.700   4.444  15.783  0.00  0.00    +0.000 C 
BRANCH  18  19
ATOM     19  C   MET A   1       7.104   4.957  16.119  0.00  0.00    +0.000 C 
ATOM     20  O   MET A   1       7.558   6.021  15.717  0.00  0.00    +0.000 OA
BRANCH  19  21
ATOM     21  OXT MET A   1       7.817   4.115  16.897  0.00  0.00    +0.000 OA
ATOM     22  HXT MET A   1       7.506   4.053  17.817  0.00  0.00    +0.000 HD
ENDBRANCH  19  21
ENDBRANCH  18  19
BRANCH  18  23
ATOM     23  CB  MET A   1       5.524   4.287  14.265  0.00  0.00    +0.000 C 
BRANCH  23  24
ATOM     24  CG  MET A   1       6.624   3.499  13.553  0.00  0.00    +0.000 C 
BRANCH  24  26
ATOM     25  CE  MET A   1       4.554   3.208  11.744  0.00  0.00    +0.000 C 
ATOM     26  SD  MET A   1       6.340   3.454  11.753  0.00  0.00    +0.000 S 
ENDBRANCH  24  26
ENDBRANCH  23  24
ENDBRANCH  18  23
ENDBRANCH  14  18
ENDBRANCH   1  15
BRANCH   4  27
ATOM     27  N   UNK A   0       0.835   9.618  19.119  0.00  0.00    +0.000 N 
ATOM     28  C   UNK A   0       0.698  10.270  20.332  0.00  0.00    +0.000 C 
ATOM     29  O   UNK A   0       1.344  10.030  21.358  0.00  0.00    +0.000 OA
ATOM     30  H   UNK A   0       0.125   9.803  18.416  0.00  0.00    +0.000 HD
BRANCH  28  31
ATOM     31  C   UNK A   0      -0.382  11.333  20.347  0.00  0.00    +0.000 C 
BRANCH  31  32
ATOM     32  C   UNK A   0      -1.228  11.211  19.131  0.00  0.00    +0.000 A 
ATOM     33  C   UNK A   0      -1.336  12.137  18.110  0.00  0.00    +0.000 A 
ATOM     34  S   UNK A   0      -2.466  11.591  16.947  0.00  0.00    +0.000 S 
ATOM     35  C   UNK A   0      -2.714  10.166  17.870  0.00  0.00    +0.000 A 
ATOM     36  N   UNK A   0      -3.582   9.224  17.471  0.00  0.00    +0.000 N 
ATOM     37  N   UNK A   0      -2.024  10.084  18.982  0.00  0.00    +0.000 NA
ATOM     38  H   UNK A   0      -4.305   9.495  16.816  0.00  0.00    +0.000 HD
ATOM     39  H   UNK A   0      -3.885   8.569  18.182  0.00  0.00    +0.000 HD
ENDBRANCH  31  32
ENDBRANCH  28  31
ENDBRANCH   4  27
TORSDOF 11
ENDMDL
MODEL 6
REMARK VINA RESULT:      -8.1      1.381      1.533
REMARK  Name = 
REMARK  13 active torsions:
REMARK  status: ('A' for Active; 'I' for Inactive)
REMARK    1  A    between atoms: CE_1  and  SD_2
REMARK    2  A    between atoms: SD_2  and  CG_3
REMARK    3  A    between atoms: CG_3  and  CB_4
REMARK    4  A    between atoms: CB_4  and  CA_5
REMARK    5  A    between atoms: CA_5  and  N_6
REMARK    6  A    between atoms: CA_5  and  C_32
REMARK    7  A    between atoms: C_7  and  C_9
REMARK    8  A    between atoms: C_12  and  N_13
REMARK    9  A    between atoms: C_14  and  C_16
REMARK   10  A    between atoms: C_16  and  C_17
REMARK   11  A    between atoms: C_24  and  C_25
REMARK   12  A    between atoms: C_30  and  C_31
REMARK   13  A    between atoms: C_32  and  OXT_34
REMARK                            x       y       z     vdW  Elec       q    Type
REMARK                         _______ _______ _______ _____ _____    ______ ____
ROOT
ATOM      1  C   UNK A   0       3.390   6.297  18.503  0.00  0.00    +0.000 A 
ATOM      2  C   UNK A   0       3.542   7.621  18.034  0.00  0.00    +0.000 A 
ATOM      3  C   UNK A   0       2.707   8.650  18.469  0.00  0.00    +0.000 A 
ATOM      4  C   UNK A   0       1.719   8.391  19.403  0.00  0.00    +0.000 A 
ATOM      5  C   UNK A   0       1.614   7.097  19.919  0.00  0.00    +0.000 A 
ATOM      6  C   UNK A   0       2.387   5.991  19.467  0.00  0.00    +0.000 A 
ENDROOT
BRANCH   6   7
ATOM      7  C   UNK A   0       2.124   4.639  20.083  0.00  0.00    +0.000 A 
ATOM      8  C   UNK A   0       2.432   4.418  21.446  0.00  0.00    +0.000 A 
ATOM      9  C   UNK A   0       2.233   3.188  22.083  0.00  0.00    +0.000 A 
ATOM     10  C   UNK A   0       1.631   2.147  21.400  0.00  0.00    +0.000 A 
ATOM     11  C   UNK A   0       1.266   2.327  20.072  0.00  0.00    +0.000 A 
ATOM     12  C   UNK A   0       1.536   3.535  19.388  0.00  0.00    +0.000 A 
ATOM     13  C   UNK A   0       1.160   3.539  17.924  0.00  0.00    +0.000 C 
ENDBRANCH   6   7
BRANCH   1  15
ATOM     14  N   MET A   1       4.729   5.529  16.590  0.00  0.00    +0.000 N 
ATOM     15  C   UNK A   0       4.306   5.285  17.886  0.00  0.00    +0.000 C 
ATOM     16  O   UNK A   0       4.662   4.290  18.504  0.00  0.00    +0.000 OA
ATOM     17  H   MET A   1       4.401   6.327  16.055  0.00  0.00    +0.000 HD
BRANCH  14  18
ATOM     18  CA  MET A   1       5.708   4.649  15.948  0.00  0.00    +0.000 C 
BRANCH  18  19
ATOM     19  C   MET A   1       7.122   5.078  16.356  0.00  0.00    +0.000 C 
ATOM     20  O   MET A   1       7.924   4.343  16.919  0.00  0.00    +0.000 OA
BRANCH  19  21
ATOM     21  OXT MET A   1       7.409   6.361  16.050  0.00  0.00    +0.000 OA
ATOM     22  HXT MET A   1       6.653   6.878  15.721  0.00  0.00    +0.000 HD
ENDBRANCH  19  21
ENDBRANCH  18  19
BRANCH  18  23
ATOM     23  CB  MET A   1       5.549   4.676  14.421  0.00  0.00    +0.000 C 
BRANCH  23  24
ATOM     24  CG  MET A   1       6.500   3.766  13.643  0.00  0.00    +0.000 C 
BRANCH  24  26
ATOM     25  CE  MET A   1       5.571   2.128  11.618  0.00  0.00    +0.000 C 
ATOM     26  SD  MET A   1       6.146   3.820  11.855  0.00  0.00    +0.000 S 
ENDBRANCH  24  26
ENDBRANCH  23  24
ENDBRANCH  18  23
ENDBRANCH  14  18
ENDBRANCH   1  15
BRANCH   4  27
ATOM     27  N   UNK A   0       0.783   9.355  19.842  0.00  0.00    +0.000 N 
ATOM     28  C   UNK A   0       0.728   9.916  21.107  0.00  0.00    +0.000 C 
ATOM     29  O   UNK A   0       1.437   9.600  22.068  0.00  0.00    +0.000 OA
ATOM     30  H   UNK A   0       0.029   9.592  19.203  0.00  0.00    +0.000 HD
BRANCH  28  31
ATOM     31  C   UNK A   0      -0.344  10.975  21.270  0.00  0.00    +0.000 C 
BRANCH  31  32
ATOM     32  C   UNK A   0      -0.446  11.787  20.029  0.00  0.00    +0.000 A 
ATOM     33  C   UNK A   0       0.181  12.995  19.786  0.00  0.00    +0.000 A 
ATOM     34  S   UNK A   0      -0.271  13.584  18.245  0.00  0.00    +0.000 S 
ATOM     35  C   UNK A   0      -1.246  12.192  18.008  0.00  0.00    +0.000 A 
ATOM     36  N   UNK A   0      -1.956  12.026  16.882  0.00  0.00    +0.000 N 
ATOM     37  N   UNK A   0      -1.262  11.337  19.002  0.00  0.00    +0.000 NA
ATOM     38  H   UNK A   0      -2.163  12.848  16.329  0.00  0.00    +0.000 HD
ATOM     39  H   UNK A   0      -2.709  11.350  16.927  0.00  0.00    +0.000 HD
ENDBRANCH  31  32
ENDBRANCH  28  31
ENDBRANCH   4  27
TORSDOF 11
ENDMDL
MODEL 7
REMARK VINA RESULT:      -8.1      1.988      2.398
REMARK  Name = 
REMARK  13 active torsions:
REMARK  status: ('A' for Active; 'I' for Inactive)
REMARK    1  A    between atoms: CE_1  and  SD_2
REMARK    2  A    between atoms: SD_2  and  CG_3
REMARK    3  A    between atoms: CG_3  and  CB_4
REMARK    4  A    between atoms: CB_4  and  CA_5
REMARK    5  A    between atoms: CA_5  and  N_6
REMARK    6  A    between atoms: CA_5  and  C_32
REMARK    7  A    between atoms: C_7  and  C_9
REMARK    8  A    between atoms: C_12  and  N_13
REMARK    9  A    between atoms: C_14  and  C_16
REMARK   10  A    between atoms: C_16  and  C_17
REMARK   11  A    between atoms: C_24  and  C_25
REMARK   12  A    between atoms: C_30  and  C_31
REMARK   13  A    between atoms: C_32  and  OXT_34
REMARK                            x       y       z     vdW  Elec       q    Type
REMARK                         _______ _______ _______ _____ _____    ______ ____
ROOT
ATOM      1  C   UNK A   0       3.408   6.575  18.207  0.00  0.00    +0.000 A 
ATOM      2  C   UNK A   0       3.578   7.885  17.706  0.00  0.00    +0.000 A 
ATOM      3  C   UNK A   0       2.730   8.927  18.080  0.00  0.00    +0.000 A 
ATOM      4  C   UNK A   0       1.709   8.696  18.986  0.00  0.00    +0.000 A 
ATOM      5  C   UNK A   0       1.585   7.418  19.536  0.00  0.00    +0.000 A 
ATOM      6  C   UNK A   0       2.371   6.298  19.144  0.00  0.00    +0.000 A 
ENDROOT
BRANCH   6   7
ATOM      7  C   UNK A   0       2.085   4.965  19.790  0.00  0.00    +0.000 A 
ATOM      8  C   UNK A   0       2.356   4.780  21.166  0.00  0.00    +0.000 A 
ATOM      9  C   UNK A   0       2.134   3.568  21.830  0.00  0.00    +0.000 A 
ATOM     10  C   UNK A   0       1.544   2.513  21.160  0.00  0.00    +0.000 A 
ATOM     11  C   UNK A   0       1.215   2.658  19.819  0.00  0.00    +0.000 A 
ATOM     12  C   UNK A   0       1.509   3.846  19.110  0.00  0.00    +0.000 A 
ATOM     13  C   UNK A   0       1.171   3.811  17.637  0.00  0.00    +0.000 C 
ENDBRANCH   6   7
BRANCH   1  15
ATOM     14  N   MET A   1       4.777   5.728  16.350  0.00  0.00    +0.000 N 
ATOM     15  C   UNK A   0       4.343   5.546  17.653  0.00  0.00    +0.000 C 
ATOM     16  O   UNK A   0       4.706   4.588  18.325  0.00  0.00    +0.000 OA
ATOM     17  H   MET A   1       4.445   6.493  15.771  0.00  0.00    +0.000 HD
BRANCH  14  18
ATOM     18  CA  MET A   1       5.775   4.831  15.765  0.00  0.00    +0.000 C 
BRANCH  18  19
ATOM     19  C   MET A   1       7.167   5.210  16.281  0.00  0.00    +0.000 C 
ATOM     20  O   MET A   1       7.646   6.335  16.194  0.00  0.00    +0.000 OA
BRANCH  19  21
ATOM     21  OXT MET A   1       7.840   4.179  16.835  0.00  0.00    +0.000 OA
ATOM     22  HXT MET A   1       7.412   3.312  16.728  0.00  0.00    +0.000 HD
ENDBRANCH  19  21
ENDBRANCH  18  19
BRANCH  18  23
ATOM     23  CB  MET A   1       5.727   4.887  14.230  0.00  0.00    +0.000 C 
BRANCH  23  24
ATOM     24  CG  MET A   1       6.142   3.602  13.511  0.00  0.00    +0.000 C 
BRANCH  24  26
ATOM     25  CE  MET A   1       5.843   1.775  11.457  0.00  0.00    +0.000 C 
ATOM     26  SD  MET A   1       5.182   3.369  11.979  0.00  0.00    +0.000 S 
ENDBRANCH  24  26
ENDBRANCH  23  24
ENDBRANCH  18  23
ENDBRANCH  14  18
ENDBRANCH   1  15
BRANCH   4  27
ATOM     27  N   UNK A   0       0.759   9.673  19.364  0.00  0.00    +0.000 N 
ATOM     28  C   UNK A   0       0.646  10.253  20.616  0.00  0.00    +0.000 C 
ATOM     29  O   UNK A   0       1.305   9.949  21.615  0.00  0.00    +0.000 OA
ATOM     30  H   UNK A   0       0.040   9.904  18.685  0.00  0.00    +0.000 HD
BRANCH  28  31
ATOM     31  C   UNK A   0      -0.425  11.321  20.710  0.00  0.00    +0.000 C 
BRANCH  31  32
ATOM     32  C   UNK A   0       0.091  12.605  20.166  0.00  0.00    +0.000 A 
ATOM     33  C   UNK A   0       1.414  13.007  20.130  0.00  0.00    +0.000 A 
ATOM     34  S   UNK A   0       1.525  14.579  19.463  0.00  0.00    +0.000 S 
ATOM     35  C   UNK A   0      -0.179  14.602  19.257  0.00  0.00    +0.000 A 
ATOM     36  N   UNK A   0      -0.800  15.671  18.735  0.00  0.00    +0.000 N 
ATOM     37  N   UNK A   0      -0.813  13.528  19.662  0.00  0.00    +0.000 NA
ATOM     38  H   UNK A   0      -0.315  16.559  18.763  0.00  0.00    +0.000 HD
ATOM     39  H   UNK A   0      -1.797  15.732  18.904  0.00  0.00    +0.000 HD
ENDBRANCH  31  32
ENDBRANCH  28  31
ENDBRANCH   4  27
TORSDOF 11
ENDMDL
MODEL 8
REMARK VINA RESULT:      -8.1      1.802      2.222
REMARK  Name = 
REMARK  13 active torsions:
REMARK  status: ('A' for Active; 'I' for Inactive)
REMARK    1  A    between atoms: CE_1  and  SD_2
REMARK    2  A    between atoms: SD_2  and  CG_3
REMARK    3  A    between atoms: CG_3  and  CB_4
REMARK    4  A    between atoms: CB_4  and  CA_5
REMARK    5  A    between atoms: CA_5  and  N_6
REMARK    6  A    between atoms: CA_5  and  C_32
REMARK    7  A    between atoms: C_7  and  C_9
REMARK    8  A    between atoms: C_12  and  N_13
REMARK    9  A    between atoms: C_14  and  C_16
REMARK   10  A    between atoms: C_16  and  C_17
REMARK   11  A    between atoms: C_24  and  C_25
REMARK   12  A    between atoms: C_30  and  C_31
REMARK   13  A    between atoms: C_32  and  OXT_34
REMARK                            x       y       z     vdW  Elec       q    Type
REMARK                         _______ _______ _______ _____ _____    ______ ____
ROOT
ATOM      1  C   UNK A   0       3.659   6.390  18.129  0.00  0.00    +0.000 A 
ATOM      2  C   UNK A   0       3.886   7.645  17.522  0.00  0.00    +0.000 A 
ATOM      3  C   UNK A   0       2.973   8.692  17.646  0.00  0.00    +0.000 A 
ATOM      4  C   UNK A   0       1.826   8.524  18.402  0.00  0.00    +0.000 A 
ATOM      5  C   UNK A   0       1.637   7.307  19.062  0.00  0.00    +0.000 A 
ATOM      6  C   UNK A   0       2.492   6.179  18.919  0.00  0.00    +0.000 A 
ENDROOT
BRANCH   6   7
ATOM      7  C   UNK A   0       2.130   4.911  19.653  0.00  0.00    +0.000 A 
ATOM      8  C   UNK A   0       2.380   4.810  21.042  0.00  0.00    +0.000 A 
ATOM      9  C   UNK A   0       2.087   3.662  21.787  0.00  0.00    +0.000 A 
ATOM     10  C   UNK A   0       1.446   2.595  21.186  0.00  0.00    +0.000 A 
ATOM     11  C   UNK A   0       1.135   2.662  19.834  0.00  0.00    +0.000 A 
ATOM     12  C   UNK A   0       1.499   3.780  19.047  0.00  0.00    +0.000 A 
ATOM     13  C   UNK A   0       1.171   3.659  17.576  0.00  0.00    +0.000 C 
ENDBRANCH   6   7
BRANCH   1  15
ATOM     14  N   MET A   1       5.363   5.436  16.636  0.00  0.00    +0.000 N 
ATOM     15  C   UNK A   0       4.686   5.339  17.841  0.00  0.00    +0.000 C 
ATOM     16  O   UNK A   0       4.914   4.437  18.637  0.00  0.00    +0.000 OA
ATOM     17  H   MET A   1       5.148   6.154  15.951  0.00  0.00    +0.000 HD
BRANCH  14  18
ATOM     18  CA  MET A   1       6.457   4.516  16.320  0.00  0.00    +0.000 C 
BRANCH  18  19
ATOM     19  C   MET A   1       7.665   4.836  17.207  0.00  0.00    +0.000 C 
ATOM     20  O   MET A   1       8.376   3.985  17.727  0.00  0.00    +0.000 OA
BRANCH  19  21
ATOM     21  OXT MET A   1       7.874   6.158  17.381  0.00  0.00    +0.000 OA
ATOM     22  HXT MET A   1       8.670   6.504  16.941  0.00  0.00    +0.000 HD
ENDBRANCH  19  21
ENDBRANCH  18  19
BRANCH  18  23
ATOM     23  CB  MET A   1       6.832   4.604  14.833  0.00  0.00    +0.000 C 
BRANCH  23  24
ATOM     24  CG  MET A   1       5.794   4.046  13.858  0.00  0.00    +0.000 C 
BRANCH  24  26
ATOM     25  CE  MET A   1       5.645   2.241  11.768  0.00  0.00    +0.000 C 
ATOM     26  SD  MET A   1       6.531   3.746  12.217  0.00  0.00    +0.000 S 
ENDBRANCH  24  26
ENDBRANCH  23  24
ENDBRANCH  18  23
ENDBRANCH  14  18
ENDBRANCH   1  15
BRANCH   4  27
ATOM     27  N   UNK A   0       0.814   9.504  18.521  0.00  0.00    +0.000 N 
ATOM     28  C   UNK A   0       0.433  10.140  19.690  0.00  0.00    +0.000 C 
ATOM     29  O   UNK A   0       0.865   9.892  20.821  0.00  0.00    +0.000 OA
ATOM     30  H   UNK A   0       0.255   9.693  17.694  0.00  0.00    +0.000 HD
BRANCH  28  31
ATOM     31  C   UNK A   0      -0.638  11.196  19.502  0.00  0.00    +0.000 C 
BRANCH  31  32
ATOM     32  C   UNK A   0      -0.006  12.518  19.246  0.00  0.00    +0.000 A 
ATOM     33  C   UNK A   0      -0.528  13.754  19.577  0.00  0.00    +0.000 A 
ATOM     34  S   UNK A   0       0.525  14.992  19.042  0.00  0.00    +0.000 S 
ATOM     35  C   UNK A   0       1.599  13.801  18.430  0.00  0.00    +0.000 A 
ATOM     36  N   UNK A   0       2.739  14.147  17.812  0.00  0.00    +0.000 N 
ATOM     37  N   UNK A   0       1.215  12.558  18.589  0.00  0.00    +0.000 NA
ATOM     38  H   UNK A   0       2.803  15.083  17.432  0.00  0.00    +0.000 HD
ATOM     39  H   UNK A   0       3.168  13.430  17.238  0.00  0.00    +0.000 HD
ENDBRANCH  31  32
ENDBRANCH  28  31
ENDBRANCH   4  27
TORSDOF 11
ENDMDL
MODEL 9
REMARK VINA RESULT:      -8.0      1.026      1.253
REMARK  Name = 
REMARK  13 active torsions:
REMARK  status: ('A' for Active; 'I' for Inactive)
REMARK    1  A    between atoms: CE_1  and  SD_2
REMARK    2  A    between atoms: SD_2  and  CG_3
REMARK    3  A    between atoms: CG_3  and  CB_4
REMARK    4  A    between atoms: CB_4  and  CA_5
REMARK    5  A    between atoms: CA_5  and  N_6
REMARK    6  A    between atoms: CA_5  and  C_32
REMARK    7  A    between atoms: C_7  and  C_9
REMARK    8  A    between atoms: C_12  and  N_13
REMARK    9  A    between atoms: C_14  and  C_16
REMARK   10  A    between atoms: C_16  and  C_17
REMARK   11  A    between atoms: C_24  and  C_25
REMARK   12  A    between atoms: C_30  and  C_31
REMARK   13  A    between atoms: C_32  and  OXT_34
REMARK                            x       y       z     vdW  Elec       q    Type
REMARK                         _______ _______ _______ _____ _____    ______ ____
ROOT
ATOM      1  C   UNK A   0       3.546   6.400  18.133  0.00  0.00    +0.000 A 
ATOM      2  C   UNK A   0       3.725   7.698  17.606  0.00  0.00    +0.000 A 
ATOM      3  C   UNK A   0       2.892   8.756  17.971  0.00  0.00    +0.000 A 
ATOM      4  C   UNK A   0       1.879   8.553  18.892  0.00  0.00    +0.000 A 
ATOM      5  C   UNK A   0       1.748   7.286  19.467  0.00  0.00    +0.000 A 
ATOM      6  C   UNK A   0       2.517   6.152  19.087  0.00  0.00    +0.000 A 
ENDROOT
BRANCH   6   7
ATOM      7  C   UNK A   0       2.224   4.833  19.761  0.00  0.00    +0.000 A 
ATOM      8  C   UNK A   0       2.483   4.679  21.142  0.00  0.00    +0.000 A 
ATOM      9  C   UNK A   0       2.254   3.484  21.833  0.00  0.00    +0.000 A 
ATOM     10  C   UNK A   0       1.669   2.414  21.182  0.00  0.00    +0.000 A 
ATOM     11  C   UNK A   0       1.351   2.528  19.835  0.00  0.00    +0.000 A 
ATOM     12  C   UNK A   0       1.653   3.699  19.101  0.00  0.00    +0.000 A 
ATOM     13  C   UNK A   0       1.327   3.631  17.627  0.00  0.00    +0.000 C 
ENDBRANCH   6   7
BRANCH   1  15
ATOM     14  N   MET A   1       4.682   5.356  16.220  0.00  0.00    +0.000 N 
ATOM     15  C   UNK A   0       4.464   5.350  17.587  0.00  0.00    +0.000 C 
ATOM     16  O   UNK A   0       4.995   4.526  18.321  0.00  0.00    +0.000 OA
ATOM     17  H   MET A   1       4.209   6.006  15.599  0.00  0.00    +0.000 HD
BRANCH  14  18
ATOM     18  CA  MET A   1       5.646   4.435  15.615  0.00  0.00    +0.000 C 
BRANCH  18  19
ATOM     19  C   MET A   1       7.070   4.900  15.943  0.00  0.00    +0.000 C 
ATOM     20  O   MET A   1       7.576   5.921  15.494  0.00  0.00    +0.000 OA
BRANCH  19  21
ATOM     21  OXT MET A   1       7.735   4.066  16.770  0.00  0.00    +0.000 OA
ATOM     22  HXT MET A   1       7.562   3.121  16.618  0.00  0.00    +0.000 HD
ENDBRANCH  19  21
ENDBRANCH  18  19
BRANCH  18  23
ATOM     23  CB  MET A   1       5.437   4.344  14.096  0.00  0.00    +0.000 C 
BRANCH  23  24
ATOM     24  CG  MET A   1       6.447   3.477  13.343  0.00  0.00    +0.000 C 
BRANCH  24  26
ATOM     25  CE  MET A   1       6.999   1.678  11.316  0.00  0.00    +0.000 C 
ATOM     26  SD  MET A   1       5.776   2.935  11.736  0.00  0.00    +0.000 S 
ENDBRANCH  24  26
ENDBRANCH  23  24
ENDBRANCH  18  23
ENDBRANCH  14  18
ENDBRANCH   1  15
BRANCH   4  27
ATOM     27  N   UNK A   0       0.945   9.547  19.263  0.00  0.00    +0.000 N 
ATOM     28  C   UNK A   0       0.997  10.883  18.905  0.00  0.00    +0.000 C 
ATOM     29  O   UNK A   0       1.909  11.427  18.275  0.00  0.00    +0.000 OA
ATOM     30  H   UNK A   0       0.221   9.277  19.923  0.00  0.00    +0.000 HD
BRANCH  28  31
ATOM     31  C   UNK A   0      -0.181  11.703  19.394  0.00  0.00    +0.000 C 
BRANCH  31  32
ATOM     32  C   UNK A   0      -1.402  11.343  18.625  0.00  0.00    +0.000 A 
ATOM     33  C   UNK A   0      -1.481  10.425  17.595  0.00  0.00    +0.000 A 
ATOM     34  S   UNK A   0      -3.076  10.381  16.977  0.00  0.00    +0.000 S 
ATOM     35  C   UNK A   0      -3.545  11.564  18.128  0.00  0.00    +0.000 A 
ATOM     36  N   UNK A   0      -4.804  12.025  18.176  0.00  0.00    +0.000 N 
ATOM     37  N   UNK A   0      -2.592  11.990  18.922  0.00  0.00    +0.000 NA
ATOM     38  H   UNK A   0      -5.377  11.916  17.349  0.00  0.00    +0.000 HD
ATOM     39  H   UNK A   0      -4.939  12.901  18.668  0.00  0.00    +0.000 HD
ENDBRANCH  31  32
ENDBRANCH  28  31
ENDBRANCH   4  27
TORSDOF 11
ENDMDL
