MODEL 1
REMARK VINA RESULT:      -7.1      0.000      0.000
REMARK  Name = 
REMARK  7 active torsions:
REMARK  status: ('A' for Active; 'I' for Inactive)
REMARK    1  A    between atoms: C_1  and  O_2
REMARK    2  A    between atoms: O_2  and  C_3
REMARK    3  A    between atoms: C_3  and  C_4
REMARK    4  A    between atoms: C_3  and  C_12
REMARK    5  A    between atoms: C_4  and  N_5
REMARK    6  A    between atoms: C_6  and  C_8
REMARK    7  A    between atoms: C_8  and  C_9
REMARK                            x       y       z     vdW  Elec       q    Type
REMARK                         _______ _______ _______ _____ _____    ______ ____
ROOT
ATOM      1  C   UNL     1       5.223   5.153  17.410  0.00  0.00    +0.000 C 
ENDROOT
BRANCH   1   2
ATOM      2  C   UNL     1       3.919   4.394  17.633  0.00  0.00    +0.000 A 
ATOM      3  C   UNL     1       3.911   2.988  17.639  0.00  0.00    +0.000 A 
ATOM      4  C   UNL     1       2.731   2.288  17.904  0.00  0.00    +0.000 A 
ATOM      5  C   UNL     1       1.559   2.987  18.165  0.00  0.00    +0.000 A 
ATOM      6  F   UNL     1       0.434   2.314  18.429  0.00  0.00    +0.000 F 
ATOM      7  C   UNL     1       1.541   4.375  18.160  0.00  0.00    +0.000 A 
ATOM      8  C   UNL     1       2.715   5.076  17.891  0.00  0.00    +0.000 A 
ENDBRANCH   1   2
BRANCH   1  10
ATOM      9  C   UNL     1       7.555   4.903  17.908  0.00  0.00    +0.000 C 
ATOM     10  O   UNL     1       6.320   4.255  17.642  0.00  0.00    +0.000 OA
ENDBRANCH   1  10
BRANCH   1  11
ATOM     11  C   UNL     1       5.250   5.792  16.001  0.00  0.00    +0.000 C 
BRANCH  11  12
ATOM     12  N   UNL     1       5.452   4.844  14.913  0.00  0.00    +0.000 N 
ATOM     13  C   UNL     1       6.619   4.851  14.193  0.00  0.00    +0.000 C 
ATOM     14  O   UNL     1       7.584   5.544  14.519  0.00  0.00    +0.000 OA
ATOM     15  H   UNL     1       4.652   4.334  14.562  0.00  0.00    +0.000 HD
BRANCH  13  16
ATOM     16  C   UNL     1       6.697   3.896  13.017  0.00  0.00    +0.000 C 
BRANCH  16  17
ATOM     17  C   UNL     1       5.457   3.107  12.698  0.00  0.00    +0.000 C 
ATOM     18  C   UNL     1       4.579   3.416  11.509  0.00  0.00    +0.000 C 
ATOM     19  C   UNL     1       5.463   2.202  11.487  0.00  0.00    +0.000 C 
ENDBRANCH  16  17
ENDBRANCH  13  16
ENDBRANCH  11  12
ENDBRANCH   1  11
TORSDOF 6
ENDMDL
MODEL 2
REMARK VINA RESULT:      -6.8      1.960      2.073
REMARK  Name = 
REMARK  7 active torsions:
REMARK  status: ('A' for Active; 'I' for Inactive)
REMARK    1  A    between atoms: C_1  and  O_2
REMARK    2  A    between atoms: O_2  and  C_3
REMARK    3  A    between atoms: C_3  and  C_4
REMARK    4  A    between atoms: C_3  and  C_12
REMARK    5  A    between atoms: C_4  and  N_5
REMARK    6  A    between atoms: C_6  and  C_8
REMARK    7  A    between atoms: C_8  and  C_9
REMARK                            x       y       z     vdW  Elec       q    Type
REMARK                         _______ _______ _______ _____ _____    ______ ____
ROOT
ATOM      1  C   UNL     1       5.408   6.039  16.560  0.00  0.00    +0.000 C 
ENDROOT
BRANCH   1   2
ATOM      2  C   UNL     1       4.416   5.882  17.709  0.00  0.00    +0.000 A 
ATOM      3  C   UNL     1       4.487   4.761  18.556  0.00  0.00    +0.000 A 
ATOM      4  C   UNL     1       3.620   4.643  19.646  0.00  0.00    +0.000 A 
ATOM      5  C   UNL     1       2.686   5.641  19.894  0.00  0.00    +0.000 A 
ATOM      6  F   UNL     1       1.865   5.530  20.945  0.00  0.00    +0.000 F 
ATOM      7  C   UNL     1       2.595   6.755  19.070  0.00  0.00    +0.000 A 
ATOM      8  C   UNL     1       3.454   6.872  17.978  0.00  0.00    +0.000 A 
ENDBRANCH   1   2
BRANCH   1  10
ATOM      9  C   UNL     1       7.388   7.020  17.491  0.00  0.00    +0.000 C 
ATOM     10  O   UNL     1       6.177   7.232  16.781  0.00  0.00    +0.000 OA
ENDBRANCH   1  10
BRANCH   1  11
ATOM     11  C   UNL     1       6.284   4.771  16.418  0.00  0.00    +0.000 C 
BRANCH  11  12
ATOM     12  N   UNL     1       6.225   4.142  15.105  0.00  0.00    +0.000 N 
ATOM     13  C   UNL     1       6.960   4.643  14.061  0.00  0.00    +0.000 C 
ATOM     14  O   UNL     1       7.795   5.536  14.218  0.00  0.00    +0.000 OA
ATOM     15  H   UNL     1       5.486   3.477  14.921  0.00  0.00    +0.000 HD
BRANCH  13  16
ATOM     16  C   UNL     1       6.758   3.984  12.710  0.00  0.00    +0.000 C 
BRANCH  16  17
ATOM     17  C   UNL     1       5.543   3.111  12.553  0.00  0.00    +0.000 C 
ATOM     18  C   UNL     1       4.583   3.252  11.396  0.00  0.00    +0.000 C 
ATOM     19  C   UNL     1       5.523   2.083  11.447  0.00  0.00    +0.000 C 
ENDBRANCH  16  17
ENDBRANCH  13  16
ENDBRANCH  11  12
ENDBRANCH   1  11
TORSDOF 6
ENDMDL
MODEL 3
REMARK VINA RESULT:      -6.7      1.400      1.764
REMARK  Name = 
REMARK  7 active torsions:
REMARK  status: ('A' for Active; 'I' for Inactive)
REMARK    1  A    between atoms: C_1  and  O_2
REMARK    2  A    between atoms: O_2  and  C_3
REMARK    3  A    between atoms: C_3  and  C_4
REMARK    4  A    between atoms: C_3  and  C_12
REMARK    5  A    between atoms: C_4  and  N_5
REMARK    6  A    between atoms: C_6  and  C_8
REMARK    7  A    between atoms: C_8  and  C_9
REMARK                            x       y       z     vdW  Elec       q    Type
REMARK                         _______ _______ _______ _____ _____    ______ ____
ROOT
ATOM      1  C   UNL     1       4.323   5.285  16.981  0.00  0.00    +0.000 C 
ENDROOT
BRANCH   1   2
ATOM      2  C   UNL     1       3.536   4.526  18.045  0.00  0.00    +0.000 A 
ATOM      3  C   UNL     1       2.130   4.567  18.049  0.00  0.00    +0.000 A 
ATOM      4  C   UNL     1       1.403   3.824  18.982  0.00  0.00    +0.000 A 
ATOM      5  C   UNL     1       2.075   3.037  19.910  0.00  0.00    +0.000 A 
ATOM      6  F   UNL     1       1.375   2.319  20.796  0.00  0.00    +0.000 F 
ATOM      7  C   UNL     1       3.462   2.983  19.929  0.00  0.00    +0.000 A 
ATOM      8  C   UNL     1       4.190   3.728  19.002  0.00  0.00    +0.000 A 
ENDBRANCH   1   2
BRANCH   1  10
ATOM      9  C   UNL     1       5.910   7.065  17.228  0.00  0.00    +0.000 C 
ATOM     10  O   UNL     1       4.586   6.611  17.468  0.00  0.00    +0.000 OA
ENDBRANCH   1  10
BRANCH   1  11
ATOM     11  C   UNL     1       5.608   4.513  16.598  0.00  0.00    +0.000 C 
BRANCH  11  12
ATOM     12  N   UNL     1       5.640   4.045  15.218  0.00  0.00    +0.000 N 
ATOM     13  C   UNL     1       6.589   4.514  14.346  0.00  0.00    +0.000 C 
ATOM     14  O   UNL     1       7.523   5.225  14.719  0.00  0.00    +0.000 OA
ATOM     15  H   UNL     1       4.839   3.542  14.860  0.00  0.00    +0.000 HD
BRANCH  13  16
ATOM     16  C   UNL     1       6.482   4.045  12.908  0.00  0.00    +0.000 C 
BRANCH  16  17
ATOM     17  C   UNL     1       5.347   3.113  12.579  0.00  0.00    +0.000 C 
ATOM     18  C   UNL     1       4.499   3.268  11.339  0.00  0.00    +0.000 C 
ATOM     19  C   UNL     1       5.505   2.157  11.420  0.00  0.00    +0.000 C 
ENDBRANCH  16  17
ENDBRANCH  13  16
ENDBRANCH  11  12
ENDBRANCH   1  11
TORSDOF 6
ENDMDL
MODEL 4
REMARK VINA RESULT:      -6.7      1.175      1.335
REMARK  Name = 
REMARK  7 active torsions:
REMARK  status: ('A' for Active; 'I' for Inactive)
REMARK    1  A    between atoms: C_1  and  O_2
REMARK    2  A    between atoms: O_2  and  C_3
REMARK    3  A    between atoms: C_3  and  C_4
REMARK    4  A    between atoms: C_3  and  C_12
REMARK    5  A    between atoms: C_4  and  N_5
REMARK    6  A    between atoms: C_6  and  C_8
REMARK    7  A    between atoms: C_8  and  C_9
REMARK                            x       y       z     vdW  Elec       q    Type
REMARK                         _______ _______ _______ _____ _____    ______ ____
ROOT
ATOM      1  C   UNL     1       5.126   5.547  18.723  0.00  0.00    +0.000 C 
ENDROOT
BRANCH   1   2
ATOM      2  C   UNL     1       3.918   4.616  18.673  0.00  0.00    +0.000 A 
ATOM      3  C   UNL     1       4.036   3.280  19.096  0.00  0.00    +0.000 A 
ATOM      4  C   UNL     1       2.919   2.441  19.110  0.00  0.00    +0.000 A 
ATOM      5  C   UNL     1       1.684   2.932  18.705  0.00  0.00    +0.000 A 
ATOM      6  F   UNL     1       0.614   2.129  18.729  0.00  0.00    +0.000 F 
ATOM      7  C   UNL     1       1.543   4.246  18.279  0.00  0.00    +0.000 A 
ATOM      8  C   UNL     1       2.657   5.083  18.259  0.00  0.00    +0.000 A 
ENDBRANCH   1   2
BRANCH   1  10
ATOM      9  C   UNL     1       7.414   5.595  19.437  0.00  0.00    +0.000 C 
ATOM     10  O   UNL     1       6.188   4.878  19.421  0.00  0.00    +0.000 OA
ENDBRANCH   1  10
BRANCH   1  11
ATOM     11  C   UNL     1       5.526   6.000  17.300  0.00  0.00    +0.000 C 
BRANCH  11  12
ATOM     12  N   UNL     1       5.381   4.973  16.277  0.00  0.00    +0.000 N 
ATOM     13  C   UNL     1       6.467   4.561  15.547  0.00  0.00    +0.000 C 
ATOM     14  O   UNL     1       7.612   4.926  15.817  0.00  0.00    +0.000 OA
ATOM     15  H   UNL     1       4.450   4.726  15.968  0.00  0.00    +0.000 HD
BRANCH  13  16
ATOM     16  C   UNL     1       6.200   3.561  14.438  0.00  0.00    +0.000 C 
BRANCH  16  17
ATOM     17  C   UNL     1       6.085   4.107  13.041  0.00  0.00    +0.000 C 
ATOM     18  C   UNL     1       6.842   3.523  11.873  0.00  0.00    +0.000 C 
ATOM     19  C   UNL     1       5.365   3.287  11.997  0.00  0.00    +0.000 C 
ENDBRANCH  16  17
ENDBRANCH  13  16
ENDBRANCH  11  12
ENDBRANCH   1  11
TORSDOF 6
ENDMDL
MODEL 5
REMARK VINA RESULT:      -6.6      3.149      6.447
REMARK  Name = 
REMARK  7 active torsions:
REMARK  status: ('A' for Active; 'I' for Inactive)
REMARK    1  A    between atoms: C_1  and  O_2
REMARK    2  A    between atoms: O_2  and  C_3
REMARK    3  A    between atoms: C_3  and  C_4
REMARK    4  A    between atoms: C_3  and  C_12
REMARK    5  A    between atoms: C_4  and  N_5
REMARK    6  A    between atoms: C_6  and  C_8
REMARK    7  A    between atoms: C_8  and  C_9
REMARK                            x       y       z     vdW  Elec       q    Type
REMARK                         _______ _______ _______ _____ _____    ______ ____
ROOT
ATOM      1  C   UNL     1       5.119   4.336  16.115  0.00  0.00    +0.000 C 
ENDROOT
BRANCH   1   2
ATOM      2  C   UNL     1       6.044   5.244  16.918  0.00  0.00    +0.000 A 
ATOM      3  C   UNL     1       6.994   4.688  17.795  0.00  0.00    +0.000 A 
ATOM      4  C   UNL     1       7.885   5.513  18.487  0.00  0.00    +0.000 A 
ATOM      5  C   UNL     1       7.834   6.889  18.304  0.00  0.00    +0.000 A 
ATOM      6  F   UNL     1       8.696   7.675  18.960  0.00  0.00    +0.000 F 
ATOM      7  C   UNL     1       6.903   7.461  17.447  0.00  0.00    +0.000 A 
ATOM      8  C   UNL     1       6.009   6.642  16.760  0.00  0.00    +0.000 A 
ENDBRANCH   1   2
BRANCH   1  10
ATOM      9  C   UNL     1       6.368   4.237  14.071  0.00  0.00    +0.000 C 
ATOM     10  O   UNL     1       5.919   3.541  15.225  0.00  0.00    +0.000 OA
ENDBRANCH   1  10
BRANCH   1  11
ATOM     11  C   UNL     1       4.234   3.486  17.057  0.00  0.00    +0.000 C 
BRANCH  11  12
ATOM     12  N   UNL     1       3.502   4.256  18.053  0.00  0.00    +0.000 N 
ATOM     13  C   UNL     1       3.659   3.991  19.390  0.00  0.00    +0.000 C 
ATOM     14  O   UNL     1       4.516   3.208  19.804  0.00  0.00    +0.000 OA
ATOM     15  H   UNL     1       2.729   4.832  17.747  0.00  0.00    +0.000 HD
BRANCH  13  16
ATOM     16  C   UNL     1       2.782   4.777  20.346  0.00  0.00    +0.000 C 
BRANCH  16  17
ATOM     17  C   UNL     1       1.457   4.166  20.712  0.00  0.00    +0.000 C 
ATOM     18  C   UNL     1       1.037   2.792  20.248  0.00  0.00    +0.000 C 
ATOM     19  C   UNL     1       1.434   3.006  21.680  0.00  0.00    +0.000 C 
ENDBRANCH  16  17
ENDBRANCH  13  16
ENDBRANCH  11  12
ENDBRANCH   1  11
TORSDOF 6
ENDMDL
MODEL 6
REMARK VINA RESULT:      -6.6      2.222      2.826
REMARK  Name = 
REMARK  7 active torsions:
REMARK  status: ('A' for Active; 'I' for Inactive)
REMARK    1  A    between atoms: C_1  and  O_2
REMARK    2  A    between atoms: O_2  and  C_3
REMARK    3  A    between atoms: C_3  and  C_4
REMARK    4  A    between atoms: C_3  and  C_12
REMARK    5  A    between atoms: C_4  and  N_5
REMARK    6  A    between atoms: C_6  and  C_8
REMARK    7  A    between atoms: C_8  and  C_9
REMARK                            x       y       z     vdW  Elec       q    Type
REMARK                         _______ _______ _______ _____ _____    ______ ____
ROOT
ATOM      1  C   UNL     1       2.982   5.375  17.850  0.00  0.00    +0.000 C 
ENDROOT
BRANCH   1   2
ATOM      2  C   UNL     1       2.461   4.533  19.011  0.00  0.00    +0.000 A 
ATOM      3  C   UNL     1       2.792   4.871  20.335  0.00  0.00    +0.000 A 
ATOM      4  C   UNL     1       2.267   4.140  21.404  0.00  0.00    +0.000 A 
ATOM      5  C   UNL     1       1.412   3.074  21.156  0.00  0.00    +0.000 A 
ATOM      6  F   UNL     1       0.903   2.383  22.182  0.00  0.00    +0.000 F 
ATOM      7  C   UNL     1       1.074   2.718  19.857  0.00  0.00    +0.000 A 
ATOM      8  C   UNL     1       1.600   3.442  18.788  0.00  0.00    +0.000 A 
ENDBRANCH   1   2
BRANCH   1  10
ATOM      9  C   UNL     1       3.439   7.727  17.759  0.00  0.00    +0.000 C 
ATOM     10  O   UNL     1       2.474   6.711  17.992  0.00  0.00    +0.000 OA
ENDBRANCH   1  10
BRANCH   1  11
ATOM     11  C   UNL     1       4.526   5.317  17.784  0.00  0.00    +0.000 C 
BRANCH  11  12
ATOM     12  N   UNL     1       5.053   4.368  16.811  0.00  0.00    +0.000 N 
ATOM     13  C   UNL     1       5.556   4.808  15.613  0.00  0.00    +0.000 C 
ATOM     14  O   UNL     1       5.716   6.005  15.372  0.00  0.00    +0.000 OA
ATOM     15  H   UNL     1       4.849   3.386  16.936  0.00  0.00    +0.000 HD
BRANCH  13  16
ATOM     16  C   UNL     1       5.988   3.741  14.626  0.00  0.00    +0.000 C 
BRANCH  16  17
ATOM     17  C   UNL     1       6.034   4.134  13.174  0.00  0.00    +0.000 C 
ATOM     18  C   UNL     1       6.565   3.218  12.098  0.00  0.00    +0.000 C 
ATOM     19  C   UNL     1       5.088   3.461  12.208  0.00  0.00    +0.000 C 
ENDBRANCH  16  17
ENDBRANCH  13  16
ENDBRANCH  11  12
ENDBRANCH   1  11
TORSDOF 6
ENDMDL
MODEL 7
REMARK VINA RESULT:      -6.6      3.185      6.500
REMARK  Name = 
REMARK  7 active torsions:
REMARK  status: ('A' for Active; 'I' for Inactive)
REMARK    1  A    between atoms: C_1  and  O_2
REMARK    2  A    between atoms: O_2  and  C_3
REMARK    3  A    between atoms: C_3  and  C_4
REMARK    4  A    between atoms: C_3  and  C_12
REMARK    5  A    between atoms: C_4  and  N_5
REMARK    6  A    between atoms: C_6  and  C_8
REMARK    7  A    between atoms: C_8  and  C_9
REMARK                            x       y       z     vdW  Elec       q    Type
REMARK                         _______ _______ _______ _____ _____    ______ ____
ROOT
ATOM      1  C   UNL     1       5.202   4.184  15.996  0.00  0.00    +0.000 C 
ENDROOT
BRANCH   1   2
ATOM      2  C   UNL     1       6.147   5.104  16.763  0.00  0.00    +0.000 A 
ATOM      3  C   UNL     1       6.042   6.500  16.624  0.00  0.00    +0.000 A 
ATOM      4  C   UNL     1       6.864   7.349  17.370  0.00  0.00    +0.000 A 
ATOM      5  C   UNL     1       7.788   6.809  18.257  0.00  0.00    +0.000 A 
ATOM      6  F   UNL     1       8.565   7.625  18.977  0.00  0.00    +0.000 F 
ATOM      7  C   UNL     1       7.912   5.435  18.408  0.00  0.00    +0.000 A 
ATOM      8  C   UNL     1       7.098   4.585  17.661  0.00  0.00    +0.000 A 
ENDBRANCH   1   2
BRANCH   1  10
ATOM      9  C   UNL     1       6.106   4.056  13.780  0.00  0.00    +0.000 C 
ATOM     10  O   UNL     1       5.971   3.429  15.047  0.00  0.00    +0.000 OA
ENDBRANCH   1  10
BRANCH   1  11
ATOM     11  C   UNL     1       4.398   3.293  16.972  0.00  0.00    +0.000 C 
BRANCH  11  12
ATOM     12  N   UNL     1       3.834   4.003  18.112  0.00  0.00    +0.000 N 
ATOM     13  C   UNL     1       2.484   4.233  18.190  0.00  0.00    +0.000 C 
ATOM     14  O   UNL     1       1.689   3.734  17.391  0.00  0.00    +0.000 OA
ATOM     15  H   UNL     1       4.461   4.504  18.727  0.00  0.00    +0.000 HD
BRANCH  13  16
ATOM     16  C   UNL     1       2.003   5.066  19.363  0.00  0.00    +0.000 C 
BRANCH  16  17
ATOM     17  C   UNL     1       1.239   4.346  20.441  0.00  0.00    +0.000 C 
ATOM     18  C   UNL     1       1.257   2.844  20.587  0.00  0.00    +0.000 C 
ATOM     19  C   UNL     1       2.009   3.696  21.567  0.00  0.00    +0.000 C 
ENDBRANCH  16  17
ENDBRANCH  13  16
ENDBRANCH  11  12
ENDBRANCH   1  11
TORSDOF 6
ENDMDL
MODEL 8
REMARK VINA RESULT:      -6.5      3.168      6.479
REMARK  Name = 
REMARK  7 active torsions:
REMARK  status: ('A' for Active; 'I' for Inactive)
REMARK    1  A    between atoms: C_1  and  O_2
REMARK    2  A    between atoms: O_2  and  C_3
REMARK    3  A    between atoms: C_3  and  C_4
REMARK    4  A    between atoms: C_3  and  C_12
REMARK    5  A    between atoms: C_4  and  N_5
REMARK    6  A    between atoms: C_6  and  C_8
REMARK    7  A    between atoms: C_8  and  C_9
REMARK                            x       y       z     vdW  Elec       q    Type
REMARK                         _______ _______ _______ _____ _____    ______ ____
ROOT
ATOM      1  C   UNL     1       5.295   4.174  16.154  0.00  0.00    +0.000 C 
ENDROOT
BRANCH   1   2
ATOM      2  C   UNL     1       6.162   5.161  16.929  0.00  0.00    +0.000 A 
ATOM      3  C   UNL     1       7.045   4.698  17.921  0.00  0.00    +0.000 A 
ATOM      4  C   UNL     1       7.886   5.590  18.592  0.00  0.00    +0.000 A 
ATOM      5  C   UNL     1       7.852   6.942  18.273  0.00  0.00    +0.000 A 
ATOM      6  F   UNL     1       8.666   7.791  18.909  0.00  0.00    +0.000 F 
ATOM      7  C   UNL     1       6.986   7.423  17.300  0.00  0.00    +0.000 A 
ATOM      8  C   UNL     1       6.141   6.536  16.634  0.00  0.00    +0.000 A 
ENDBRANCH   1   2
BRANCH   1  10
ATOM      9  C   UNL     1       6.189   4.118  13.930  0.00  0.00    +0.000 C 
ATOM     10  O   UNL     1       6.123   3.489  15.201  0.00  0.00    +0.000 OA
ENDBRANCH   1  10
BRANCH   1  11
ATOM     11  C   UNL     1       4.560   3.215  17.120  0.00  0.00    +0.000 C 
BRANCH  11  12
ATOM     12  N   UNL     1       3.321   3.748  17.672  0.00  0.00    +0.000 N 
ATOM     13  C   UNL     1       2.427   2.919  18.301  0.00  0.00    +0.000 C 
ATOM     14  O   UNL     1       2.692   1.742  18.550  0.00  0.00    +0.000 OA
ATOM     15  H   UNL     1       3.033   4.679  17.402  0.00  0.00    +0.000 HD
BRANCH  13  16
ATOM     16  C   UNL     1       1.123   3.546  18.754  0.00  0.00    +0.000 C 
BRANCH  16  17
ATOM     17  C   UNL     1       1.011   3.908  20.210  0.00  0.00    +0.000 C 
ATOM     18  C   UNL     1       2.209   3.974  21.127  0.00  0.00    +0.000 C 
ATOM     19  C   UNL     1       1.548   5.242  20.672  0.00  0.00    +0.000 C 
ENDBRANCH  16  17
ENDBRANCH  13  16
ENDBRANCH  11  12
ENDBRANCH   1  11
TORSDOF 6
ENDMDL
MODEL 9
REMARK VINA RESULT:      -6.5      1.448      1.724
REMARK  Name = 
REMARK  7 active torsions:
REMARK  status: ('A' for Active; 'I' for Inactive)
REMARK    1  A    between atoms: C_1  and  O_2
REMARK    2  A    between atoms: O_2  and  C_3
REMARK    3  A    between atoms: C_3  and  C_4
REMARK    4  A    between atoms: C_3  and  C_12
REMARK    5  A    between atoms: C_4  and  N_5
REMARK    6  A    between atoms: C_6  and  C_8
REMARK    7  A    between atoms: C_8  and  C_9
REMARK                            x       y       z     vdW  Elec       q    Type
REMARK                         _______ _______ _______ _____ _____    ______ ____
ROOT
ATOM      1  C   UNL     1       4.559   4.982  17.252  0.00  0.00    +0.000 C 
ENDROOT
BRANCH   1   2
ATOM      2  C   UNL     1       3.718   4.145  18.211  0.00  0.00    +0.000 A 
ATOM      3  C   UNL     1       4.343   3.335  19.176  0.00  0.00    +0.000 A 
ATOM      4  C   UNL     1       3.578   2.614  20.097  0.00  0.00    +0.000 A 
ATOM      5  C   UNL     1       2.192   2.703  20.060  0.00  0.00    +0.000 A 
ATOM      6  F   UNL     1       1.462   2.020  20.950  0.00  0.00    +0.000 F 
ATOM      7  C   UNL     1       1.552   3.494  19.115  0.00  0.00    +0.000 A 
ATOM      8  C   UNL     1       2.313   4.209  18.191  0.00  0.00    +0.000 A 
ENDBRANCH   1   2
BRANCH   1  10
ATOM      9  C   UNL     1       4.135   7.342  17.255  0.00  0.00    +0.000 C 
ATOM     10  O   UNL     1       4.818   6.256  17.864  0.00  0.00    +0.000 OA
ENDBRANCH   1  10
BRANCH   1  11
ATOM     11  C   UNL     1       5.849   4.226  16.855  0.00  0.00    +0.000 C 
BRANCH  11  12
ATOM     12  N   UNL     1       5.897   3.806  15.461  0.00  0.00    +0.000 N 
ATOM     13  C   UNL     1       6.659   4.495  14.552  0.00  0.00    +0.000 C 
ATOM     14  O   UNL     1       7.434   5.389  14.895  0.00  0.00    +0.000 OA
ATOM     15  H   UNL     1       5.206   3.144  15.132  0.00  0.00    +0.000 HD
BRANCH  13  16
ATOM     16  C   UNL     1       6.567   4.043  13.107  0.00  0.00    +0.000 C 
BRANCH  16  17
ATOM     17  C   UNL     1       5.389   3.185  12.736  0.00  0.00    +0.000 C 
ATOM     18  C   UNL     1       4.556   3.435  11.501  0.00  0.00    +0.000 C 
ATOM     19  C   UNL     1       5.503   2.271  11.538  0.00  0.00    +0.000 C 
ENDBRANCH  16  17
ENDBRANCH  13  16
ENDBRANCH  11  12
ENDBRANCH   1  11
TORSDOF 6
ENDMDL
