MODEL 1
REMARK VINA RESULT:      -9.0      0.000      0.000
REMARK  Name = 
REMARK  5 active torsions:
REMARK  status: ('A' for Active; 'I' for Inactive)
REMARK    1  A    between atoms: C_1  and  C_2
REMARK    2  A    between atoms: C_2  and  C_3
REMARK    3  A    between atoms: C_9  and  N_10
REMARK    4  A    between atoms: C_13  and  C_14
REMARK    5  A    between atoms: C_16  and  C_17
REMARK                            x       y       z     vdW  Elec       q    Type
REMARK                         _______ _______ _______ _____ _____    ______ ____
ROOT
ATOM      1  N   UNL     1       1.264   8.679  20.151  0.00  0.00    +0.000 N 
ATOM      2  C   UNL     1       1.421   9.307  21.459  0.00  0.00    +0.000 C 
ATOM      3  C   UNL     1       0.061   9.870  21.888  0.00  0.00    +0.000 C 
ATOM      4  C   UNL     1      -0.566  10.788  20.827  0.00  0.00    +0.000 C 
ATOM      5  C   UNL     1      -0.567  10.115  19.445  0.00  0.00    +0.000 C 
ATOM      6  C   UNL     1       0.805   9.552  19.069  0.00  0.00    +0.000 C 
ENDROOT
BRANCH   1  15
ATOM      7  C   UNL     1       2.608   3.095  17.497  0.00  0.00    +0.000 C 
ATOM      8  C   UNL     1       3.372   3.568  18.749  0.00  0.00    +0.000 C 
ATOM      9  C   UNL     1       4.862   3.732  18.383  0.00  0.00    +0.000 C 
ATOM     10  C   UNL     1       3.272   2.511  19.875  0.00  0.00    +0.000 C 
ATOM     11  C   UNL     1       1.896   2.504  20.533  0.00  0.00    +0.000 C 
ATOM     12  C   UNL     1       1.623   3.851  21.189  0.00  0.00    +0.000 C 
ATOM     13  C   UNL     1       1.965   5.022  20.307  0.00  0.00    +0.000 A 
ATOM     14  C   UNL     1       1.479   6.296  20.646  0.00  0.00    +0.000 A 
ATOM     15  C   UNL     1       1.771   7.424  19.875  0.00  0.00    +0.000 A 
ATOM     16  C   UNL     1       2.583   7.173  18.769  0.00  0.00    +0.000 A 
ATOM     17  N   UNL     1       3.094   5.972  18.412  0.00  0.00    +0.000 NA
ATOM     18  C   UNL     1       2.794   4.907  19.190  0.00  0.00    +0.000 A 
ENDBRANCH   1  15
BRANCH   4  19
ATOM     19  C   UNL     1       0.159  12.088  20.781  0.00  0.00    +0.000 A 
ATOM     20  N   UNL     1       0.473  12.797  19.728  0.00  0.00    +0.000 NA
ATOM     21  C   UNL     1       1.120  13.878  20.267  0.00  0.00    +0.000 A 
ATOM     22  N   UNL     1       1.248  13.824  21.600  0.00  0.00    +0.000 NA
ATOM     23  O   UNL     1       0.595  12.636  21.950  0.00  0.00    +0.000 OA
BRANCH  21  24
ATOM     24  C   UNL     1       1.617  14.917  19.379  0.00  0.00    +0.000 A 
ATOM     25  C   UNL     1       2.815  14.646  18.680  0.00  0.00    +0.000 A 
ATOM     26  C   UNL     1       3.300  15.528  17.715  0.00  0.00    +0.000 A 
ATOM     27  C   UNL     1       2.593  16.689  17.446  0.00  0.00    +0.000 A 
ATOM     28  F   UNL     1       3.035  17.521  16.495  0.00  0.00    +0.000 F 
ATOM     29  C   UNL     1       1.423  16.991  18.133  0.00  0.00    +0.000 A 
ATOM     30  C   UNL     1       0.932  16.109  19.103  0.00  0.00    +0.000 A 
ATOM     31 CL   UNL     1      -0.568  16.536  19.847  0.00  0.00    +0.000 Cl
ENDBRANCH  21  24
ENDBRANCH   4  19
TORSDOF 3
ENDMDL
MODEL 2
REMARK VINA RESULT:      -8.9      1.045      1.382
REMARK  Name = 
REMARK  5 active torsions:
REMARK  status: ('A' for Active; 'I' for Inactive)
REMARK    1  A    between atoms: C_1  and  C_2
REMARK    2  A    between atoms: C_2  and  C_3
REMARK    3  A    between atoms: C_9  and  N_10
REMARK    4  A    between atoms: C_13  and  C_14
REMARK    5  A    between atoms: C_16  and  C_17
REMARK                            x       y       z     vdW  Elec       q    Type
REMARK                         _______ _______ _______ _____ _____    ______ ____
ROOT
ATOM      1  N   UNL     1       1.220   8.838  20.134  0.00  0.00    +0.000 N 
ATOM      2  C   UNL     1       1.423   9.499  21.420  0.00  0.00    +0.000 C 
ATOM      3  C   UNL     1       0.061   9.985  21.930  0.00  0.00    +0.000 C 
ATOM      4  C   UNL     1      -0.690  10.843  20.899  0.00  0.00    +0.000 C 
ATOM      5  C   UNL     1      -0.739  10.145  19.529  0.00  0.00    +0.000 C 
ATOM      6  C   UNL     1       0.638   9.661  19.072  0.00  0.00    +0.000 C 
ENDROOT
BRANCH   1  15
ATOM      7  C   UNL     1       2.710   3.282  17.500  0.00  0.00    +0.000 C 
ATOM      8  C   UNL     1       3.544   3.839  18.671  0.00  0.00    +0.000 C 
ATOM      9  C   UNL     1       4.983   4.090  18.174  0.00  0.00    +0.000 C 
ATOM     10  C   UNL     1       3.611   2.809  19.824  0.00  0.00    +0.000 C 
ATOM     11  C   UNL     1       2.300   2.731  20.598  0.00  0.00    +0.000 C 
ATOM     12  C   UNL     1       1.992   4.076  21.245  0.00  0.00    +0.000 C 
ATOM     13  C   UNL     1       2.179   5.241  20.312  0.00  0.00    +0.000 A 
ATOM     14  C   UNL     1       1.638   6.490  20.663  0.00  0.00    +0.000 A 
ATOM     15  C   UNL     1       1.787   7.612  19.844  0.00  0.00    +0.000 A 
ATOM     16  C   UNL     1       2.517   7.384  18.678  0.00  0.00    +0.000 A 
ATOM     17  N   UNL     1       3.076   6.209  18.306  0.00  0.00    +0.000 NA
ATOM     18  C   UNL     1       2.916   5.149  19.129  0.00  0.00    +0.000 A 
ENDBRANCH   1  15
BRANCH   4  19
ATOM     19  C   UNL     1      -0.052  12.184  20.787  0.00  0.00    +0.000 A 
ATOM     20  N   UNL     1      -0.006  12.968  19.741  0.00  0.00    +0.000 NA
ATOM     21  C   UNL     1       0.692  14.054  20.200  0.00  0.00    +0.000 A 
ATOM     22  N   UNL     1       1.107  13.933  21.469  0.00  0.00    +0.000 NA
ATOM     23  O   UNL     1       0.600  12.691  21.869  0.00  0.00    +0.000 OA
BRANCH  21  24
ATOM     24  C   UNL     1       0.937  15.167  19.298  0.00  0.00    +0.000 A 
ATOM     25  C   UNL     1      -0.144  16.042  19.047  0.00  0.00    +0.000 A 
ATOM     26  C   UNL     1       0.030  17.204  18.297  0.00  0.00    +0.000 A 
ATOM     27  C   UNL     1       1.284  17.497  17.788  0.00  0.00    +0.000 A 
ATOM     28  F   UNL     1       1.464  18.630  17.098  0.00  0.00    +0.000 F 
ATOM     29  C   UNL     1       2.362  16.645  18.001  0.00  0.00    +0.000 A 
ATOM     30  C   UNL     1       2.192  15.477  18.754  0.00  0.00    +0.000 A 
ATOM     31 CL   UNL     1       3.608  14.522  19.027  0.00  0.00    +0.000 Cl
ENDBRANCH  21  24
ENDBRANCH   4  19
TORSDOF 3
ENDMDL
MODEL 3
REMARK VINA RESULT:      -8.8      0.979      1.050
REMARK  Name = 
REMARK  5 active torsions:
REMARK  status: ('A' for Active; 'I' for Inactive)
REMARK    1  A    between atoms: C_1  and  C_2
REMARK    2  A    between atoms: C_2  and  C_3
REMARK    3  A    between atoms: C_9  and  N_10
REMARK    4  A    between atoms: C_13  and  C_14
REMARK    5  A    between atoms: C_16  and  C_17
REMARK                            x       y       z     vdW  Elec       q    Type
REMARK                         _______ _______ _______ _____ _____    ______ ____
ROOT
ATOM      1  N   UNL     1       1.339   8.680  20.066  0.00  0.00    +0.000 N 
ATOM      2  C   UNL     1       1.185   9.158  21.437  0.00  0.00    +0.000 C 
ATOM      3  C   UNL     1      -0.218   9.759  21.581  0.00  0.00    +0.000 C 
ATOM      4  C   UNL     1      -0.525  10.821  20.512  0.00  0.00    +0.000 C 
ATOM      5  C   UNL     1      -0.202  10.296  19.103  0.00  0.00    +0.000 C 
ATOM      6  C   UNL     1       1.199   9.689  19.013  0.00  0.00    +0.000 C 
ENDROOT
BRANCH   1  15
ATOM      7  C   UNL     1       2.618   3.072  17.431  0.00  0.00    +0.000 C 
ATOM      8  C   UNL     1       3.458   3.587  18.617  0.00  0.00    +0.000 C 
ATOM      9  C   UNL     1       4.915   3.775  18.143  0.00  0.00    +0.000 C 
ATOM     10  C   UNL     1       3.461   2.551  19.767  0.00  0.00    +0.000 C 
ATOM     11  C   UNL     1       2.136   2.529  20.520  0.00  0.00    +0.000 C 
ATOM     12  C   UNL     1       1.879   3.884  21.168  0.00  0.00    +0.000 C 
ATOM     13  C   UNL     1       2.132   5.043  20.243  0.00  0.00    +0.000 A 
ATOM     14  C   UNL     1       1.643   6.313  20.591  0.00  0.00    +0.000 A 
ATOM     15  C   UNL     1       1.854   7.431  19.779  0.00  0.00    +0.000 A 
ATOM     16  C   UNL     1       2.592   7.174  18.623  0.00  0.00    +0.000 A 
ATOM     17  N   UNL     1       3.103   5.977  18.255  0.00  0.00    +0.000 NA
ATOM     18  C   UNL     1       2.883   4.922  19.071  0.00  0.00    +0.000 A 
ENDBRANCH   1  15
BRANCH   4  19
ATOM     19  C   UNL     1       0.235  12.069  20.798  0.00  0.00    +0.000 A 
ATOM     20  N   UNL     1       1.037  12.723  19.999  0.00  0.00    +0.000 NA
ATOM     21  C   UNL     1       1.450  13.777  20.772  0.00  0.00    +0.000 A 
ATOM     22  N   UNL     1       0.962  13.757  22.019  0.00  0.00    +0.000 NA
ATOM     23  O   UNL     1       0.138  12.625  22.038  0.00  0.00    +0.000 OA
BRANCH  21  24
ATOM     24  C   UNL     1       2.365  14.752  20.202  0.00  0.00    +0.000 A 
ATOM     25  C   UNL     1       3.743  14.572  20.464  0.00  0.00    +0.000 A 
ATOM     26  C   UNL     1       4.702  15.382  19.858  0.00  0.00    +0.000 A 
ATOM     27  C   UNL     1       4.291  16.382  18.992  0.00  0.00    +0.000 A 
ATOM     28  F   UNL     1       5.210  17.140  18.381  0.00  0.00    +0.000 F 
ATOM     29  C   UNL     1       2.942  16.597  18.733  0.00  0.00    +0.000 A 
ATOM     30  C   UNL     1       1.975  15.785  19.338  0.00  0.00    +0.000 A 
ATOM     31 CL   UNL     1       0.331  16.081  18.893  0.00  0.00    +0.000 Cl
ENDBRANCH  21  24
ENDBRANCH   4  19
TORSDOF 3
ENDMDL
MODEL 4
REMARK VINA RESULT:      -8.7      1.512      1.723
REMARK  Name = 
REMARK  5 active torsions:
REMARK  status: ('A' for Active; 'I' for Inactive)
REMARK    1  A    between atoms: C_1  and  C_2
REMARK    2  A    between atoms: C_2  and  C_3
REMARK    3  A    between atoms: C_9  and  N_10
REMARK    4  A    between atoms: C_13  and  C_14
REMARK    5  A    between atoms: C_16  and  C_17
REMARK                            x       y       z     vdW  Elec       q    Type
REMARK                         _______ _______ _______ _____ _____    ______ ____
ROOT
ATOM      1  N   UNL     1       1.353   8.687  20.253  0.00  0.00    +0.000 N 
ATOM      2  C   UNL     1       1.414   9.195  21.621  0.00  0.00    +0.000 C 
ATOM      3  C   UNL     1       0.049   9.800  21.970  0.00  0.00    +0.000 C 
ATOM      4  C   UNL     1      -0.424  10.838  20.939  0.00  0.00    +0.000 C 
ATOM      5  C   UNL     1      -0.325  10.282  19.509  0.00  0.00    +0.000 C 
ATOM      6  C   UNL     1       1.047   9.672  19.214  0.00  0.00    +0.000 C 
ENDROOT
BRANCH   1  15
ATOM      7  C   UNL     1       2.448   3.159  17.377  0.00  0.00    +0.000 C 
ATOM      8  C   UNL     1       3.283   3.580  18.602  0.00  0.00    +0.000 C 
ATOM      9  C   UNL     1       4.756   3.727  18.166  0.00  0.00    +0.000 C 
ATOM     10  C   UNL     1       3.217   2.492  19.701  0.00  0.00    +0.000 C 
ATOM     11  C   UNL     1       1.876   2.492  20.427  0.00  0.00    +0.000 C 
ATOM     12  C   UNL     1       1.664   3.825  21.134  0.00  0.00    +0.000 C 
ATOM     13  C   UNL     1       1.986   5.014  20.270  0.00  0.00    +0.000 A 
ATOM     14  C   UNL     1       1.544   6.287  20.669  0.00  0.00    +0.000 A 
ATOM     15  C   UNL     1       1.820   7.431  19.917  0.00  0.00    +0.000 A 
ATOM     16  C   UNL     1       2.571   7.198  18.765  0.00  0.00    +0.000 A 
ATOM     17  N   UNL     1       3.038   5.998  18.349  0.00  0.00    +0.000 NA
ATOM     18  C   UNL     1       2.756   4.916  19.109  0.00  0.00    +0.000 A 
ENDBRANCH   1  15
BRANCH   4  19
ATOM     19  C   UNL     1       0.368  12.092  21.075  0.00  0.00    +0.000 A 
ATOM     20  N   UNL     1       1.279  12.559  20.263  0.00  0.00    +0.000 NA
ATOM     21  C   UNL     1       1.668  13.724  20.872  0.00  0.00    +0.000 A 
ATOM     22  N   UNL     1       1.057  13.951  22.043  0.00  0.00    +0.000 NA
ATOM     23  O   UNL     1       0.177  12.871  22.176  0.00  0.00    +0.000 OA
BRANCH  21  24
ATOM     24  C   UNL     1       2.685  14.546  20.238  0.00  0.00    +0.000 A 
ATOM     25  C   UNL     1       2.293  15.295  19.105  0.00  0.00    +0.000 A 
ATOM     26  C   UNL     1       3.164  16.205  18.508  0.00  0.00    +0.000 A 
ATOM     27  C   UNL     1       4.434  16.369  19.035  0.00  0.00    +0.000 A 
ATOM     28  F   UNL     1       5.262  17.268  18.487  0.00  0.00    +0.000 F 
ATOM     29  C   UNL     1       4.855  15.630  20.136  0.00  0.00    +0.000 A 
ATOM     30  C   UNL     1       3.984  14.716  20.739  0.00  0.00    +0.000 A 
ATOM     31 CL   UNL     1       4.573  13.902  22.146  0.00  0.00    +0.000 Cl
ENDBRANCH  21  24
ENDBRANCH   4  19
TORSDOF 3
ENDMDL
MODEL 5
REMARK VINA RESULT:      -8.5      0.861      1.801
REMARK  Name = 
REMARK  5 active torsions:
REMARK  status: ('A' for Active; 'I' for Inactive)
REMARK    1  A    between atoms: C_1  and  C_2
REMARK    2  A    between atoms: C_2  and  C_3
REMARK    3  A    between atoms: C_9  and  N_10
REMARK    4  A    between atoms: C_13  and  C_14
REMARK    5  A    between atoms: C_16  and  C_17
REMARK                            x       y       z     vdW  Elec       q    Type
REMARK                         _______ _______ _______ _____ _____    ______ ____
ROOT
ATOM      1  N   UNL     1       1.439   8.441  19.841  0.00  0.00    +0.000 N 
ATOM      2  C   UNL     1       1.562   9.059  21.158  0.00  0.00    +0.000 C 
ATOM      3  C   UNL     1       0.207   9.674  21.528  0.00  0.00    +0.000 C 
ATOM      4  C   UNL     1      -0.334  10.620  20.443  0.00  0.00    +0.000 C 
ATOM      5  C   UNL     1      -0.299   9.951  19.059  0.00  0.00    +0.000 C 
ATOM      6  C   UNL     1       1.065   9.335  18.743  0.00  0.00    +0.000 C 
ENDROOT
BRANCH   1  15
ATOM      7  C   UNL     1       4.456   2.886  20.110  0.00  0.00    +0.000 C 
ATOM      8  C   UNL     1       3.367   3.132  19.046  0.00  0.00    +0.000 C 
ATOM      9  C   UNL     1       2.208   2.144  19.292  0.00  0.00    +0.000 C 
ATOM     10  C   UNL     1       3.927   2.867  17.628  0.00  0.00    +0.000 C 
ATOM     11  C   UNL     1       4.850   3.986  17.159  0.00  0.00    +0.000 C 
ATOM     12  C   UNL     1       4.081   5.298  17.074  0.00  0.00    +0.000 C 
ATOM     13  C   UNL     1       3.226   5.565  18.283  0.00  0.00    +0.000 A 
ATOM     14  C   UNL     1       2.717   6.859  18.486  0.00  0.00    +0.000 A 
ATOM     15  C   UNL     1       1.909   7.167  19.583  0.00  0.00    +0.000 A 
ATOM     16  C   UNL     1       1.649   6.090  20.430  0.00  0.00    +0.000 A 
ATOM     17  N   UNL     1       2.096   4.824  20.268  0.00  0.00    +0.000 NA
ATOM     18  C   UNL     1       2.869   4.564  19.189  0.00  0.00    +0.000 A 
ENDBRANCH   1  15
BRANCH   4  19
ATOM     19  C   UNL     1       0.444  11.889  20.436  0.00  0.00    +0.000 A 
ATOM     20  N   UNL     1       0.624  12.717  19.440  0.00  0.00    +0.000 NA
ATOM     21  C   UNL     1       1.406  13.698  19.991  0.00  0.00    +0.000 A 
ATOM     22  N   UNL     1       1.741  13.469  21.269  0.00  0.00    +0.000 NA
ATOM     23  O   UNL     1       1.089  12.269  21.575  0.00  0.00    +0.000 OA
BRANCH  21  24
ATOM     24  C   UNL     1       1.810  14.824  19.166  0.00  0.00    +0.000 A 
ATOM     25  C   UNL     1       2.977  14.663  18.384  0.00  0.00    +0.000 A 
ATOM     26  C   UNL     1       3.370  15.639  17.470  0.00  0.00    +0.000 A 
ATOM     27  C   UNL     1       2.605  16.786  17.335  0.00  0.00    +0.000 A 
ATOM     28  F   UNL     1       2.959  17.710  16.433  0.00  0.00    +0.000 F 
ATOM     29  C   UNL     1       1.465  16.981  18.107  0.00  0.00    +0.000 A 
ATOM     30  C   UNL     1       1.065  16.004  19.025  0.00  0.00    +0.000 A 
ATOM     31 CL   UNL     1      -0.407  16.305  19.881  0.00  0.00    +0.000 Cl
ENDBRANCH  21  24
ENDBRANCH   4  19
TORSDOF 3
ENDMDL
MODEL 6
REMARK VINA RESULT:      -8.4      1.394      2.458
REMARK  Name = 
REMARK  5 active torsions:
REMARK  status: ('A' for Active; 'I' for Inactive)
REMARK    1  A    between atoms: C_1  and  C_2
REMARK    2  A    between atoms: C_2  and  C_3
REMARK    3  A    between atoms: C_9  and  N_10
REMARK    4  A    between atoms: C_13  and  C_14
REMARK    5  A    between atoms: C_16  and  C_17
REMARK                            x       y       z     vdW  Elec       q    Type
REMARK                         _______ _______ _______ _____ _____    ______ ____
ROOT
ATOM      1  N   UNL     1       1.530   8.810  19.322  0.00  0.00    +0.000 N 
ATOM      2  C   UNL     1       1.490   9.197  20.729  0.00  0.00    +0.000 C 
ATOM      3  C   UNL     1       0.028   9.450  21.116  0.00  0.00    +0.000 C 
ATOM      4  C   UNL     1      -0.674  10.443  20.176  0.00  0.00    +0.000 C 
ATOM      5  C   UNL     1      -0.468  10.050  18.704  0.00  0.00    +0.000 C 
ATOM      6  C   UNL     1       1.002   9.789  18.370  0.00  0.00    +0.000 C 
ENDROOT
BRANCH   1  15
ATOM      7  C   UNL     1       5.664   4.047  18.816  0.00  0.00    +0.000 C 
ATOM      8  C   UNL     1       4.552   4.230  17.763  0.00  0.00    +0.000 C 
ATOM      9  C   UNL     1       3.630   2.994  17.802  0.00  0.00    +0.000 C 
ATOM     10  C   UNL     1       5.162   4.327  16.344  0.00  0.00    +0.000 C 
ATOM     11  C   UNL     1       5.827   5.677  16.097  0.00  0.00    +0.000 C 
ATOM     12  C   UNL     1       4.795   6.794  16.194  0.00  0.00    +0.000 C 
ATOM     13  C   UNL     1       3.897   6.671  17.395  0.00  0.00    +0.000 A 
ATOM     14  C   UNL     1       3.123   7.778  17.783  0.00  0.00    +0.000 A 
ATOM     15  C   UNL     1       2.262   7.724  18.882  0.00  0.00    +0.000 A 
ATOM     16  C   UNL     1       2.235   6.491  19.535  0.00  0.00    +0.000 A 
ATOM     17  N   UNL     1       2.943   5.391  19.189  0.00  0.00    +0.000 NA
ATOM     18  C   UNL     1       3.758   5.482  18.114  0.00  0.00    +0.000 A 
ENDBRANCH   1  15
BRANCH   4  19
ATOM     19  C   UNL     1      -0.180  11.824  20.429  0.00  0.00    +0.000 A 
ATOM     20  N   UNL     1      -0.117  12.822  19.587  0.00  0.00    +0.000 NA
ATOM     21  C   UNL     1       0.407  13.834  20.348  0.00  0.00    +0.000 A 
ATOM     22  N   UNL     1       0.704  13.470  21.603  0.00  0.00    +0.000 NA
ATOM     23  O   UNL     1       0.300  12.131  21.666  0.00  0.00    +0.000 OA
BRANCH  21  24
ATOM     24  C   UNL     1       0.617  15.138  19.739  0.00  0.00    +0.000 A 
ATOM     25  C   UNL     1       1.826  15.332  19.033  0.00  0.00    +0.000 A 
ATOM     26  C   UNL     1       2.059  16.503  18.313  0.00  0.00    +0.000 A 
ATOM     27  C   UNL     1       1.088  17.490  18.298  0.00  0.00    +0.000 A 
ATOM     28  F   UNL     1       1.292  18.601  17.579  0.00  0.00    +0.000 F 
ATOM     29  C   UNL     1      -0.102  17.336  19.000  0.00  0.00    +0.000 A 
ATOM     30  C   UNL     1      -0.341  16.162  19.725  0.00  0.00    +0.000 A 
ATOM     31 CL   UNL     1      -1.881  16.034  20.501  0.00  0.00    +0.000 Cl
ENDBRANCH  21  24
ENDBRANCH   4  19
TORSDOF 3
ENDMDL
MODEL 7
REMARK VINA RESULT:      -8.4      1.719      2.495
REMARK  Name = 
REMARK  5 active torsions:
REMARK  status: ('A' for Active; 'I' for Inactive)
REMARK    1  A    between atoms: C_1  and  C_2
REMARK    2  A    between atoms: C_2  and  C_3
REMARK    3  A    between atoms: C_9  and  N_10
REMARK    4  A    between atoms: C_13  and  C_14
REMARK    5  A    between atoms: C_16  and  C_17
REMARK                            x       y       z     vdW  Elec       q    Type
REMARK                         _______ _______ _______ _____ _____    ______ ____
ROOT
ATOM      1  N   UNL     1       1.496   8.438  20.014  0.00  0.00    +0.000 N 
ATOM      2  C   UNL     1       1.473   8.933  21.387  0.00  0.00    +0.000 C 
ATOM      3  C   UNL     1       0.106   9.578  21.643  0.00  0.00    +0.000 C 
ATOM      4  C   UNL     1      -0.259  10.639  20.591  0.00  0.00    +0.000 C 
ATOM      5  C   UNL     1      -0.073  10.091  19.166  0.00  0.00    +0.000 C 
ATOM      6  C   UNL     1       1.296   9.440  18.965  0.00  0.00    +0.000 C 
ENDROOT
BRANCH   1  15
ATOM      7  C   UNL     1       4.410   2.822  20.053  0.00  0.00    +0.000 C 
ATOM      8  C   UNL     1       3.346   3.141  18.985  0.00  0.00    +0.000 C 
ATOM      9  C   UNL     1       2.165   2.164  19.160  0.00  0.00    +0.000 C 
ATOM     10  C   UNL     1       3.927   2.938  17.565  0.00  0.00    +0.000 C 
ATOM     11  C   UNL     1       4.878   4.062  17.170  0.00  0.00    +0.000 C 
ATOM     12  C   UNL     1       4.134   5.391  17.138  0.00  0.00    +0.000 C 
ATOM     13  C   UNL     1       3.261   5.612  18.344  0.00  0.00    +0.000 A 
ATOM     14  C   UNL     1       2.771   6.903  18.604  0.00  0.00    +0.000 A 
ATOM     15  C   UNL     1       1.948   7.171  19.700  0.00  0.00    +0.000 A 
ATOM     16  C   UNL     1       1.653   6.057  20.487  0.00  0.00    +0.000 A 
ATOM     17  N   UNL     1       2.081   4.792  20.268  0.00  0.00    +0.000 NA
ATOM     18  C   UNL     1       2.870   4.574  19.191  0.00  0.00    +0.000 A 
ENDBRANCH   1  15
BRANCH   4  19
ATOM     19  C   UNL     1       0.559  11.865  20.797  0.00  0.00    +0.000 A 
ATOM     20  N   UNL     1       1.451  12.381  19.992  0.00  0.00    +0.000 NA
ATOM     21  C   UNL     1       1.880  13.489  20.676  0.00  0.00    +0.000 A 
ATOM     22  N   UNL     1       1.312  13.633  21.881  0.00  0.00    +0.000 NA
ATOM     23  O   UNL     1       0.418  12.559  21.960  0.00  0.00    +0.000 OA
BRANCH  21  24
ATOM     24  C   UNL     1       2.890  14.342  20.073  0.00  0.00    +0.000 A 
ATOM     25  C   UNL     1       2.538  15.011  18.878  0.00  0.00    +0.000 A 
ATOM     26  C   UNL     1       3.395  15.945  18.297  0.00  0.00    +0.000 A 
ATOM     27  C   UNL     1       4.611  16.213  18.903  0.00  0.00    +0.000 A 
ATOM     28  F   UNL     1       5.422  17.135  18.368  0.00  0.00    +0.000 F 
ATOM     29  C   UNL     1       4.994  15.555  20.067  0.00  0.00    +0.000 A 
ATOM     30  C   UNL     1       4.137  14.616  20.654  0.00  0.00    +0.000 A 
ATOM     31 CL   UNL     1       4.669  13.909  22.139  0.00  0.00    +0.000 Cl
ENDBRANCH  21  24
ENDBRANCH   4  19
TORSDOF 3
ENDMDL
MODEL 8
REMARK VINA RESULT:      -8.4      1.518      2.604
REMARK  Name = 
REMARK  5 active torsions:
REMARK  status: ('A' for Active; 'I' for Inactive)
REMARK    1  A    between atoms: C_1  and  C_2
REMARK    2  A    between atoms: C_2  and  C_3
REMARK    3  A    between atoms: C_9  and  N_10
REMARK    4  A    between atoms: C_13  and  C_14
REMARK    5  A    between atoms: C_16  and  C_17
REMARK                            x       y       z     vdW  Elec       q    Type
REMARK                         _______ _______ _______ _____ _____    ______ ____
ROOT
ATOM      1  N   UNL     1       1.507   8.819  19.398  0.00  0.00    +0.000 N 
ATOM      2  C   UNL     1       1.629   9.345  20.755  0.00  0.00    +0.000 C 
ATOM      3  C   UNL     1       0.219   9.607  21.296  0.00  0.00    +0.000 C 
ATOM      4  C   UNL     1      -0.625  10.487  20.360  0.00  0.00    +0.000 C 
ATOM      5  C   UNL     1      -0.590   9.953  18.919  0.00  0.00    +0.000 C 
ATOM      6  C   UNL     1       0.835   9.688  18.430  0.00  0.00    +0.000 C 
ENDROOT
BRANCH   1  15
ATOM      7  C   UNL     1       5.527   3.951  18.975  0.00  0.00    +0.000 C 
ATOM      8  C   UNL     1       4.420   4.144  17.919  0.00  0.00    +0.000 C 
ATOM      9  C   UNL     1       3.468   2.930  17.978  0.00  0.00    +0.000 C 
ATOM     10  C   UNL     1       5.032   4.201  16.499  0.00  0.00    +0.000 C 
ATOM     11  C   UNL     1       5.729   5.531  16.229  0.00  0.00    +0.000 C 
ATOM     12  C   UNL     1       4.724   6.673  16.306  0.00  0.00    +0.000 C 
ATOM     13  C   UNL     1       3.824   6.593  17.509  0.00  0.00    +0.000 A 
ATOM     14  C   UNL     1       3.075   7.724  17.878  0.00  0.00    +0.000 A 
ATOM     15  C   UNL     1       2.213   7.709  18.977  0.00  0.00    +0.000 A 
ATOM     16  C   UNL     1       2.157   6.489  19.651  0.00  0.00    +0.000 A 
ATOM     17  N   UNL     1       2.838   5.367  19.324  0.00  0.00    +0.000 NA
ATOM     18  C   UNL     1       3.656   5.420  18.248  0.00  0.00    +0.000 A 
ENDBRANCH   1  15
BRANCH   4  19
ATOM     19  C   UNL     1      -0.147  11.896  20.414  0.00  0.00    +0.000 A 
ATOM     20  N   UNL     1       0.031  12.723  19.417  0.00  0.00    +0.000 NA
ATOM     21  C   UNL     1       0.473  13.863  20.037  0.00  0.00    +0.000 A 
ATOM     22  N   UNL     1       0.609  13.738  21.364  0.00  0.00    +0.000 NA
ATOM     23  O   UNL     1       0.182  12.431  21.623  0.00  0.00    +0.000 OA
BRANCH  21  24
ATOM     24  C   UNL     1       0.772  15.034  19.229  0.00  0.00    +0.000 A 
ATOM     25  C   UNL     1      -0.321  15.832  18.822  0.00  0.00    +0.000 A 
ATOM     26  C   UNL     1      -0.122  17.039  18.154  0.00  0.00    +0.000 A 
ATOM     27  C   UNL     1       1.172  17.454  17.882  0.00  0.00    +0.000 A 
ATOM     28  F   UNL     1       1.370  18.629  17.272  0.00  0.00    +0.000 F 
ATOM     29  C   UNL     1       2.266  16.679  18.251  0.00  0.00    +0.000 A 
ATOM     30  C   UNL     1       2.071  15.467  18.923  0.00  0.00    +0.000 A 
ATOM     31 CL   UNL     1       3.495  14.615  19.407  0.00  0.00    +0.000 Cl
ENDBRANCH  21  24
ENDBRANCH   4  19
TORSDOF 3
ENDMDL
MODEL 9
REMARK VINA RESULT:      -8.3      1.360      2.204
REMARK  Name = 
REMARK  5 active torsions:
REMARK  status: ('A' for Active; 'I' for Inactive)
REMARK    1  A    between atoms: C_1  and  C_2
REMARK    2  A    between atoms: C_2  and  C_3
REMARK    3  A    between atoms: C_9  and  N_10
REMARK    4  A    between atoms: C_13  and  C_14
REMARK    5  A    between atoms: C_16  and  C_17
REMARK                            x       y       z     vdW  Elec       q    Type
REMARK                         _______ _______ _______ _____ _____    ______ ____
ROOT
ATOM      1  N   UNL     1       1.546   8.526  19.591  0.00  0.00    +0.000 N 
ATOM      2  C   UNL     1       1.358   8.930  20.981  0.00  0.00    +0.000 C 
ATOM      3  C   UNL     1      -0.055   9.509  21.126  0.00  0.00    +0.000 C 
ATOM      4  C   UNL     1      -0.350  10.622  20.108  0.00  0.00    +0.000 C 
ATOM      5  C   UNL     1       0.008  10.175  18.681  0.00  0.00    +0.000 C 
ATOM      6  C   UNL     1       1.418   9.587  18.590  0.00  0.00    +0.000 C 
ENDROOT
BRANCH   1  15
ATOM      7  C   UNL     1       4.678   3.029  19.599  0.00  0.00    +0.000 C 
ATOM      8  C   UNL     1       3.714   3.375  18.448  0.00  0.00    +0.000 C 
ATOM      9  C   UNL     1       2.564   2.346  18.443  0.00  0.00    +0.000 C 
ATOM     10  C   UNL     1       4.443   3.283  17.086  0.00  0.00    +0.000 C 
ATOM     11  C   UNL     1       5.380   4.464  16.857  0.00  0.00    +0.000 C 
ATOM     12  C   UNL     1       4.586   5.764  16.827  0.00  0.00    +0.000 C 
ATOM     13  C   UNL     1       3.589   5.877  17.948  0.00  0.00    +0.000 A 
ATOM     14  C   UNL     1       3.021   7.130  18.231  0.00  0.00    +0.000 A 
ATOM     15  C   UNL     1       2.081   7.298  19.251  0.00  0.00    +0.000 A 
ATOM     16  C   UNL     1       1.757   6.128  19.937  0.00  0.00    +0.000 A 
ATOM     17  N   UNL     1       2.258   4.895  19.689  0.00  0.00    +0.000 NA
ATOM     18  C   UNL     1       3.159   4.774  18.688  0.00  0.00    +0.000 A 
ENDBRANCH   1  15
BRANCH   4  19
ATOM     19  C   UNL     1       0.390  11.861  20.475  0.00  0.00    +0.000 A 
ATOM     20  N   UNL     1       1.170  12.586  19.717  0.00  0.00    +0.000 NA
ATOM     21  C   UNL     1       1.573  13.589  20.560  0.00  0.00    +0.000 A 
ATOM     22  N   UNL     1       1.102  13.469  21.808  0.00  0.00    +0.000 NA
ATOM     23  O   UNL     1       0.299  12.323  21.753  0.00  0.00    +0.000 OA
BRANCH  21  24
ATOM     24  C   UNL     1       2.463  14.621  20.052  0.00  0.00    +0.000 A 
ATOM     25  C   UNL     1       3.836  14.496  20.361  0.00  0.00    +0.000 A 
ATOM     26  C   UNL     1       4.779  15.366  19.816  0.00  0.00    +0.000 A 
ATOM     27  C   UNL     1       4.355  16.371  18.962  0.00  0.00    +0.000 A 
ATOM     28  F   UNL     1       5.260  17.187  18.407  0.00  0.00    +0.000 F 
ATOM     29  C   UNL     1       3.008  16.532  18.657  0.00  0.00    +0.000 A 
ATOM     30  C   UNL     1       2.057  15.660  19.202  0.00  0.00    +0.000 A 
ATOM     31 CL   UNL     1       0.419  15.895  18.703  0.00  0.00    +0.000 Cl
ENDBRANCH  21  24
ENDBRANCH   4  19
TORSDOF 3
ENDMDL
