MODEL 1
REMARK VINA RESULT:      -8.0      0.000      0.000
REMARK  Name = 
REMARK  12 active torsions:
REMARK  status: ('A' for Active; 'I' for Inactive)
REMARK    1  A    between atoms: C_1  and  C_2
REMARK    2  A    between atoms: C_5  and  C_6
REMARK    3  A    between atoms: C_7  and  C_8
REMARK    4  A    between atoms: C_8  and  O_10
REMARK    5  A    between atoms: C_15  and  C_16
REMARK    6  A    between atoms: C_15  and  C_17
REMARK    7  A    between atoms: C_17  and  C_18
REMARK    8  A    between atoms: C_18  and  C_19
REMARK    9  A    between atoms: C_19  and  C_24
REMARK   10  A    between atoms: C_20  and  C_21
REMARK   11  A    between atoms: C_21  and  O_23
REMARK   12  A    between atoms: C_24  and  O_26
REMARK                            x       y       z     vdW  Elec       q    Type
REMARK                         _______ _______ _______ _____ _____    ______ ____
ROOT
ATOM      1  C   UNL     1       4.929   6.921  15.374  0.00  0.00    +0.000 C 
ATOM      2  C   UNL     1       4.400   6.176  16.604  0.00  0.00    +0.000 C 
ATOM      3  C   UNL     1       3.759   6.967  17.744  0.00  0.00    +0.000 C 
ATOM      4  C   UNL     1       2.541   6.141  18.313  0.00  0.00    +0.000 C 
ATOM      5  C   UNL     1       2.941   4.666  18.773  0.00  0.00    +0.000 C 
ATOM      6  C   UNL     1       3.591   4.992  20.170  0.00  0.00    +0.000 C 
ATOM      7  C   UNL     1       1.862   3.613  19.136  0.00  0.00    +0.000 C 
ATOM      8  C   UNL     1       1.689   2.434  18.500  0.00  0.00    +0.000 C 
ATOM      9  C   UNL     1       2.472   1.939  17.330  0.00  0.00    +0.000 C 
ATOM     10  C   UNL     1       3.870   2.541  17.273  0.00  0.00    +0.000 C 
ATOM     11  C   UNL     1       3.790   4.044  17.469  0.00  0.00    +0.000 C 
ATOM     12  C   UNL     1       5.111   4.835  17.137  0.00  0.00    +0.000 C 
ATOM     13  C   UNL     1       5.897   4.815  18.475  0.00  0.00    +0.000 C 
ENDROOT
BRANCH   7  14
ATOM     14  C   UNL     1       1.170   3.569  20.464  0.00  0.00    +0.000 C 
ATOM     15  O   UNL     1       1.342   2.697  21.298  0.00  0.00    +0.000 OA
BRANCH  14  16
ATOM     16  O   UNL     1       0.309   4.591  20.638  0.00  0.00    +0.000 OA
ATOM     17  H   UNL     1       0.594   5.210  21.330  0.00  0.00    +0.000 HD
ENDBRANCH  14  16
ENDBRANCH   7  14
BRANCH  12  18
ATOM     18  C   UNL     1       6.214   4.386  16.098  0.00  0.00    +0.000 C 
BRANCH  18  19
ATOM     19  C   UNL     1       5.770   3.790  14.728  0.00  0.00    +0.000 C 
BRANCH  19  20
ATOM     20  C   UNL     1       6.598   4.205  13.525  0.00  0.00    +0.000 C 
ATOM     21  C   UNL     1       6.384   3.819  12.243  0.00  0.00    +0.000 C 
BRANCH  21  22
ATOM     22  C   UNL     1       5.390   2.787  11.851  0.00  0.00    +0.000 C 
ATOM     23  O   UNL     1       4.222   3.017  11.593  0.00  0.00    +0.000 OA
BRANCH  22  24
ATOM     24  O   UNL     1       5.915   1.550  11.830  0.00  0.00    +0.000 OA
ATOM     25  H   UNL     1       5.541   0.887  12.434  0.00  0.00    +0.000 HD
ENDBRANCH  22  24
ENDBRANCH  21  22
BRANCH  20  26
ATOM     26  C   UNL     1       7.649   5.197  13.859  0.00  0.00    +0.000 C 
ATOM     27  O   UNL     1       7.839   5.602  14.994  0.00  0.00    +0.000 OA
BRANCH  26  28
ATOM     28  O   UNL     1       8.287   5.691  12.768  0.00  0.00    +0.000 OA
ATOM     29  H   UNL     1       8.016   6.561  12.491  0.00  0.00    +0.000 HD
ENDBRANCH  26  28
ENDBRANCH  20  26
ENDBRANCH  19  20
ENDBRANCH  18  19
ENDBRANCH  12  18
TORSDOF 9
ENDMDL
MODEL 2
REMARK VINA RESULT:      -8.0      1.011      1.284
REMARK  Name = 
REMARK  12 active torsions:
REMARK  status: ('A' for Active; 'I' for Inactive)
REMARK    1  A    between atoms: C_1  and  C_2
REMARK    2  A    between atoms: C_5  and  C_6
REMARK    3  A    between atoms: C_7  and  C_8
REMARK    4  A    between atoms: C_8  and  O_10
REMARK    5  A    between atoms: C_15  and  C_16
REMARK    6  A    between atoms: C_15  and  C_17
REMARK    7  A    between atoms: C_17  and  C_18
REMARK    8  A    between atoms: C_18  and  C_19
REMARK    9  A    between atoms: C_19  and  C_24
REMARK   10  A    between atoms: C_20  and  C_21
REMARK   11  A    between atoms: C_21  and  O_23
REMARK   12  A    between atoms: C_24  and  O_26
REMARK                            x       y       z     vdW  Elec       q    Type
REMARK                         _______ _______ _______ _____ _____    ______ ____
ROOT
ATOM      1  C   UNL     1       4.828   7.050  15.558  0.00  0.00    +0.000 C 
ATOM      2  C   UNL     1       4.547   6.146  16.764  0.00  0.00    +0.000 C 
ATOM      3  C   UNL     1       4.960   6.606  18.161  0.00  0.00    +0.000 C 
ATOM      4  C   UNL     1       3.853   6.155  19.191  0.00  0.00    +0.000 C 
ATOM      5  C   UNL     1       3.557   4.587  19.152  0.00  0.00    +0.000 C 
ATOM      6  C   UNL     1       4.787   4.066  19.986  0.00  0.00    +0.000 C 
ATOM      7  C   UNL     1       2.349   3.974  19.906  0.00  0.00    +0.000 C 
ATOM      8  C   UNL     1       1.334   3.303  19.320  0.00  0.00    +0.000 C 
ATOM      9  C   UNL     1       1.171   3.048  17.859  0.00  0.00    +0.000 C 
ATOM     10  C   UNL     1       2.503   3.042  17.120  0.00  0.00    +0.000 C 
ATOM     11  C   UNL     1       3.321   4.254  17.527  0.00  0.00    +0.000 C 
ATOM     12  C   UNL     1       4.583   4.543  16.630  0.00  0.00    +0.000 C 
ATOM     13  C   UNL     1       5.706   3.703  17.294  0.00  0.00    +0.000 C 
ENDROOT
BRANCH   7  14
ATOM     14  C   UNL     1       2.359   3.681  21.376  0.00  0.00    +0.000 C 
ATOM     15  O   UNL     1       2.265   2.563  21.851  0.00  0.00    +0.000 OA
BRANCH  14  16
ATOM     16  O   UNL     1       2.461   4.793  22.129  0.00  0.00    +0.000 OA
ATOM     17  H   UNL     1       3.335   5.212  22.066  0.00  0.00    +0.000 HD
ENDBRANCH  14  16
ENDBRANCH   7  14
BRANCH  12  18
ATOM     18  C   UNL     1       4.735   4.154  15.106  0.00  0.00    +0.000 C 
BRANCH  18  19
ATOM     19  C   UNL     1       6.072   3.526  14.611  0.00  0.00    +0.000 C 
BRANCH  19  20
ATOM     20  C   UNL     1       6.678   4.150  13.367  0.00  0.00    +0.000 C 
ATOM     21  C   UNL     1       6.352   3.846  12.086  0.00  0.00    +0.000 C 
BRANCH  21  22
ATOM     22  C   UNL     1       5.456   2.722  11.712  0.00  0.00    +0.000 C 
ATOM     23  O   UNL     1       4.277   2.843  11.432  0.00  0.00    +0.000 OA
BRANCH  22  24
ATOM     24  O   UNL     1       6.086   1.534  11.734  0.00  0.00    +0.000 OA
ATOM     25  H   UNL     1       5.879   0.924  12.462  0.00  0.00    +0.000 HD
ENDBRANCH  22  24
ENDBRANCH  21  22
BRANCH  20  26
ATOM     26  C   UNL     1       7.628   5.248  13.673  0.00  0.00    +0.000 C 
ATOM     27  O   UNL     1       8.289   5.809  12.815  0.00  0.00    +0.000 OA
BRANCH  26  28
ATOM     28  O   UNL     1       7.771   5.477  15.003  0.00  0.00    +0.000 OA
ATOM     29  H   UNL     1       7.070   5.147  15.556  0.00  0.00    +0.000 HD
ENDBRANCH  26  28
ENDBRANCH  20  26
ENDBRANCH  19  20
ENDBRANCH  18  19
ENDBRANCH  12  18
TORSDOF 9
ENDMDL
MODEL 3
REMARK VINA RESULT:      -7.9      1.235      1.571
REMARK  Name = 
REMARK  12 active torsions:
REMARK  status: ('A' for Active; 'I' for Inactive)
REMARK    1  A    between atoms: C_1  and  C_2
REMARK    2  A    between atoms: C_5  and  C_6
REMARK    3  A    between atoms: C_7  and  C_8
REMARK    4  A    between atoms: C_8  and  O_10
REMARK    5  A    between atoms: C_15  and  C_16
REMARK    6  A    between atoms: C_15  and  C_17
REMARK    7  A    between atoms: C_17  and  C_18
REMARK    8  A    between atoms: C_18  and  C_19
REMARK    9  A    between atoms: C_19  and  C_24
REMARK   10  A    between atoms: C_20  and  C_21
REMARK   11  A    between atoms: C_21  and  O_23
REMARK   12  A    between atoms: C_24  and  O_26
REMARK                            x       y       z     vdW  Elec       q    Type
REMARK                         _______ _______ _______ _____ _____    ______ ____
ROOT
ATOM      1  C   UNL     1       6.226   7.034  16.959  0.00  0.00    +0.000 C 
ATOM      2  C   UNL     1       5.493   5.919  17.712  0.00  0.00    +0.000 C 
ATOM      3  C   UNL     1       5.925   5.562  19.134  0.00  0.00    +0.000 C 
ATOM      4  C   UNL     1       4.639   5.223  19.984  0.00  0.00    +0.000 C 
ATOM      5  C   UNL     1       3.740   4.074  19.337  0.00  0.00    +0.000 C 
ATOM      6  C   UNL     1       4.570   2.810  19.776  0.00  0.00    +0.000 C 
ATOM      7  C   UNL     1       2.323   3.756  19.879  0.00  0.00    +0.000 C 
ATOM      8  C   UNL     1       1.182   3.855  19.162  0.00  0.00    +0.000 C 
ATOM      9  C   UNL     1       1.067   4.305  17.744  0.00  0.00    +0.000 C 
ATOM     10  C   UNL     1       2.345   4.060  16.953  0.00  0.00    +0.000 C 
ATOM     11  C   UNL     1       3.541   4.556  17.744  0.00  0.00    +0.000 C 
ATOM     12  C   UNL     1       4.891   4.645  16.936  0.00  0.00    +0.000 C 
ATOM     13  C   UNL     1       5.510   3.232  17.099  0.00  0.00    +0.000 C 
ENDROOT
BRANCH   7  14
ATOM     14  C   UNL     1       2.076   2.916  21.095  0.00  0.00    +0.000 C 
ATOM     15  O   UNL     1       2.948   2.555  21.865  0.00  0.00    +0.000 OA
BRANCH  14  16
ATOM     16  O   UNL     1       0.781   2.577  21.242  0.00  0.00    +0.000 OA
ATOM     17  H   UNL     1       0.187   3.346  21.241  0.00  0.00    +0.000 HD
ENDBRANCH  14  16
ENDBRANCH   7  14
BRANCH  12  18
ATOM     18  C   UNL     1       5.013   4.883  15.378  0.00  0.00    +0.000 C 
BRANCH  18  19
ATOM     19  C   UNL     1       5.430   3.696  14.458  0.00  0.00    +0.000 C 
BRANCH  19  20
ATOM     20  C   UNL     1       6.452   4.017  13.383  0.00  0.00    +0.000 C 
ATOM     21  C   UNL     1       6.421   3.579  12.100  0.00  0.00    +0.000 C 
BRANCH  21  22
ATOM     22  C   UNL     1       5.450   2.571  11.601  0.00  0.00    +0.000 C 
ATOM     23  O   UNL     1       4.304   2.820  11.273  0.00  0.00    +0.000 OA
BRANCH  22  24
ATOM     24  O   UNL     1       5.969   1.331  11.567  0.00  0.00    +0.000 OA
ATOM     25  H   UNL     1       5.661   0.730  10.868  0.00  0.00    +0.000 HD
ENDBRANCH  22  24
ENDBRANCH  21  22
BRANCH  20  26
ATOM     26  C   UNL     1       7.486   4.980  13.836  0.00  0.00    +0.000 C 
ATOM     27  O   UNL     1       7.795   5.115  15.008  0.00  0.00    +0.000 OA
BRANCH  26  28
ATOM     28  O   UNL     1       7.957   5.770  12.838  0.00  0.00    +0.000 OA
ATOM     29  H   UNL     1       7.505   6.600  12.720  0.00  0.00    +0.000 HD
ENDBRANCH  26  28
ENDBRANCH  20  26
ENDBRANCH  19  20
ENDBRANCH  18  19
ENDBRANCH  12  18
TORSDOF 9
ENDMDL
MODEL 4
REMARK VINA RESULT:      -7.6      2.113      3.971
REMARK  Name = 
REMARK  12 active torsions:
REMARK  status: ('A' for Active; 'I' for Inactive)
REMARK    1  A    between atoms: C_1  and  C_2
REMARK    2  A    between atoms: C_5  and  C_6
REMARK    3  A    between atoms: C_7  and  C_8
REMARK    4  A    between atoms: C_8  and  O_10
REMARK    5  A    between atoms: C_15  and  C_16
REMARK    6  A    between atoms: C_15  and  C_17
REMARK    7  A    between atoms: C_17  and  C_18
REMARK    8  A    between atoms: C_18  and  C_19
REMARK    9  A    between atoms: C_19  and  C_24
REMARK   10  A    between atoms: C_20  and  C_21
REMARK   11  A    between atoms: C_21  and  O_23
REMARK   12  A    between atoms: C_24  and  O_26
REMARK                            x       y       z     vdW  Elec       q    Type
REMARK                         _______ _______ _______ _____ _____    ______ ____
ROOT
ATOM      1  C   UNL     1       2.220   8.230  17.541  0.00  0.00    +0.000 C 
ATOM      2  C   UNL     1       2.399   7.023  18.469  0.00  0.00    +0.000 C 
ATOM      3  C   UNL     1       2.043   7.153  19.949  0.00  0.00    +0.000 C 
ATOM      4  C   UNL     1       1.384   5.803  20.432  0.00  0.00    +0.000 C 
ATOM      5  C   UNL     1       2.297   4.523  20.158  0.00  0.00    +0.000 C 
ATOM      6  C   UNL     1       3.308   4.657  21.358  0.00  0.00    +0.000 C 
ATOM      7  C   UNL     1       1.746   3.085  20.335  0.00  0.00    +0.000 C 
ATOM      8  C   UNL     1       1.665   2.163  19.352  0.00  0.00    +0.000 C 
ATOM      9  C   UNL     1       2.060   2.356  17.926  0.00  0.00    +0.000 C 
ATOM     10  C   UNL     1       3.126   3.430  17.761  0.00  0.00    +0.000 C 
ATOM     11  C   UNL     1       2.734   4.668  18.547  0.00  0.00    +0.000 C 
ATOM     12  C   UNL     1       3.582   5.958  18.233  0.00  0.00    +0.000 C 
ATOM     13  C   UNL     1       4.783   5.855  19.209  0.00  0.00    +0.000 C 
ENDROOT
BRANCH   7  14
ATOM     14  C   UNL     1       1.632   2.406  21.666  0.00  0.00    +0.000 C 
ATOM     15  O   UNL     1       0.631   2.425  22.360  0.00  0.00    +0.000 OA
BRANCH  14  16
ATOM     16  O   UNL     1       2.768   1.782  22.034  0.00  0.00    +0.000 OA
ATOM     17  H   UNL     1       3.528   2.026  21.480  0.00  0.00    +0.000 HD
ENDBRANCH  14  16
ENDBRANCH   7  14
BRANCH  12  18
ATOM     18  C   UNL     1       4.297   6.275  16.860  0.00  0.00    +0.000 C 
BRANCH  18  19
ATOM     19  C   UNL     1       5.818   6.615  16.855  0.00  0.00    +0.000 C 
BRANCH  19  20
ATOM     20  C   UNL     1       6.763   5.427  16.809  0.00  0.00    +0.000 C 
ATOM     21  C   UNL     1       7.710   5.129  17.732  0.00  0.00    +0.000 C 
BRANCH  21  22
ATOM     22  C   UNL     1       8.072   6.030  18.856  0.00  0.00    +0.000 C 
ATOM     23  O   UNL     1       8.319   7.217  18.737  0.00  0.00    +0.000 OA
BRANCH  22  24
ATOM     24  O   UNL     1       8.121   5.386  20.035  0.00  0.00    +0.000 OA
ATOM     25  H   UNL     1       8.988   5.282  20.460  0.00  0.00    +0.000 HD
ENDBRANCH  22  24
ENDBRANCH  21  22
BRANCH  20  26
ATOM     26  C   UNL     1       6.488   4.513  15.673  0.00  0.00    +0.000 C 
ATOM     27  O   UNL     1       6.615   4.851  14.507  0.00  0.00    +0.000 OA
BRANCH  26  28
ATOM     28  O   UNL     1       5.974   3.318  16.058  0.00  0.00    +0.000 OA
ATOM     29  H   UNL     1       5.667   2.755  15.354  0.00  0.00    +0.000 HD
ENDBRANCH  26  28
ENDBRANCH  20  26
ENDBRANCH  19  20
ENDBRANCH  18  19
ENDBRANCH  12  18
TORSDOF 9
ENDMDL
MODEL 5
REMARK VINA RESULT:      -7.6      0.975      2.544
REMARK  Name = 
REMARK  12 active torsions:
REMARK  status: ('A' for Active; 'I' for Inactive)
REMARK    1  A    between atoms: C_1  and  C_2
REMARK    2  A    between atoms: C_5  and  C_6
REMARK    3  A    between atoms: C_7  and  C_8
REMARK    4  A    between atoms: C_8  and  O_10
REMARK    5  A    between atoms: C_15  and  C_16
REMARK    6  A    between atoms: C_15  and  C_17
REMARK    7  A    between atoms: C_17  and  C_18
REMARK    8  A    between atoms: C_18  and  C_19
REMARK    9  A    between atoms: C_19  and  C_24
REMARK   10  A    between atoms: C_20  and  C_21
REMARK   11  A    between atoms: C_21  and  O_23
REMARK   12  A    between atoms: C_24  and  O_26
REMARK                            x       y       z     vdW  Elec       q    Type
REMARK                         _______ _______ _______ _____ _____    ______ ____
ROOT
ATOM      1  C   UNL     1       5.223   6.765  14.743  0.00  0.00    +0.000 C 
ATOM      2  C   UNL     1       4.921   6.112  16.096  0.00  0.00    +0.000 C 
ATOM      3  C   UNL     1       4.849   6.981  17.351  0.00  0.00    +0.000 C 
ATOM      4  C   UNL     1       3.695   6.436  18.280  0.00  0.00    +0.000 C 
ATOM      5  C   UNL     1       3.856   4.890  18.643  0.00  0.00    +0.000 C 
ATOM      6  C   UNL     1       4.947   4.997  19.774  0.00  0.00    +0.000 C 
ATOM      7  C   UNL     1       2.718   4.102  19.340  0.00  0.00    +0.000 C 
ATOM      8  C   UNL     1       2.094   3.024  18.818  0.00  0.00    +0.000 C 
ATOM      9  C   UNL     1       2.358   2.411  17.484  0.00  0.00    +0.000 C 
ATOM     10  C   UNL     1       3.776   2.674  16.996  0.00  0.00    +0.000 C 
ATOM     11  C   UNL     1       4.112   4.144  17.164  0.00  0.00    +0.000 C 
ATOM     12  C   UNL     1       5.423   4.621  16.432  0.00  0.00    +0.000 C 
ATOM     13  C   UNL     1       6.542   4.362  17.476  0.00  0.00    +0.000 C 
ENDROOT
BRANCH   7  14
ATOM     14  C   UNL     1       2.459   4.163  20.815  0.00  0.00    +0.000 C 
ATOM     15  O   UNL     1       2.509   3.200  21.559  0.00  0.00    +0.000 OA
BRANCH  14  16
ATOM     16  O   UNL     1       2.137   5.401  21.238  0.00  0.00    +0.000 OA
ATOM     17  H   UNL     1       2.908   5.907  21.544  0.00  0.00    +0.000 HD
ENDBRANCH  14  16
ENDBRANCH   7  14
BRANCH  12  18
ATOM     18  C   UNL     1       6.033   3.973  15.126  0.00  0.00    +0.000 C 
BRANCH  18  19
ATOM     19  C   UNL     1       5.290   4.157  13.768  0.00  0.00    +0.000 C 
BRANCH  19  20
ATOM     20  C   UNL     1       6.062   3.742  12.528  0.00  0.00    +0.000 C 
ATOM     21  C   UNL     1       7.269   4.225  12.144  0.00  0.00    +0.000 C 
BRANCH  21  22
ATOM     22  C   UNL     1       7.943   5.370  12.809  0.00  0.00    +0.000 C 
ATOM     23  O   UNL     1       8.311   5.374  13.970  0.00  0.00    +0.000 OA
BRANCH  22  24
ATOM     24  O   UNL     1       8.092   6.425  11.989  0.00  0.00    +0.000 OA
ATOM     25  H   UNL     1       7.727   7.278  12.278  0.00  0.00    +0.000 HD
ENDBRANCH  22  24
ENDBRANCH  21  22
BRANCH  20  26
ATOM     26  C   UNL     1       5.411   2.634  11.786  0.00  0.00    +0.000 C 
ATOM     27  O   UNL     1       4.285   2.721  11.323  0.00  0.00    +0.000 OA
BRANCH  26  28
ATOM     28  O   UNL     1       6.140   1.490  11.781  0.00  0.00    +0.000 OA
ATOM     29  H   UNL     1       7.059   1.586  12.013  0.00  0.00    +0.000 HD
ENDBRANCH  26  28
ENDBRANCH  20  26
ENDBRANCH  19  20
ENDBRANCH  18  19
ENDBRANCH  12  18
TORSDOF 9
ENDMDL
MODEL 6
REMARK VINA RESULT:      -7.5      1.292      2.792
REMARK  Name = 
REMARK  12 active torsions:
REMARK  status: ('A' for Active; 'I' for Inactive)
REMARK    1  A    between atoms: C_1  and  C_2
REMARK    2  A    between atoms: C_5  and  C_6
REMARK    3  A    between atoms: C_7  and  C_8
REMARK    4  A    between atoms: C_8  and  O_10
REMARK    5  A    between atoms: C_15  and  C_16
REMARK    6  A    between atoms: C_15  and  C_17
REMARK    7  A    between atoms: C_17  and  C_18
REMARK    8  A    between atoms: C_18  and  C_19
REMARK    9  A    between atoms: C_19  and  C_24
REMARK   10  A    between atoms: C_20  and  C_21
REMARK   11  A    between atoms: C_21  and  O_23
REMARK   12  A    between atoms: C_24  and  O_26
REMARK                            x       y       z     vdW  Elec       q    Type
REMARK                         _______ _______ _______ _____ _____    ______ ____
ROOT
ATOM      1  C   UNL     1       6.134   6.923  16.303  0.00  0.00    +0.000 C 
ATOM      2  C   UNL     1       5.452   5.880  17.195  0.00  0.00    +0.000 C 
ATOM      3  C   UNL     1       5.895   5.729  18.650  0.00  0.00    +0.000 C 
ATOM      4  C   UNL     1       4.623   5.443  19.539  0.00  0.00    +0.000 C 
ATOM      5  C   UNL     1       3.782   4.179  19.047  0.00  0.00    +0.000 C 
ATOM      6  C   UNL     1       4.669   3.022  19.643  0.00  0.00    +0.000 C 
ATOM      7  C   UNL     1       2.379   3.866  19.628  0.00  0.00    +0.000 C 
ATOM      8  C   UNL     1       1.238   3.817  18.907  0.00  0.00    +0.000 C 
ATOM      9  C   UNL     1       1.107   4.075  17.443  0.00  0.00    +0.000 C 
ATOM     10  C   UNL     1       2.399   3.792  16.688  0.00  0.00    +0.000 C 
ATOM     11  C   UNL     1       3.567   4.442  17.406  0.00  0.00    +0.000 C 
ATOM     12  C   UNL     1       4.914   4.490  16.590  0.00  0.00    +0.000 C 
ATOM     13  C   UNL     1       5.599   3.141  16.932  0.00  0.00    +0.000 C 
ENDROOT
BRANCH   7  14
ATOM     14  C   UNL     1       2.168   3.178  20.943  0.00  0.00    +0.000 C 
ATOM     15  O   UNL     1       2.403   3.685  22.025  0.00  0.00    +0.000 OA
BRANCH  14  16
ATOM     16  O   UNL     1       1.706   1.920  20.806  0.00  0.00    +0.000 OA
ATOM     17  H   UNL     1       0.753   1.886  20.623  0.00  0.00    +0.000 HD
ENDBRANCH  14  16
ENDBRANCH   7  14
BRANCH  12  18
ATOM     18  C   UNL     1       5.031   4.531  15.014  0.00  0.00    +0.000 C 
BRANCH  18  19
ATOM     19  C   UNL     1       6.062   3.603  14.304  0.00  0.00    +0.000 C 
BRANCH  19  20
ATOM     20  C   UNL     1       6.211   3.801  12.806  0.00  0.00    +0.000 C 
ATOM     21  C   UNL     1       7.118   4.605  12.198  0.00  0.00    +0.000 C 
BRANCH  21  22
ATOM     22  C   UNL     1       8.001   5.548  12.930  0.00  0.00    +0.000 C 
ATOM     23  O   UNL     1       8.194   5.520  14.133  0.00  0.00    +0.000 OA
BRANCH  22  24
ATOM     24  O   UNL     1       8.560   6.463  12.120  0.00  0.00    +0.000 OA
ATOM     25  H   UNL     1       9.518   6.407  11.965  0.00  0.00    +0.000 HD
ENDBRANCH  22  24
ENDBRANCH  21  22
BRANCH  20  26
ATOM     26  C   UNL     1       5.314   2.924  12.014  0.00  0.00    +0.000 C 
ATOM     27  O   UNL     1       4.173   3.240  11.719  0.00  0.00    +0.000 OA
BRANCH  26  28
ATOM     28  O   UNL     1       5.845   1.702  11.761  0.00  0.00    +0.000 OA
ATOM     29  H   UNL     1       6.794   1.672  11.687  0.00  0.00    +0.000 HD
ENDBRANCH  26  28
ENDBRANCH  20  26
ENDBRANCH  19  20
ENDBRANCH  18  19
ENDBRANCH  12  18
TORSDOF 9
ENDMDL
MODEL 7
REMARK VINA RESULT:      -7.4      9.841     13.333
REMARK  Name = 
REMARK  12 active torsions:
REMARK  status: ('A' for Active; 'I' for Inactive)
REMARK    1  A    between atoms: C_1  and  C_2
REMARK    2  A    between atoms: C_5  and  C_6
REMARK    3  A    between atoms: C_7  and  C_8
REMARK    4  A    between atoms: C_8  and  O_10
REMARK    5  A    between atoms: C_15  and  C_16
REMARK    6  A    between atoms: C_15  and  C_17
REMARK    7  A    between atoms: C_17  and  C_18
REMARK    8  A    between atoms: C_18  and  C_19
REMARK    9  A    between atoms: C_19  and  C_24
REMARK   10  A    between atoms: C_20  and  C_21
REMARK   11  A    between atoms: C_21  and  O_23
REMARK   12  A    between atoms: C_24  and  O_26
REMARK                            x       y       z     vdW  Elec       q    Type
REMARK                         _______ _______ _______ _____ _____    ______ ____
ROOT
ATOM      1  C   UNL     1       9.136   9.851  19.316  0.00  0.00    +0.000 C 
ATOM      2  C   UNL     1       9.532  11.314  19.090  0.00  0.00    +0.000 C 
ATOM      3  C   UNL     1      10.694  11.643  18.155  0.00  0.00    +0.000 C 
ATOM      4  C   UNL     1      10.342  12.953  17.349  0.00  0.00    +0.000 C 
ATOM      5  C   UNL     1       9.975  14.190  18.289  0.00  0.00    +0.000 C 
ATOM      6  C   UNL     1      11.424  14.638  18.714  0.00  0.00    +0.000 C 
ATOM      7  C   UNL     1       9.373  15.495  17.708  0.00  0.00    +0.000 C 
ATOM      8  C   UNL     1       8.164  16.000  18.036  0.00  0.00    +0.000 C 
ATOM      9  C   UNL     1       7.183  15.396  18.986  0.00  0.00    +0.000 C 
ATOM     10  C   UNL     1       7.856  14.515  20.030  0.00  0.00    +0.000 C 
ATOM     11  C   UNL     1       8.836  13.575  19.353  0.00  0.00    +0.000 C 
ATOM     12  C   UNL     1       9.382  12.408  20.260  0.00  0.00    +0.000 C 
ATOM     13  C   UNL     1      10.625  13.028  20.950  0.00  0.00    +0.000 C 
ENDROOT
BRANCH   7  14
ATOM     14  C   UNL     1      10.196  16.561  17.051  0.00  0.00    +0.000 C 
ATOM     15  O   UNL     1      10.354  17.681  17.505  0.00  0.00    +0.000 OA
BRANCH  14  16
ATOM     16  O   UNL     1      10.734  16.160  15.883  0.00  0.00    +0.000 OA
ATOM     17  H   UNL     1      10.123  16.259  15.133  0.00  0.00    +0.000 HD
ENDBRANCH  14  16
ENDBRANCH   7  14
BRANCH  12  18
ATOM     18  C   UNL     1       8.615  11.759  21.480  0.00  0.00    +0.000 C 
BRANCH  18  19
ATOM     19  C   UNL     1       8.849  12.325  22.913  0.00  0.00    +0.000 C 
BRANCH  19  20
ATOM     20  C   UNL     1       7.686  13.087  23.523  0.00  0.00    +0.000 C 
ATOM     21  C   UNL     1       7.684  14.402  23.853  0.00  0.00    +0.000 C 
BRANCH  21  22
ATOM     22  C   UNL     1       8.896  15.260  23.813  0.00  0.00    +0.000 C 
ATOM     23  O   UNL     1       9.338  15.784  22.806  0.00  0.00    +0.000 OA
BRANCH  22  24
ATOM     24  O   UNL     1       9.477  15.385  25.019  0.00  0.00    +0.000 OA
ATOM     25  H   UNL     1      10.077  16.136  25.158  0.00  0.00    +0.000 HD
ENDBRANCH  22  24
ENDBRANCH  21  22
BRANCH  20  26
ATOM     26  C   UNL     1       6.455  12.267  23.642  0.00  0.00    +0.000 C 
ATOM     27  O   UNL     1       6.446  11.157  24.148  0.00  0.00    +0.000 OA
BRANCH  26  28
ATOM     28  O   UNL     1       5.380  12.823  23.030  0.00  0.00    +0.000 OA
ATOM     29  H   UNL     1       5.510  13.081  22.122  0.00  0.00    +0.000 HD
ENDBRANCH  26  28
ENDBRANCH  20  26
ENDBRANCH  19  20
ENDBRANCH  18  19
ENDBRANCH  12  18
TORSDOF 9
ENDMDL
MODEL 8
REMARK VINA RESULT:      -7.4      1.391      2.027
REMARK  Name = 
REMARK  12 active torsions:
REMARK  status: ('A' for Active; 'I' for Inactive)
REMARK    1  A    between atoms: C_1  and  C_2
REMARK    2  A    between atoms: C_5  and  C_6
REMARK    3  A    between atoms: C_7  and  C_8
REMARK    4  A    between atoms: C_8  and  O_10
REMARK    5  A    between atoms: C_15  and  C_16
REMARK    6  A    between atoms: C_15  and  C_17
REMARK    7  A    between atoms: C_17  and  C_18
REMARK    8  A    between atoms: C_18  and  C_19
REMARK    9  A    between atoms: C_19  and  C_24
REMARK   10  A    between atoms: C_20  and  C_21
REMARK   11  A    between atoms: C_21  and  O_23
REMARK   12  A    between atoms: C_24  and  O_26
REMARK                            x       y       z     vdW  Elec       q    Type
REMARK                         _______ _______ _______ _____ _____    ______ ____
ROOT
ATOM      1  C   UNL     1       2.650   7.922  17.195  0.00  0.00    +0.000 C 
ATOM      2  C   UNL     1       2.765   6.752  18.178  0.00  0.00    +0.000 C 
ATOM      3  C   UNL     1       2.515   6.994  19.667  0.00  0.00    +0.000 C 
ATOM      4  C   UNL     1       1.756   5.744  20.262  0.00  0.00    +0.000 C 
ATOM      5  C   UNL     1       2.518   4.365  20.010  0.00  0.00    +0.000 C 
ATOM      6  C   UNL     1       3.610   4.456  21.142  0.00  0.00    +0.000 C 
ATOM      7  C   UNL     1       1.839   3.002  20.300  0.00  0.00    +0.000 C 
ATOM      8  C   UNL     1       1.606   2.044  19.377  0.00  0.00    +0.000 C 
ATOM      9  C   UNL     1       1.930   2.123  17.922  0.00  0.00    +0.000 C 
ATOM     10  C   UNL     1       3.086   3.072  17.636  0.00  0.00    +0.000 C 
ATOM     11  C   UNL     1       2.867   4.382  18.371  0.00  0.00    +0.000 C 
ATOM     12  C   UNL     1       3.818   5.561  17.938  0.00  0.00    +0.000 C 
ATOM     13  C   UNL     1       5.061   5.385  18.849  0.00  0.00    +0.000 C 
ENDROOT
BRANCH   7  14
ATOM     14  C   UNL     1       1.740   2.407  21.672  0.00  0.00    +0.000 C 
ATOM     15  O   UNL     1       0.745   2.464  22.372  0.00  0.00    +0.000 OA
BRANCH  14  16
ATOM     16  O   UNL     1       2.884   1.815  22.068  0.00  0.00    +0.000 OA
ATOM     17  H   UNL     1       3.015   1.855  23.030  0.00  0.00    +0.000 HD
ENDBRANCH  14  16
ENDBRANCH   7  14
BRANCH  12  18
ATOM     18  C   UNL     1       4.476   5.732  16.511  0.00  0.00    +0.000 C 
BRANCH  18  19
ATOM     19  C   UNL     1       4.998   4.472  15.757  0.00  0.00    +0.000 C 
BRANCH  19  20
ATOM     20  C   UNL     1       6.418   4.556  15.228  0.00  0.00    +0.000 C 
ATOM     21  C   UNL     1       6.816   4.245  13.969  0.00  0.00    +0.000 C 
BRANCH  21  22
ATOM     22  C   UNL     1       5.929   3.611  12.961  0.00  0.00    +0.000 C 
ATOM     23  O   UNL     1       4.795   3.979  12.711  0.00  0.00    +0.000 OA
BRANCH  22  24
ATOM     24  O   UNL     1       6.508   2.560  12.356  0.00  0.00    +0.000 OA
ATOM     25  H   UNL     1       7.467   2.598  12.199  0.00  0.00    +0.000 HD
ENDBRANCH  22  24
ENDBRANCH  21  22
BRANCH  20  26
ATOM     26  C   UNL     1       7.369   5.133  16.210  0.00  0.00    +0.000 C 
ATOM     27  O   UNL     1       7.669   6.315  16.223  0.00  0.00    +0.000 OA
BRANCH  26  28
ATOM     28  O   UNL     1       7.954   4.199  17.001  0.00  0.00    +0.000 OA
ATOM     29  H   UNL     1       7.419   3.872  17.718  0.00  0.00    +0.000 HD
ENDBRANCH  26  28
ENDBRANCH  20  26
ENDBRANCH  19  20
ENDBRANCH  18  19
ENDBRANCH  12  18
TORSDOF 9
ENDMDL
MODEL 9
REMARK VINA RESULT:      -7.3      9.728     12.586
REMARK  Name = 
REMARK  12 active torsions:
REMARK  status: ('A' for Active; 'I' for Inactive)
REMARK    1  A    between atoms: C_1  and  C_2
REMARK    2  A    between atoms: C_5  and  C_6
REMARK    3  A    between atoms: C_7  and  C_8
REMARK    4  A    between atoms: C_8  and  O_10
REMARK    5  A    between atoms: C_15  and  C_16
REMARK    6  A    between atoms: C_15  and  C_17
REMARK    7  A    between atoms: C_17  and  C_18
REMARK    8  A    between atoms: C_18  and  C_19
REMARK    9  A    between atoms: C_19  and  C_24
REMARK   10  A    between atoms: C_20  and  C_21
REMARK   11  A    between atoms: C_21  and  O_23
REMARK   12  A    between atoms: C_24  and  O_26
REMARK                            x       y       z     vdW  Elec       q    Type
REMARK                         _______ _______ _______ _____ _____    ______ ____
ROOT
ATOM      1  C   UNL     1      -0.940  15.597  22.830  0.00  0.00    +0.000 C 
ATOM      2  C   UNL     1      -2.149  14.701  23.119  0.00  0.00    +0.000 C 
ATOM      3  C   UNL     1      -2.800  14.740  24.501  0.00  0.00    +0.000 C 
ATOM      4  C   UNL     1      -4.363  14.606  24.330  0.00  0.00    +0.000 C 
ATOM      5  C   UNL     1      -4.798  13.306  23.511  0.00  0.00    +0.000 C 
ATOM      6  C   UNL     1      -4.659  12.221  24.644  0.00  0.00    +0.000 C 
ATOM      7  C   UNL     1      -6.257  13.107  23.026  0.00  0.00    +0.000 C 
ATOM      8  C   UNL     1      -6.631  12.987  21.734  0.00  0.00    +0.000 C 
ATOM      9  C   UNL     1      -5.731  13.047  20.545  0.00  0.00    +0.000 C 
ATOM     10  C   UNL     1      -4.304  12.633  20.878  0.00  0.00    +0.000 C 
ATOM     11  C   UNL     1      -3.843  13.348  22.135  0.00  0.00    +0.000 C 
ATOM     12  C   UNL     1      -2.299  13.254  22.432  0.00  0.00    +0.000 C 
ATOM     13  C   UNL     1      -2.162  11.949  23.259  0.00  0.00    +0.000 C 
ENDROOT
BRANCH   7  14
ATOM     14  C   UNL     1      -7.358  12.610  23.913  0.00  0.00    +0.000 C 
ATOM     15  O   UNL     1      -7.842  11.494  23.843  0.00  0.00    +0.000 OA
BRANCH  14  16
ATOM     16  O   UNL     1      -7.781  13.539  24.792  0.00  0.00    +0.000 OA
ATOM     17  H   UNL     1      -7.151  14.271  24.899  0.00  0.00    +0.000 HD
ENDBRANCH  14  16
ENDBRANCH   7  14
BRANCH  12  18
ATOM     18  C   UNL     1      -1.164  13.078  21.346  0.00  0.00    +0.000 C 
BRANCH  18  19
ATOM     19  C   UNL     1      -1.028  11.716  20.602  0.00  0.00    +0.000 C 
BRANCH  19  20
ATOM     20  C   UNL     1       0.389  11.227  20.365  0.00  0.00    +0.000 C 
ATOM     21  C   UNL     1       0.992  10.196  21.007  0.00  0.00    +0.000 C 
BRANCH  21  22
ATOM     22  C   UNL     1       0.393   9.491  22.169  0.00  0.00    +0.000 C 
ATOM     23  O   UNL     1       0.641   9.747  23.334  0.00  0.00    +0.000 OA
BRANCH  22  24
ATOM     24  O   UNL     1      -0.450   8.512  21.798  0.00  0.00    +0.000 OA
ATOM     25  H   UNL     1      -0.145   7.883  21.122  0.00  0.00    +0.000 HD
ENDBRANCH  22  24
ENDBRANCH  21  22
BRANCH  20  26
ATOM     26  C   UNL     1       1.066  11.931  19.248  0.00  0.00    +0.000 C 
ATOM     27  O   UNL     1       2.175  12.428  19.355  0.00  0.00    +0.000 OA
BRANCH  26  28
ATOM     28  O   UNL     1       0.283  12.068  18.148  0.00  0.00    +0.000 OA
ATOM     29  H   UNL     1       0.245  12.945  17.776  0.00  0.00    +0.000 HD
ENDBRANCH  26  28
ENDBRANCH  20  26
ENDBRANCH  19  20
ENDBRANCH  18  19
ENDBRANCH  12  18
TORSDOF 9
ENDMDL
