MODEL 1
REMARK VINA RESULT:      -7.5      0.000      0.000
REMARK  Name = 
REMARK  5 active torsions:
REMARK  status: ('A' for Active; 'I' for Inactive)
REMARK    1  A    between atoms: C_1  and  C_2
REMARK    2  A    between atoms: C_5  and  C_6
REMARK    3  A    between atoms: N_8  and  C_9
REMARK    4  A    between atoms: N_8  and  C_17
REMARK    5  A    between atoms: C_9  and  C_10
REMARK                            x       y       z     vdW  Elec       q    Type
REMARK                         _______ _______ _______ _____ _____    ______ ____
ROOT
ATOM      1  C   UNL     1       5.289   4.568  17.593  0.00  0.00    +0.000 C 
ATOM      2  O   UNL     1       5.789   3.633  18.239  0.00  0.00    +0.000 OA
ATOM      3  N   UNL     1       4.238   5.293  18.146  0.00  0.00    +0.000 N 
ENDROOT
BRANCH   1   8
ATOM      4  C   UNL     1       7.625   4.659  12.265  0.00  0.00    +0.000 C 
ATOM      5  C   UNL     1       6.976   4.707  13.617  0.00  0.00    +0.000 A 
ATOM      6  C   UNL     1       5.899   3.964  13.928  0.00  0.00    +0.000 A 
ATOM      7  C   UNL     1       5.338   4.041  15.259  0.00  0.00    +0.000 A 
ATOM      8  C   UNL     1       5.839   4.829  16.229  0.00  0.00    +0.000 A 
ATOM      9  C   UNL     1       7.054   5.636  15.884  0.00  0.00    +0.000 A 
ATOM     10  O   UNL     1       7.642   6.350  16.691  0.00  0.00    +0.000 OA
ATOM     11  N   UNL     1       7.520   5.523  14.583  0.00  0.00    +0.000 N 
ATOM     12  H   UNL     1       8.355   6.058  14.373  0.00  0.00    +0.000 HD
ENDBRANCH   1   8
BRANCH   3  13
ATOM     13  C   UNL     1       3.423   6.252  17.445  0.00  0.00    +0.000 C 
ATOM     14  C   UNL     1       2.725   7.379  18.154  0.00  0.00    +0.000 C 
ATOM     15  C   UNL     1       3.905   7.679  17.283  0.00  0.00    +0.000 C 
ENDBRANCH   3  13
BRANCH   3  16
ATOM     16  C   UNL     1       4.123   5.279  19.623  0.00  0.00    +0.000 C 
BRANCH  16  17
ATOM     17  C   UNL     1       3.135   4.193  20.008  0.00  0.00    +0.000 A 
ATOM     18  C   UNL     1       1.761   4.476  19.984  0.00  0.00    +0.000 A 
ATOM     19  C   UNL     1       0.904   3.770  20.821  0.00  0.00    +0.000 A 
ATOM     20  C   UNL     1       1.414   2.760  21.629  0.00  0.00    +0.000 A 
ATOM     21  F   UNL     1       0.623   2.190  22.547  0.00  0.00    +0.000 F 
ATOM     22  C   UNL     1       2.743   2.364  21.534  0.00  0.00    +0.000 A 
ATOM     23  C   UNL     1       3.605   3.063  20.697  0.00  0.00    +0.000 A 
ENDBRANCH  16  17
ENDBRANCH   3  16
TORSDOF 4
ENDMDL
MODEL 2
REMARK VINA RESULT:      -7.5      0.881      1.263
REMARK  Name = 
REMARK  5 active torsions:
REMARK  status: ('A' for Active; 'I' for Inactive)
REMARK    1  A    between atoms: C_1  and  C_2
REMARK    2  A    between atoms: C_5  and  C_6
REMARK    3  A    between atoms: N_8  and  C_9
REMARK    4  A    between atoms: N_8  and  C_17
REMARK    5  A    between atoms: C_9  and  C_10
REMARK                            x       y       z     vdW  Elec       q    Type
REMARK                         _______ _______ _______ _____ _____    ______ ____
ROOT
ATOM      1  C   UNL     1       5.537   4.602  17.606  0.00  0.00    +0.000 C 
ATOM      2  O   UNL     1       6.147   3.751  18.273  0.00  0.00    +0.000 OA
ATOM      3  N   UNL     1       4.467   5.280  18.180  0.00  0.00    +0.000 N 
ENDROOT
BRANCH   1   8
ATOM      4  C   UNL     1       7.523   4.523  12.137  0.00  0.00    +0.000 C 
ATOM      5  C   UNL     1       6.960   4.611  13.525  0.00  0.00    +0.000 A 
ATOM      6  C   UNL     1       5.947   3.831  13.944  0.00  0.00    +0.000 A 
ATOM      7  C   UNL     1       5.468   3.952  15.304  0.00  0.00    +0.000 A 
ATOM      8  C   UNL     1       5.984   4.816  16.197  0.00  0.00    +0.000 A 
ATOM      9  C   UNL     1       7.128   5.666  15.732  0.00  0.00    +0.000 A 
ATOM     10  O   UNL     1       7.726   6.453  16.460  0.00  0.00    +0.000 OA
ATOM     11  N   UNL     1       7.517   5.506  14.409  0.00  0.00    +0.000 N 
ATOM     12  H   UNL     1       8.305   6.072  14.118  0.00  0.00    +0.000 HD
ENDBRANCH   1   8
BRANCH   3  13
ATOM     13  C   UNL     1       3.538   6.127  17.476  0.00  0.00    +0.000 C 
ATOM     14  C   UNL     1       2.906   7.329  18.121  0.00  0.00    +0.000 C 
ATOM     15  C   UNL     1       3.952   7.526  17.069  0.00  0.00    +0.000 C 
ENDBRANCH   3  13
BRANCH   3  16
ATOM     16  C   UNL     1       4.439   5.351  19.660  0.00  0.00    +0.000 C 
BRANCH  16  17
ATOM     17  C   UNL     1       3.323   4.448  20.155  0.00  0.00    +0.000 A 
ATOM     18  C   UNL     1       3.364   3.079  19.852  0.00  0.00    +0.000 A 
ATOM     19  C   UNL     1       2.176   2.361  19.775  0.00  0.00    +0.000 A 
ATOM     20  C   UNL     1       0.972   2.999  20.052  0.00  0.00    +0.000 A 
ATOM     21  F   UNL     1      -0.180   2.355  19.826  0.00  0.00    +0.000 F 
ATOM     22  C   UNL     1       0.940   4.309  20.515  0.00  0.00    +0.000 A 
ATOM     23  C   UNL     1       2.125   5.032  20.596  0.00  0.00    +0.000 A 
ENDBRANCH  16  17
ENDBRANCH   3  16
TORSDOF 4
ENDMDL
MODEL 3
REMARK VINA RESULT:      -7.5      2.473      3.665
REMARK  Name = 
REMARK  5 active torsions:
REMARK  status: ('A' for Active; 'I' for Inactive)
REMARK    1  A    between atoms: C_1  and  C_2
REMARK    2  A    between atoms: C_5  and  C_6
REMARK    3  A    between atoms: N_8  and  C_9
REMARK    4  A    between atoms: N_8  and  C_17
REMARK    5  A    between atoms: C_9  and  C_10
REMARK                            x       y       z     vdW  Elec       q    Type
REMARK                         _______ _______ _______ _____ _____    ______ ____
ROOT
ATOM      1  C   UNL     1       5.092   4.879  18.707  0.00  0.00    +0.000 C 
ATOM      2  O   UNL     1       5.508   5.500  19.699  0.00  0.00    +0.000 OA
ATOM      3  N   UNL     1       3.975   4.060  18.834  0.00  0.00    +0.000 N 
ENDROOT
BRANCH   1   8
ATOM      4  C   UNL     1       7.469   4.838  13.396  0.00  0.00    +0.000 C 
ATOM      5  C   UNL     1       6.888   4.929  14.777  0.00  0.00    +0.000 A 
ATOM      6  C   UNL     1       5.609   5.281  15.000  0.00  0.00    +0.000 A 
ATOM      7  C   UNL     1       5.107   5.326  16.356  0.00  0.00    +0.000 A 
ATOM      8  C   UNL     1       5.858   5.032  17.433  0.00  0.00    +0.000 A 
ATOM      9  C   UNL     1       7.276   4.617  17.177  0.00  0.00    +0.000 A 
ATOM     10  O   UNL     1       8.049   4.269  18.064  0.00  0.00    +0.000 OA
ATOM     11  N   UNL     1       7.688   4.618  15.852  0.00  0.00    +0.000 N 
ATOM     12  H   UNL     1       8.641   4.314  15.695  0.00  0.00    +0.000 HD
ENDBRANCH   1   8
BRANCH   3  13
ATOM     13  C   UNL     1       3.507   3.123  17.845  0.00  0.00    +0.000 C 
ATOM     14  C   UNL     1       3.549   1.637  18.068  0.00  0.00    +0.000 C 
ATOM     15  C   UNL     1       2.231   2.343  18.087  0.00  0.00    +0.000 C 
ENDBRANCH   3  13
BRANCH   3  16
ATOM     16  C   UNL     1       3.048   4.366  19.948  0.00  0.00    +0.000 C 
BRANCH  16  17
ATOM     17  C   UNL     1       2.285   5.630  19.594  0.00  0.00    +0.000 A 
ATOM     18  C   UNL     1       2.308   6.095  18.271  0.00  0.00    +0.000 A 
ATOM     19  C   UNL     1       2.133   7.453  18.022  0.00  0.00    +0.000 A 
ATOM     20  C   UNL     1       1.885   8.317  19.083  0.00  0.00    +0.000 A 
ATOM     21  F   UNL     1       1.875   9.638  18.866  0.00  0.00    +0.000 F 
ATOM     22  C   UNL     1       1.695   7.837  20.373  0.00  0.00    +0.000 A 
ATOM     23  C   UNL     1       1.866   6.481  20.628  0.00  0.00    +0.000 A 
ENDBRANCH  16  17
ENDBRANCH   3  16
TORSDOF 4
ENDMDL
MODEL 4
REMARK VINA RESULT:      -7.5      2.488      3.397
REMARK  Name = 
REMARK  5 active torsions:
REMARK  status: ('A' for Active; 'I' for Inactive)
REMARK    1  A    between atoms: C_1  and  C_2
REMARK    2  A    between atoms: C_5  and  C_6
REMARK    3  A    between atoms: N_8  and  C_9
REMARK    4  A    between atoms: N_8  and  C_17
REMARK    5  A    between atoms: C_9  and  C_10
REMARK                            x       y       z     vdW  Elec       q    Type
REMARK                         _______ _______ _______ _____ _____    ______ ____
ROOT
ATOM      1  C   UNL     1       5.976   4.938  17.195  0.00  0.00    +0.000 C 
ATOM      2  O   UNL     1       6.580   4.305  16.315  0.00  0.00    +0.000 OA
ATOM      3  N   UNL     1       4.676   4.571  17.529  0.00  0.00    +0.000 N 
ENDROOT
BRANCH   1   8
ATOM      4  C   UNL     1       9.177   9.529  18.788  0.00  0.00    +0.000 C 
ATOM      5  C   UNL     1       8.293   8.367  18.440  0.00  0.00    +0.000 A 
ATOM      6  C   UNL     1       7.403   8.414  17.432  0.00  0.00    +0.000 A 
ATOM      7  C   UNL     1       6.599   7.249  17.135  0.00  0.00    +0.000 A 
ATOM      8  C   UNL     1       6.689   6.093  17.820  0.00  0.00    +0.000 A 
ATOM      9  C   UNL     1       7.699   6.039  18.926  0.00  0.00    +0.000 A 
ATOM     10  O   UNL     1       7.921   5.031  19.590  0.00  0.00    +0.000 OA
ATOM     11  N   UNL     1       8.417   7.203  19.162  0.00  0.00    +0.000 N 
ATOM     12  H   UNL     1       9.111   7.141  19.898  0.00  0.00    +0.000 HD
ENDBRANCH   1   8
BRANCH   3  13
ATOM     13  C   UNL     1       3.780   5.330  18.364  0.00  0.00    +0.000 C 
ATOM     14  C   UNL     1       3.425   6.759  18.063  0.00  0.00    +0.000 C 
ATOM     15  C   UNL     1       2.399   5.691  17.856  0.00  0.00    +0.000 C 
ENDBRANCH   3  13
BRANCH   3  16
ATOM     16  C   UNL     1       4.279   3.176  17.227  0.00  0.00    +0.000 C 
BRANCH  16  17
ATOM     17  C   UNL     1       3.588   2.607  18.452  0.00  0.00    +0.000 A 
ATOM     18  C   UNL     1       2.213   2.335  18.398  0.00  0.00    +0.000 A 
ATOM     19  C   UNL     1       1.464   2.365  19.570  0.00  0.00    +0.000 A 
ATOM     20  C   UNL     1       2.100   2.612  20.782  0.00  0.00    +0.000 A 
ATOM     21  F   UNL     1       1.363   2.799  21.884  0.00  0.00    +0.000 F 
ATOM     22  C   UNL     1       3.483   2.715  20.862  0.00  0.00    +0.000 A 
ATOM     23  C   UNL     1       4.237   2.683  19.694  0.00  0.00    +0.000 A 
ENDBRANCH  16  17
ENDBRANCH   3  16
TORSDOF 4
ENDMDL
MODEL 5
REMARK VINA RESULT:      -7.4      2.065      2.965
REMARK  Name = 
REMARK  5 active torsions:
REMARK  status: ('A' for Active; 'I' for Inactive)
REMARK    1  A    between atoms: C_1  and  C_2
REMARK    2  A    between atoms: C_5  and  C_6
REMARK    3  A    between atoms: N_8  and  C_9
REMARK    4  A    between atoms: N_8  and  C_17
REMARK    5  A    between atoms: C_9  and  C_10
REMARK                            x       y       z     vdW  Elec       q    Type
REMARK                         _______ _______ _______ _____ _____    ______ ____
ROOT
ATOM      1  C   UNL     1       5.158   4.060  16.656  0.00  0.00    +0.000 C 
ATOM      2  O   UNL     1       5.456   3.244  15.769  0.00  0.00    +0.000 OA
ATOM      3  N   UNL     1       3.947   3.925  17.328  0.00  0.00    +0.000 N 
ENDROOT
BRANCH   1   8
ATOM      4  C   UNL     1       8.503   8.440  18.525  0.00  0.00    +0.000 C 
ATOM      5  C   UNL     1       7.705   7.287  17.988  0.00  0.00    +0.000 A 
ATOM      6  C   UNL     1       7.654   6.095  18.607  0.00  0.00    +0.000 A 
ATOM      7  C   UNL     1       6.845   5.033  18.048  0.00  0.00    +0.000 A 
ATOM      8  C   UNL     1       6.124   5.169  16.919  0.00  0.00    +0.000 A 
ATOM      9  C   UNL     1       6.166   6.508  16.246  0.00  0.00    +0.000 A 
ATOM     10  O   UNL     1       5.512   6.782  15.244  0.00  0.00    +0.000 OA
ATOM     11  N   UNL     1       6.979   7.467  16.833  0.00  0.00    +0.000 N 
ATOM     12  H   UNL     1       6.978   8.372  16.378  0.00  0.00    +0.000 HD
ENDBRANCH   1   8
BRANCH   3  13
ATOM     13  C   UNL     1       3.371   4.901  18.219  0.00  0.00    +0.000 C 
ATOM     14  C   UNL     1       3.257   6.353  17.848  0.00  0.00    +0.000 C 
ATOM     15  C   UNL     1       2.022   5.511  17.900  0.00  0.00    +0.000 C 
ENDBRANCH   3  13
BRANCH   3  16
ATOM     16  C   UNL     1       3.339   2.575  17.341  0.00  0.00    +0.000 C 
BRANCH  16  17
ATOM     17  C   UNL     1       2.932   2.255  18.768  0.00  0.00    +0.000 A 
ATOM     18  C   UNL     1       1.572   2.258  19.110  0.00  0.00    +0.000 A 
ATOM     19  C   UNL     1       1.198   2.531  20.422  0.00  0.00    +0.000 A 
ATOM     20  C   UNL     1       2.180   2.742  21.383  0.00  0.00    +0.000 A 
ATOM     21  F   UNL     1       1.824   3.159  22.605  0.00  0.00    +0.000 F 
ATOM     22  C   UNL     1       3.527   2.574  21.086  0.00  0.00    +0.000 A 
ATOM     23  C   UNL     1       3.907   2.299  19.777  0.00  0.00    +0.000 A 
ENDBRANCH  16  17
ENDBRANCH   3  16
TORSDOF 4
ENDMDL
MODEL 6
REMARK VINA RESULT:      -7.3      2.730      3.974
REMARK  Name = 
REMARK  5 active torsions:
REMARK  status: ('A' for Active; 'I' for Inactive)
REMARK    1  A    between atoms: C_1  and  C_2
REMARK    2  A    between atoms: C_5  and  C_6
REMARK    3  A    between atoms: N_8  and  C_9
REMARK    4  A    between atoms: N_8  and  C_17
REMARK    5  A    between atoms: C_9  and  C_10
REMARK                            x       y       z     vdW  Elec       q    Type
REMARK                         _______ _______ _______ _____ _____    ______ ____
ROOT
ATOM      1  C   UNL     1       4.845   5.426  18.667  0.00  0.00    +0.000 C 
ATOM      2  O   UNL     1       5.426   5.724  19.724  0.00  0.00    +0.000 OA
ATOM      3  N   UNL     1       3.489   5.119  18.697  0.00  0.00    +0.000 N 
ENDROOT
BRANCH   1   8
ATOM      4  C   UNL     1       7.371   4.710  13.473  0.00  0.00    +0.000 C 
ATOM      5  C   UNL     1       6.763   4.971  14.821  0.00  0.00    +0.000 A 
ATOM      6  C   UNL     1       5.546   5.524  14.969  0.00  0.00    +0.000 A 
ATOM      7  C   UNL     1       5.010   5.726  16.298  0.00  0.00    +0.000 A 
ATOM      8  C   UNL     1       5.669   5.386  17.421  0.00  0.00    +0.000 A 
ATOM      9  C   UNL     1       7.015   4.747  17.249  0.00  0.00    +0.000 A 
ATOM     10  O   UNL     1       7.695   4.340  18.186  0.00  0.00    +0.000 OA
ATOM     11  N   UNL     1       7.468   4.607  15.945  0.00  0.00    +0.000 N 
ATOM     12  H   UNL     1       8.368   4.153  15.846  0.00  0.00    +0.000 HD
ENDBRANCH   1   8
BRANCH   3  13
ATOM     13  C   UNL     1       2.734   4.554  17.607  0.00  0.00    +0.000 C 
ATOM     14  C   UNL     1       2.610   3.070  17.404  0.00  0.00    +0.000 C 
ATOM     15  C   UNL     1       1.424   3.846  17.883  0.00  0.00    +0.000 C 
ENDBRANCH   3  13
BRANCH   3  16
ATOM     16  C   UNL     1       2.709   5.658  19.835  0.00  0.00    +0.000 C 
BRANCH  16  17
ATOM     17  C   UNL     1       2.447   7.130  19.572  0.00  0.00    +0.000 A 
ATOM     18  C   UNL     1       1.759   7.886  20.532  0.00  0.00    +0.000 A 
ATOM     19  C   UNL     1       1.030   9.000  20.130  0.00  0.00    +0.000 A 
ATOM     20  C   UNL     1       1.040   9.378  18.792  0.00  0.00    +0.000 A 
ATOM     21  F   UNL     1       0.217  10.349  18.377  0.00  0.00    +0.000 F 
ATOM     22  C   UNL     1       1.853   8.733  17.868  0.00  0.00    +0.000 A 
ATOM     23  C   UNL     1       2.585   7.620  18.264  0.00  0.00    +0.000 A 
ENDBRANCH  16  17
ENDBRANCH   3  16
TORSDOF 4
ENDMDL
MODEL 7
REMARK VINA RESULT:      -7.1      3.430      6.704
REMARK  Name = 
REMARK  5 active torsions:
REMARK  status: ('A' for Active; 'I' for Inactive)
REMARK    1  A    between atoms: C_1  and  C_2
REMARK    2  A    between atoms: C_5  and  C_6
REMARK    3  A    between atoms: N_8  and  C_9
REMARK    4  A    between atoms: N_8  and  C_17
REMARK    5  A    between atoms: C_9  and  C_10
REMARK                            x       y       z     vdW  Elec       q    Type
REMARK                         _______ _______ _______ _____ _____    ______ ____
ROOT
ATOM      1  C   UNL     1       3.608   6.371  18.440  0.00  0.00    +0.000 C 
ATOM      2  O   UNL     1       4.788   6.752  18.382  0.00  0.00    +0.000 OA
ATOM      3  N   UNL     1       3.318   5.020  18.278  0.00  0.00    +0.000 N 
ENDROOT
BRANCH   1   8
ATOM      4  C   UNL     1       0.231  11.060  19.131  0.00  0.00    +0.000 C 
ATOM      5  C   UNL     1       1.031   9.806  18.928  0.00  0.00    +0.000 A 
ATOM      6  C   UNL     1       1.717   9.563  17.797  0.00  0.00    +0.000 A 
ATOM      7  C   UNL     1       2.487   8.344  17.677  0.00  0.00    +0.000 A 
ATOM      8  C   UNL     1       2.560   7.416  18.649  0.00  0.00    +0.000 A 
ATOM      9  C   UNL     1       1.812   7.703  19.917  0.00  0.00    +0.000 A 
ATOM     10  O   UNL     1       1.841   6.969  20.900  0.00  0.00    +0.000 OA
ATOM     11  N   UNL     1       1.082   8.883  19.947  0.00  0.00    +0.000 N 
ATOM     12  H   UNL     1       0.601   9.072  20.818  0.00  0.00    +0.000 HD
ENDBRANCH   1   8
BRANCH   3  13
ATOM     13  C   UNL     1       2.002   4.460  18.108  0.00  0.00    +0.000 C 
ATOM     14  C   UNL     1       1.738   2.985  18.225  0.00  0.00    +0.000 C 
ATOM     15  C   UNL     1       1.257   3.904  19.303  0.00  0.00    +0.000 C 
ENDBRANCH   3  13
BRANCH   3  16
ATOM     16  C   UNL     1       4.412   4.064  18.571  0.00  0.00    +0.000 C 
BRANCH  16  17
ATOM     17  C   UNL     1       5.295   3.966  17.340  0.00  0.00    +0.000 A 
ATOM     18  C   UNL     1       6.654   4.297  17.443  0.00  0.00    +0.000 A 
ATOM     19  C   UNL     1       7.331   4.757  16.319  0.00  0.00    +0.000 A 
ATOM     20  C   UNL     1       6.666   4.832  15.101  0.00  0.00    +0.000 A 
ATOM     21  F   UNL     1       7.265   5.422  14.059  0.00  0.00    +0.000 F 
ATOM     22  C   UNL     1       5.371   4.349  14.957  0.00  0.00    +0.000 A 
ATOM     23  C   UNL     1       4.688   3.885  16.076  0.00  0.00    +0.000 A 
ENDBRANCH  16  17
ENDBRANCH   3  16
TORSDOF 4
ENDMDL
MODEL 8
REMARK VINA RESULT:      -7.0      2.688      3.929
REMARK  Name = 
REMARK  5 active torsions:
REMARK  status: ('A' for Active; 'I' for Inactive)
REMARK    1  A    between atoms: C_1  and  C_2
REMARK    2  A    between atoms: C_5  and  C_6
REMARK    3  A    between atoms: N_8  and  C_9
REMARK    4  A    between atoms: N_8  and  C_17
REMARK    5  A    between atoms: C_9  and  C_10
REMARK                            x       y       z     vdW  Elec       q    Type
REMARK                         _______ _______ _______ _____ _____    ______ ____
ROOT
ATOM      1  C   UNL     1       4.717   5.234  18.142  0.00  0.00    +0.000 C 
ATOM      2  O   UNL     1       5.645   5.555  18.902  0.00  0.00    +0.000 OA
ATOM      3  N   UNL     1       3.437   5.071  18.662  0.00  0.00    +0.000 N 
ENDROOT
BRANCH   1   8
ATOM      4  C   UNL     1       6.861   4.033  12.868  0.00  0.00    +0.000 C 
ATOM      5  C   UNL     1       6.227   4.334  14.195  0.00  0.00    +0.000 A 
ATOM      6  C   UNL     1       6.063   3.396  15.145  0.00  0.00    +0.000 A 
ATOM      7  C   UNL     1       5.465   3.760  16.411  0.00  0.00    +0.000 A 
ATOM      8  C   UNL     1       5.055   5.008  16.705  0.00  0.00    +0.000 A 
ATOM      9  C   UNL     1       5.262   6.054  15.651  0.00  0.00    +0.000 A 
ATOM     10  O   UNL     1       4.985   7.239  15.810  0.00  0.00    +0.000 OA
ATOM     11  N   UNL     1       5.823   5.622  14.457  0.00  0.00    +0.000 N 
ATOM     12  H   UNL     1       5.977   6.346  13.765  0.00  0.00    +0.000 HD
ENDBRANCH   1   8
BRANCH   3  13
ATOM     13  C   UNL     1       2.315   4.500  17.960  0.00  0.00    +0.000 C 
ATOM     14  C   UNL     1       2.255   3.043  17.599  0.00  0.00    +0.000 C 
ATOM     15  C   UNL     1       1.368   3.566  18.684  0.00  0.00    +0.000 C 
ENDBRANCH   3  13
BRANCH   3  16
ATOM     16  C   UNL     1       3.136   5.778  19.928  0.00  0.00    +0.000 C 
BRANCH  16  17
ATOM     17  C   UNL     1       2.197   6.929  19.615  0.00  0.00    +0.000 A 
ATOM     18  C   UNL     1       2.346   7.625  18.406  0.00  0.00    +0.000 A 
ATOM     19  C   UNL     1       1.936   8.952  18.328  0.00  0.00    +0.000 A 
ATOM     20  C   UNL     1       1.337   9.550  19.431  0.00  0.00    +0.000 A 
ATOM     21  F   UNL     1       1.088  10.865  19.411  0.00  0.00    +0.000 F 
ATOM     22  C   UNL     1       1.036   8.816  20.572  0.00  0.00    +0.000 A 
ATOM     23  C   UNL     1       1.441   7.489  20.656  0.00  0.00    +0.000 A 
ENDBRANCH  16  17
ENDBRANCH   3  16
TORSDOF 4
ENDMDL
MODEL 9
REMARK VINA RESULT:      -7.0      2.517      3.898
REMARK  Name = 
REMARK  5 active torsions:
REMARK  status: ('A' for Active; 'I' for Inactive)
REMARK    1  A    between atoms: C_1  and  C_2
REMARK    2  A    between atoms: C_5  and  C_6
REMARK    3  A    between atoms: N_8  and  C_9
REMARK    4  A    between atoms: N_8  and  C_17
REMARK    5  A    between atoms: C_9  and  C_10
REMARK                            x       y       z     vdW  Elec       q    Type
REMARK                         _______ _______ _______ _____ _____    ______ ____
ROOT
ATOM      1  C   UNL     1       5.858   4.523  18.086  0.00  0.00    +0.000 C 
ATOM      2  O   UNL     1       5.744   3.754  19.055  0.00  0.00    +0.000 OA
ATOM      3  N   UNL     1       5.358   4.138  16.847  0.00  0.00    +0.000 N 
ENDROOT
BRANCH   1   8
ATOM      4  C   UNL     1       8.767   9.563  18.059  0.00  0.00    +0.000 C 
ATOM      5  C   UNL     1       7.978   8.289  18.140  0.00  0.00    +0.000 A 
ATOM      6  C   UNL     1       6.831   8.106  17.461  0.00  0.00    +0.000 A 
ATOM      7  C   UNL     1       6.133   6.843  17.566  0.00  0.00    +0.000 A 
ATOM      8  C   UNL     1       6.569   5.817  18.319  0.00  0.00    +0.000 A 
ATOM      9  C   UNL     1       7.859   6.018  19.055  0.00  0.00    +0.000 A 
ATOM     10  O   UNL     1       8.396   5.145  19.731  0.00  0.00    +0.000 OA
ATOM     11  N   UNL     1       8.458   7.262  18.920  0.00  0.00    +0.000 N 
ATOM     12  H   UNL     1       9.340   7.373  19.405  0.00  0.00    +0.000 HD
ENDBRANCH   1   8
BRANCH   3  13
ATOM     13  C   UNL     1       5.599   4.816  15.599  0.00  0.00    +0.000 C 
ATOM     14  C   UNL     1       6.923   4.740  14.890  0.00  0.00    +0.000 C 
ATOM     15  C   UNL     1       5.743   4.017  14.320  0.00  0.00    +0.000 C 
ENDBRANCH   3  13
BRANCH   3  16
ATOM     16  C   UNL     1       4.284   3.118  16.850  0.00  0.00    +0.000 C 
BRANCH  16  17
ATOM     17  C   UNL     1       3.088   3.693  17.586  0.00  0.00    +0.000 A 
ATOM     18  C   UNL     1       2.932   5.085  17.658  0.00  0.00    +0.000 A 
ATOM     19  C   UNL     1       2.240   5.641  18.729  0.00  0.00    +0.000 A 
ATOM     20  C   UNL     1       1.669   4.805  19.682  0.00  0.00    +0.000 A 
ATOM     21  F   UNL     1       1.142   5.338  20.792  0.00  0.00    +0.000 F 
ATOM     22  C   UNL     1       1.677   3.424  19.527  0.00  0.00    +0.000 A 
ATOM     23  C   UNL     1       2.365   2.863  18.457  0.00  0.00    +0.000 A 
ENDBRANCH  16  17
ENDBRANCH   3  16
TORSDOF 4
ENDMDL
