MODEL 1
REMARK VINA RESULT:      -8.1      0.000      0.000
REMARK  Name = 
REMARK  4 active torsions:
REMARK  status: ('A' for Active; 'I' for Inactive)
REMARK    1  A    between atoms: N_12  and  C_13
REMARK    2  A    between atoms: C_13  and  C_14
REMARK    3  A    between atoms: N_23  and  C_24
REMARK    4  A    between atoms: C_24  and  C_25
REMARK                            x       y       z     vdW  Elec       q    Type
REMARK                         _______ _______ _______ _____ _____    ______ ____
ROOT
ATOM      1  O   UNL     1       0.762   7.917  21.301  0.00  0.00    +0.000 OA
ATOM      2  C   UNL     1       1.379   7.711  20.260  0.00  0.00    +0.000 A 
ATOM      3  C   UNL     1       1.876   6.422  19.890  0.00  0.00    +0.000 A 
ATOM      4  S   UNL     1       1.661   5.074  20.888  0.00  0.00    +0.000 S 
ATOM      5  C   UNL     1       2.449   4.039  19.775  0.00  0.00    +0.000 A 
ATOM      6  C   UNL     1       2.667   2.655  19.961  0.00  0.00    +0.000 A 
ATOM      7  C   UNL     1       3.304   1.922  18.966  0.00  0.00    +0.000 A 
ATOM      8  C   UNL     1       3.726   2.554  17.810  0.00  0.00    +0.000 A 
ATOM      9  C   UNL     1       3.524   3.932  17.638  0.00  0.00    +0.000 A 
ATOM     10  C   UNL     1       2.872   4.724  18.624  0.00  0.00    +0.000 A 
ATOM     11  C   UNL     1       2.555   6.150  18.727  0.00  0.00    +0.000 A 
ATOM     12  N   UNL     1       2.845   7.233  17.868  0.00  0.00    +0.000 N 
ATOM     13  C   UNL     1       2.473   8.550  18.220  0.00  0.00    +0.000 A 
ATOM     14  O   UNL     1       2.829   9.516  17.539  0.00  0.00    +0.000 OA
ATOM     15  N   UNL     1       1.681   8.724  19.364  0.00  0.00    +0.000 N 
ENDROOT
BRANCH  12  16
ATOM     16  C   UNL     1       3.491   7.091  16.562  0.00  0.00    +0.000 C 
BRANCH  16  17
ATOM     17  C   UNL     1       4.925   6.592  16.543  0.00  0.00    +0.000 A 
ATOM     18  C   UNL     1       5.337   5.779  15.468  0.00  0.00    +0.000 A 
ATOM     19  C   UNL     1       6.581   5.144  15.474  0.00  0.00    +0.000 A 
ATOM     20  C   UNL     1       7.447   5.317  16.553  0.00  0.00    +0.000 A 
ATOM     21  C   UNL     1       7.067   6.150  17.601  0.00  0.00    +0.000 A 
ATOM     22 CL   UNL     1       8.131   6.363  18.938  0.00  0.00    +0.000 Cl
ATOM     23  C   UNL     1       5.824   6.789  17.601  0.00  0.00    +0.000 A 
ENDBRANCH  16  17
ENDBRANCH  12  16
BRANCH  15  24
ATOM     24  C   UNL     1       1.233  10.075  19.700  0.00  0.00    +0.000 C 
BRANCH  24  25
ATOM     25  C   UNL     1      -0.141  10.410  19.142  0.00  0.00    +0.000 A 
ATOM     26  C   UNL     1      -0.605   9.829  17.951  0.00  0.00    +0.000 A 
ATOM     27  C   UNL     1      -1.840  10.205  17.411  0.00  0.00    +0.000 A 
ATOM     28  C   UNL     1      -2.627  11.157  18.055  0.00  0.00    +0.000 A 
ATOM     29  C   UNL     1      -2.200  11.703  19.263  0.00  0.00    +0.000 A 
ATOM     30  C   UNL     1      -0.969  11.329  19.805  0.00  0.00    +0.000 A 
ENDBRANCH  24  25
ENDBRANCH  15  24
TORSDOF 4
ENDMDL
MODEL 2
REMARK VINA RESULT:      -7.7      4.700      7.621
REMARK  Name = 
REMARK  4 active torsions:
REMARK  status: ('A' for Active; 'I' for Inactive)
REMARK    1  A    between atoms: N_12  and  C_13
REMARK    2  A    between atoms: C_13  and  C_14
REMARK    3  A    between atoms: N_23  and  C_24
REMARK    4  A    between atoms: C_24  and  C_25
REMARK                            x       y       z     vdW  Elec       q    Type
REMARK                         _______ _______ _______ _____ _____    ______ ____
ROOT
ATOM      1  O   UNL     1      -0.692  11.131  23.713  0.00  0.00    +0.000 OA
ATOM      2  C   UNL     1      -0.731  11.368  22.510  0.00  0.00    +0.000 A 
ATOM      3  C   UNL     1      -0.070  10.561  21.533  0.00  0.00    +0.000 A 
ATOM      4  S   UNL     1       0.844   9.209  21.978  0.00  0.00    +0.000 S 
ATOM      5  C   UNL     1       1.213   8.836  20.348  0.00  0.00    +0.000 A 
ATOM      6  C   UNL     1       2.013   7.752  19.920  0.00  0.00    +0.000 A 
ATOM      7  C   UNL     1       2.218   7.548  18.561  0.00  0.00    +0.000 A 
ATOM      8  C   UNL     1       1.647   8.411  17.641  0.00  0.00    +0.000 A 
ATOM      9  C   UNL     1       0.870   9.497  18.073  0.00  0.00    +0.000 A 
ATOM     10  C   UNL     1       0.626   9.745  19.452  0.00  0.00    +0.000 A 
ATOM     11  C   UNL     1      -0.104  10.786  20.178  0.00  0.00    +0.000 A 
ATOM     12  N   UNL     1      -0.783  11.938  19.721  0.00  0.00    +0.000 N 
ATOM     13  C   UNL     1      -1.373  12.835  20.639  0.00  0.00    +0.000 A 
ATOM     14  O   UNL     1      -1.860  13.906  20.260  0.00  0.00    +0.000 OA
ATOM     15  N   UNL     1      -1.394  12.470  21.993  0.00  0.00    +0.000 N 
ENDROOT
BRANCH  12  16
ATOM     16  C   UNL     1      -0.971  12.270  18.308  0.00  0.00    +0.000 C 
BRANCH  16  17
ATOM     17  C   UNL     1      -2.153  11.637  17.595  0.00  0.00    +0.000 A 
ATOM     18  C   UNL     1      -1.956  11.128  16.296  0.00  0.00    +0.000 A 
ATOM     19  C   UNL     1      -3.030  10.693  15.515  0.00  0.00    +0.000 A 
ATOM     20  C   UNL     1      -4.327  10.749  16.024  0.00  0.00    +0.000 A 
ATOM     21  C   UNL     1      -4.529  11.212  17.320  0.00  0.00    +0.000 A 
ATOM     22 CL   UNL     1      -6.131  11.287  17.950  0.00  0.00    +0.000 Cl
ATOM     23  C   UNL     1      -3.458  11.647  18.105  0.00  0.00    +0.000 A 
ENDBRANCH  16  17
ENDBRANCH  12  16
BRANCH  15  24
ATOM     24  C   UNL     1      -2.064  13.360  22.943  0.00  0.00    +0.000 C 
BRANCH  24  25
ATOM     25  C   UNL     1      -3.545  13.062  23.105  0.00  0.00    +0.000 A 
ATOM     26  C   UNL     1      -4.081  12.688  24.347  0.00  0.00    +0.000 A 
ATOM     27  C   UNL     1      -5.433  12.345  24.464  0.00  0.00    +0.000 A 
ATOM     28  C   UNL     1      -6.264  12.379  23.347  0.00  0.00    +0.000 A 
ATOM     29  C   UNL     1      -5.756  12.797  22.120  0.00  0.00    +0.000 A 
ATOM     30  C   UNL     1      -4.408  13.142  22.001  0.00  0.00    +0.000 A 
ENDBRANCH  24  25
ENDBRANCH  15  24
TORSDOF 4
ENDMDL
MODEL 3
REMARK VINA RESULT:      -7.6      4.555      7.593
REMARK  Name = 
REMARK  4 active torsions:
REMARK  status: ('A' for Active; 'I' for Inactive)
REMARK    1  A    between atoms: N_12  and  C_13
REMARK    2  A    between atoms: C_13  and  C_14
REMARK    3  A    between atoms: N_23  and  C_24
REMARK    4  A    between atoms: C_24  and  C_25
REMARK                            x       y       z     vdW  Elec       q    Type
REMARK                         _______ _______ _______ _____ _____    ______ ____
ROOT
ATOM      1  O   UNL     1      -0.920  11.357  23.757  0.00  0.00    +0.000 OA
ATOM      2  C   UNL     1      -0.908  11.578  22.550  0.00  0.00    +0.000 A 
ATOM      3  C   UNL     1      -0.221  10.746  21.611  0.00  0.00    +0.000 A 
ATOM      4  S   UNL     1       0.653   9.388  22.110  0.00  0.00    +0.000 S 
ATOM      5  C   UNL     1       1.080   8.986  20.502  0.00  0.00    +0.000 A 
ATOM      6  C   UNL     1       1.878   7.884  20.121  0.00  0.00    +0.000 A 
ATOM      7  C   UNL     1       2.134   7.658  18.773  0.00  0.00    +0.000 A 
ATOM      8  C   UNL     1       1.613   8.516  17.820  0.00  0.00    +0.000 A 
ATOM      9  C   UNL     1       0.836   9.619  18.205  0.00  0.00    +0.000 A 
ATOM     10  C   UNL     1       0.542   9.890  19.571  0.00  0.00    +0.000 A 
ATOM     11  C   UNL     1      -0.199  10.953  20.253  0.00  0.00    +0.000 A 
ATOM     12  N   UNL     1      -0.841  12.109  19.754  0.00  0.00    +0.000 N 
ATOM     13  C   UNL     1      -1.453  13.028  20.636  0.00  0.00    +0.000 A 
ATOM     14  O   UNL     1      -1.908  14.100  20.223  0.00  0.00    +0.000 OA
ATOM     15  N   UNL     1      -1.533  12.682  21.992  0.00  0.00    +0.000 N 
ENDROOT
BRANCH  12  16
ATOM     16  C   UNL     1      -0.969  12.423  18.330  0.00  0.00    +0.000 C 
BRANCH  16  17
ATOM     17  C   UNL     1      -2.145  11.817  17.585  0.00  0.00    +0.000 A 
ATOM     18  C   UNL     1      -3.355  11.629  18.284  0.00  0.00    +0.000 A 
ATOM     19  C   UNL     1      -4.417  10.920  17.718  0.00  0.00    +0.000 A 
ATOM     20  C   UNL     1      -4.296  10.392  16.433  0.00  0.00    +0.000 A 
ATOM     21  C   UNL     1      -3.121  10.605  15.719  0.00  0.00    +0.000 A 
ATOM     22 CL   UNL     1      -2.965   9.949  14.134  0.00  0.00    +0.000 Cl
ATOM     23  C   UNL     1      -2.055  11.314  16.280  0.00  0.00    +0.000 A 
ENDBRANCH  16  17
ENDBRANCH  12  16
BRANCH  15  24
ATOM     24  C   UNL     1      -2.225  13.595  22.903  0.00  0.00    +0.000 C 
BRANCH  24  25
ATOM     25  C   UNL     1      -3.675  13.214  23.151  0.00  0.00    +0.000 A 
ATOM     26  C   UNL     1      -4.089  12.689  24.385  0.00  0.00    +0.000 A 
ATOM     27  C   UNL     1      -5.412  12.273  24.573  0.00  0.00    +0.000 A 
ATOM     28  C   UNL     1      -6.336  12.382  23.537  0.00  0.00    +0.000 A 
ATOM     29  C   UNL     1      -5.950  12.948  22.324  0.00  0.00    +0.000 A 
ATOM     30  C   UNL     1      -4.630  13.366  22.135  0.00  0.00    +0.000 A 
ENDBRANCH  24  25
ENDBRANCH  15  24
TORSDOF 4
ENDMDL
MODEL 4
REMARK VINA RESULT:      -7.6      3.808      8.187
REMARK  Name = 
REMARK  4 active torsions:
REMARK  status: ('A' for Active; 'I' for Inactive)
REMARK    1  A    between atoms: N_12  and  C_13
REMARK    2  A    between atoms: C_13  and  C_14
REMARK    3  A    between atoms: N_23  and  C_24
REMARK    4  A    between atoms: C_24  and  C_25
REMARK                            x       y       z     vdW  Elec       q    Type
REMARK                         _______ _______ _______ _____ _____    ______ ____
ROOT
ATOM      1  O   UNL     1       1.900   7.705  21.930  0.00  0.00    +0.000 OA
ATOM      2  C   UNL     1       1.387   8.445  21.097  0.00  0.00    +0.000 A 
ATOM      3  C   UNL     1       0.408   9.433  21.428  0.00  0.00    +0.000 A 
ATOM      4  S   UNL     1      -0.135   9.639  23.016  0.00  0.00    +0.000 S 
ATOM      5  C   UNL     1      -1.168  10.930  22.569  0.00  0.00    +0.000 A 
ATOM      6  C   UNL     1      -2.011  11.643  23.450  0.00  0.00    +0.000 A 
ATOM      7  C   UNL     1      -2.786  12.688  22.960  0.00  0.00    +0.000 A 
ATOM      8  C   UNL     1      -2.733  13.013  21.616  0.00  0.00    +0.000 A 
ATOM      9  C   UNL     1      -1.908  12.289  20.741  0.00  0.00    +0.000 A 
ATOM     10  C   UNL     1      -1.091  11.216  21.195  0.00  0.00    +0.000 A 
ATOM     11  C   UNL     1      -0.175  10.290  20.526  0.00  0.00    +0.000 A 
ATOM     12  N   UNL     1       0.164  10.138  19.163  0.00  0.00    +0.000 N 
ATOM     13  C   UNL     1       1.048   9.115  18.752  0.00  0.00    +0.000 A 
ATOM     14  O   UNL     1       1.255   8.895  17.554  0.00  0.00    +0.000 OA
ATOM     15  N   UNL     1       1.688   8.363  19.747  0.00  0.00    +0.000 N 
ENDROOT
BRANCH  12  16
ATOM     16  C   UNL     1      -0.313  11.021  18.098  0.00  0.00    +0.000 C 
BRANCH  16  17
ATOM     17  C   UNL     1      -1.700  10.754  17.538  0.00  0.00    +0.000 A 
ATOM     18  C   UNL     1      -1.833   9.801  16.509  0.00  0.00    +0.000 A 
ATOM     19  C   UNL     1      -3.041   9.631  15.829  0.00  0.00    +0.000 A 
ATOM     20  C   UNL     1      -4.148  10.406  16.173  0.00  0.00    +0.000 A 
ATOM     21  C   UNL     1      -4.039  11.322  17.214  0.00  0.00    +0.000 A 
ATOM     22 CL   UNL     1      -5.403  12.285  17.638  0.00  0.00    +0.000 Cl
ATOM     23  C   UNL     1      -2.833  11.496  17.898  0.00  0.00    +0.000 A 
ENDBRANCH  16  17
ENDBRANCH  12  16
BRANCH  15  24
ATOM     24  C   UNL     1       2.658   7.347  19.334  0.00  0.00    +0.000 C 
BRANCH  24  25
ATOM     25  C   UNL     1       2.057   5.957  19.208  0.00  0.00    +0.000 A 
ATOM     26  C   UNL     1       1.615   5.249  20.337  0.00  0.00    +0.000 A 
ATOM     27  C   UNL     1       1.135   3.941  20.211  0.00  0.00    +0.000 A 
ATOM     28  C   UNL     1       1.082   3.329  18.961  0.00  0.00    +0.000 A 
ATOM     29  C   UNL     1       1.471   4.039  17.828  0.00  0.00    +0.000 A 
ATOM     30  C   UNL     1       1.949   5.345  17.949  0.00  0.00    +0.000 A 
ENDBRANCH  24  25
ENDBRANCH  15  24
TORSDOF 4
ENDMDL
MODEL 5
REMARK VINA RESULT:      -7.6      4.450      6.945
REMARK  Name = 
REMARK  4 active torsions:
REMARK  status: ('A' for Active; 'I' for Inactive)
REMARK    1  A    between atoms: N_12  and  C_13
REMARK    2  A    between atoms: C_13  and  C_14
REMARK    3  A    between atoms: N_23  and  C_24
REMARK    4  A    between atoms: C_24  and  C_25
REMARK                            x       y       z     vdW  Elec       q    Type
REMARK                         _______ _______ _______ _____ _____    ______ ____
ROOT
ATOM      1  O   UNL     1      -0.813  10.435  23.676  0.00  0.00    +0.000 OA
ATOM      2  C   UNL     1      -0.597  10.919  22.569  0.00  0.00    +0.000 A 
ATOM      3  C   UNL     1       0.127  10.233  21.544  0.00  0.00    +0.000 A 
ATOM      4  S   UNL     1       0.763   8.687  21.799  0.00  0.00    +0.000 S 
ATOM      5  C   UNL     1       1.379   8.603  20.204  0.00  0.00    +0.000 A 
ATOM      6  C   UNL     1       2.100   7.514  19.663  0.00  0.00    +0.000 A 
ATOM      7  C   UNL     1       2.527   7.564  18.341  0.00  0.00    +0.000 A 
ATOM      8  C   UNL     1       2.250   8.680  17.571  0.00  0.00    +0.000 A 
ATOM      9  C   UNL     1       1.550   9.766  18.118  0.00  0.00    +0.000 A 
ATOM     10  C   UNL     1       1.087   9.761  19.463  0.00  0.00    +0.000 A 
ATOM     11  C   UNL     1       0.373  10.735  20.290  0.00  0.00    +0.000 A 
ATOM     12  N   UNL     1      -0.058  12.053  20.015  0.00  0.00    +0.000 N 
ATOM     13  C   UNL     1      -0.690  12.826  21.014  0.00  0.00    +0.000 A 
ATOM     14  O   UNL     1      -0.959  14.016  20.823  0.00  0.00    +0.000 OA
ATOM     15  N   UNL     1      -1.008  12.197  22.226  0.00  0.00    +0.000 N 
ENDROOT
BRANCH  12  16
ATOM     16  C   UNL     1       0.063  12.696  18.705  0.00  0.00    +0.000 C 
BRANCH  16  17
ATOM     17  C   UNL     1       1.207  13.674  18.511  0.00  0.00    +0.000 A 
ATOM     18  C   UNL     1       2.502  13.157  18.306  0.00  0.00    +0.000 A 
ATOM     19  C   UNL     1       3.623  13.991  18.296  0.00  0.00    +0.000 A 
ATOM     20  C   UNL     1       3.471  15.364  18.481  0.00  0.00    +0.000 A 
ATOM     21  C   UNL     1       2.194  15.890  18.644  0.00  0.00    +0.000 A 
ATOM     22 CL   UNL     1       2.003  17.586  18.878  0.00  0.00    +0.000 Cl
ATOM     23  C   UNL     1       1.069  15.062  18.655  0.00  0.00    +0.000 A 
ENDBRANCH  16  17
ENDBRANCH  12  16
BRANCH  15  24
ATOM     24  C   UNL     1      -1.724  12.969  23.242  0.00  0.00    +0.000 C 
BRANCH  24  25
ATOM     25  C   UNL     1      -3.235  12.824  23.156  0.00  0.00    +0.000 A 
ATOM     26  C   UNL     1      -3.897  12.817  21.918  0.00  0.00    +0.000 A 
ATOM     27  C   UNL     1      -5.293  12.758  21.859  0.00  0.00    +0.000 A 
ATOM     28  C   UNL     1      -6.043  12.697  23.031  0.00  0.00    +0.000 A 
ATOM     29  C   UNL     1      -5.396  12.652  24.264  0.00  0.00    +0.000 A 
ATOM     30  C   UNL     1      -4.002  12.709  24.325  0.00  0.00    +0.000 A 
ENDBRANCH  24  25
ENDBRANCH  15  24
TORSDOF 4
ENDMDL
MODEL 6
REMARK VINA RESULT:      -7.5      5.233      8.721
REMARK  Name = 
REMARK  4 active torsions:
REMARK  status: ('A' for Active; 'I' for Inactive)
REMARK    1  A    between atoms: N_12  and  C_13
REMARK    2  A    between atoms: C_13  and  C_14
REMARK    3  A    between atoms: N_23  and  C_24
REMARK    4  A    between atoms: C_24  and  C_25
REMARK                            x       y       z     vdW  Elec       q    Type
REMARK                         _______ _______ _______ _____ _____    ______ ____
ROOT
ATOM      1  O   UNL     1      -5.671  12.991  22.563  0.00  0.00    +0.000 OA
ATOM      2  C   UNL     1      -4.541  12.798  22.126  0.00  0.00    +0.000 A 
ATOM      3  C   UNL     1      -4.283  12.404  20.776  0.00  0.00    +0.000 A 
ATOM      4  S   UNL     1      -5.542  12.155  19.674  0.00  0.00    +0.000 S 
ATOM      5  C   UNL     1      -4.451  11.783  18.408  0.00  0.00    +0.000 A 
ATOM      6  C   UNL     1      -4.821  11.434  17.089  0.00  0.00    +0.000 A 
ATOM      7  C   UNL     1      -3.832  11.175  16.147  0.00  0.00    +0.000 A 
ATOM      8  C   UNL     1      -2.499  11.251  16.510  0.00  0.00    +0.000 A 
ATOM      9  C   UNL     1      -2.138  11.579  17.826  0.00  0.00    +0.000 A 
ATOM     10  C   UNL     1      -3.112  11.859  18.824  0.00  0.00    +0.000 A 
ATOM     11  C   UNL     1      -3.033  12.194  20.247  0.00  0.00    +0.000 A 
ATOM     12  N   UNL     1      -1.925  12.306  21.118  0.00  0.00    +0.000 N 
ATOM     13  C   UNL     1      -2.115  12.593  22.488  0.00  0.00    +0.000 A 
ATOM     14  O   UNL     1      -1.167  12.572  23.280  0.00  0.00    +0.000 OA
ATOM     15  N   UNL     1      -3.410  12.909  22.920  0.00  0.00    +0.000 N 
ENDROOT
BRANCH  12  16
ATOM     16  C   UNL     1      -0.531  12.189  20.687  0.00  0.00    +0.000 C 
BRANCH  16  17
ATOM     17  C   UNL     1       0.038  10.788  20.542  0.00  0.00    +0.000 A 
ATOM     18  C   UNL     1       0.031   9.943  21.670  0.00  0.00    +0.000 A 
ATOM     19  C   UNL     1       0.693   8.713  21.659  0.00  0.00    +0.000 A 
ATOM     20  C   UNL     1       1.369   8.296  20.512  0.00  0.00    +0.000 A 
ATOM     21  C   UNL     1       1.348   9.104  19.380  0.00  0.00    +0.000 A 
ATOM     22 CL   UNL     1       2.186   8.595  17.964  0.00  0.00    +0.000 Cl
ATOM     23  C   UNL     1       0.687  10.335  19.385  0.00  0.00    +0.000 A 
ENDBRANCH  16  17
ENDBRANCH  12  16
BRANCH  15  24
ATOM     24  C   UNL     1      -3.606  13.274  24.323  0.00  0.00    +0.000 C 
BRANCH  24  25
ATOM     25  C   UNL     1      -3.377  14.751  24.599  0.00  0.00    +0.000 A 
ATOM     26  C   UNL     1      -2.189  15.206  25.192  0.00  0.00    +0.000 A 
ATOM     27  C   UNL     1      -2.025  16.559  25.508  0.00  0.00    +0.000 A 
ATOM     28  C   UNL     1      -3.039  17.473  25.229  0.00  0.00    +0.000 A 
ATOM     29  C   UNL     1      -4.201  17.042  24.594  0.00  0.00    +0.000 A 
ATOM     30  C   UNL     1      -4.367  15.692  24.276  0.00  0.00    +0.000 A 
ENDBRANCH  24  25
ENDBRANCH  15  24
TORSDOF 4
ENDMDL
MODEL 7
REMARK VINA RESULT:      -7.4      0.997      1.327
REMARK  Name = 
REMARK  4 active torsions:
REMARK  status: ('A' for Active; 'I' for Inactive)
REMARK    1  A    between atoms: N_12  and  C_13
REMARK    2  A    between atoms: C_13  and  C_14
REMARK    3  A    between atoms: N_23  and  C_24
REMARK    4  A    between atoms: C_24  and  C_25
REMARK                            x       y       z     vdW  Elec       q    Type
REMARK                         _______ _______ _______ _____ _____    ______ ____
ROOT
ATOM      1  O   UNL     1       0.775   7.942  21.449  0.00  0.00    +0.000 OA
ATOM      2  C   UNL     1       1.371   7.757  20.393  0.00  0.00    +0.000 A 
ATOM      3  C   UNL     1       1.888   6.482  20.001  0.00  0.00    +0.000 A 
ATOM      4  S   UNL     1       1.727   5.123  20.993  0.00  0.00    +0.000 S 
ATOM      5  C   UNL     1       2.512   4.114  19.854  0.00  0.00    +0.000 A 
ATOM      6  C   UNL     1       2.765   2.734  20.024  0.00  0.00    +0.000 A 
ATOM      7  C   UNL     1       3.395   2.023  19.009  0.00  0.00    +0.000 A 
ATOM      8  C   UNL     1       3.775   2.673  17.848  0.00  0.00    +0.000 A 
ATOM      9  C   UNL     1       3.538   4.048  17.692  0.00  0.00    +0.000 A 
ATOM     10  C   UNL     1       2.892   4.817  18.699  0.00  0.00    +0.000 A 
ATOM     11  C   UNL     1       2.545   6.234  18.820  0.00  0.00    +0.000 A 
ATOM     12  N   UNL     1       2.791   7.330  17.963  0.00  0.00    +0.000 N 
ATOM     13  C   UNL     1       2.398   8.636  18.335  0.00  0.00    +0.000 A 
ATOM     14  O   UNL     1       2.716   9.615  17.653  0.00  0.00    +0.000 OA
ATOM     15  N   UNL     1       1.630   8.783  19.498  0.00  0.00    +0.000 N 
ENDROOT
BRANCH  12  16
ATOM     16  C   UNL     1       3.408   7.212  16.641  0.00  0.00    +0.000 C 
BRANCH  16  17
ATOM     17  C   UNL     1       4.785   6.574  16.568  0.00  0.00    +0.000 A 
ATOM     18  C   UNL     1       5.754   6.965  17.514  0.00  0.00    +0.000 A 
ATOM     19  C   UNL     1       7.085   6.555  17.401  0.00  0.00    +0.000 A 
ATOM     20  C   UNL     1       7.473   5.734  16.343  0.00  0.00    +0.000 A 
ATOM     21  C   UNL     1       6.516   5.309  15.427  0.00  0.00    +0.000 A 
ATOM     22 CL   UNL     1       6.993   4.300  14.115  0.00  0.00    +0.000 Cl
ATOM     23  C   UNL     1       5.183   5.716  15.535  0.00  0.00    +0.000 A 
ENDBRANCH  16  17
ENDBRANCH  12  16
BRANCH  15  24
ATOM     24  C   UNL     1       1.159  10.122  19.855  0.00  0.00    +0.000 C 
BRANCH  24  25
ATOM     25  C   UNL     1      -0.205  10.456  19.274  0.00  0.00    +0.000 A 
ATOM     26  C   UNL     1      -0.652   9.867  18.080  0.00  0.00    +0.000 A 
ATOM     27  C   UNL     1      -1.878  10.242  17.519  0.00  0.00    +0.000 A 
ATOM     28  C   UNL     1      -2.672  11.200  18.143  0.00  0.00    +0.000 A 
ATOM     29  C   UNL     1      -2.263  11.754  19.353  0.00  0.00    +0.000 A 
ATOM     30  C   UNL     1      -1.041  11.381  19.917  0.00  0.00    +0.000 A 
ENDBRANCH  24  25
ENDBRANCH  15  24
TORSDOF 4
ENDMDL
MODEL 8
REMARK VINA RESULT:      -7.4      4.912      7.800
REMARK  Name = 
REMARK  4 active torsions:
REMARK  status: ('A' for Active; 'I' for Inactive)
REMARK    1  A    between atoms: N_12  and  C_13
REMARK    2  A    between atoms: C_13  and  C_14
REMARK    3  A    between atoms: N_23  and  C_24
REMARK    4  A    between atoms: C_24  and  C_25
REMARK                            x       y       z     vdW  Elec       q    Type
REMARK                         _______ _______ _______ _____ _____    ______ ____
ROOT
ATOM      1  O   UNL     1      -1.487  11.433  23.704  0.00  0.00    +0.000 OA
ATOM      2  C   UNL     1      -1.398  11.609  22.493  0.00  0.00    +0.000 A 
ATOM      3  C   UNL     1      -0.602  10.781  21.640  0.00  0.00    +0.000 A 
ATOM      4  S   UNL     1       0.303   9.493  22.256  0.00  0.00    +0.000 S 
ATOM      5  C   UNL     1       0.867   9.056  20.700  0.00  0.00    +0.000 A 
ATOM      6  C   UNL     1       1.748   7.986  20.422  0.00  0.00    +0.000 A 
ATOM      7  C   UNL     1       2.112   7.724  19.107  0.00  0.00    +0.000 A 
ATOM      8  C   UNL     1       1.618   8.515  18.084  0.00  0.00    +0.000 A 
ATOM      9  C   UNL     1       0.759   9.588  18.368  0.00  0.00    +0.000 A 
ATOM     10  C   UNL     1       0.352   9.893  19.696  0.00  0.00    +0.000 A 
ATOM     11  C   UNL     1      -0.492  10.938  20.280  0.00  0.00    +0.000 A 
ATOM     12  N   UNL     1      -1.156  12.037  19.689  0.00  0.00    +0.000 N 
ATOM     13  C   UNL     1      -1.878  12.953  20.486  0.00  0.00    +0.000 A 
ATOM     14  O   UNL     1      -2.357  13.982  19.999  0.00  0.00    +0.000 OA
ATOM     15  N   UNL     1      -2.038  12.655  21.847  0.00  0.00    +0.000 N 
ENDROOT
BRANCH  12  16
ATOM     16  C   UNL     1      -1.196  12.290  18.248  0.00  0.00    +0.000 C 
BRANCH  16  17
ATOM     17  C   UNL     1      -2.315  11.637  17.456  0.00  0.00    +0.000 A 
ATOM     18  C   UNL     1      -2.021  11.131  16.174  0.00  0.00    +0.000 A 
ATOM     19  C   UNL     1      -3.032  10.679  15.323  0.00  0.00    +0.000 A 
ATOM     20  C   UNL     1      -4.362  10.714  15.741  0.00  0.00    +0.000 A 
ATOM     21  C   UNL     1      -4.660  11.174  17.019  0.00  0.00    +0.000 A 
ATOM     22 CL   UNL     1      -6.302  11.223  17.538  0.00  0.00    +0.000 Cl
ATOM     23  C   UNL     1      -3.653  11.627  17.876  0.00  0.00    +0.000 A 
ENDBRANCH  16  17
ENDBRANCH  12  16
BRANCH  15  24
ATOM     24  C   UNL     1      -2.842  13.561  22.667  0.00  0.00    +0.000 C 
BRANCH  24  25
ATOM     25  C   UNL     1      -4.290  13.122  22.809  0.00  0.00    +0.000 A 
ATOM     26  C   UNL     1      -5.112  12.947  21.685  0.00  0.00    +0.000 A 
ATOM     27  C   UNL     1      -6.463  12.615  21.837  0.00  0.00    +0.000 A 
ATOM     28  C   UNL     1      -7.005  12.447  23.108  0.00  0.00    +0.000 A 
ATOM     29  C   UNL     1      -6.188  12.568  24.229  0.00  0.00    +0.000 A 
ATOM     30  C   UNL     1      -4.839  12.897  24.081  0.00  0.00    +0.000 A 
ENDBRANCH  24  25
ENDBRANCH  15  24
TORSDOF 4
ENDMDL
MODEL 9
REMARK VINA RESULT:      -7.3      4.239      7.017
REMARK  Name = 
REMARK  4 active torsions:
REMARK  status: ('A' for Active; 'I' for Inactive)
REMARK    1  A    between atoms: N_12  and  C_13
REMARK    2  A    between atoms: C_13  and  C_14
REMARK    3  A    between atoms: N_23  and  C_24
REMARK    4  A    between atoms: C_24  and  C_25
REMARK                            x       y       z     vdW  Elec       q    Type
REMARK                         _______ _______ _______ _____ _____    ______ ____
ROOT
ATOM      1  O   UNL     1      -1.032  10.663  23.599  0.00  0.00    +0.000 OA
ATOM      2  C   UNL     1      -0.736  11.168  22.521  0.00  0.00    +0.000 A 
ATOM      3  C   UNL     1       0.010  10.480  21.514  0.00  0.00    +0.000 A 
ATOM      4  S   UNL     1       0.562   8.899  21.752  0.00  0.00    +0.000 S 
ATOM      5  C   UNL     1       1.257   8.834  20.189  0.00  0.00    +0.000 A 
ATOM      6  C   UNL     1       1.957   7.729  19.652  0.00  0.00    +0.000 A 
ATOM      7  C   UNL     1       2.455   7.798  18.357  0.00  0.00    +0.000 A 
ATOM      8  C   UNL     1       2.271   8.948  17.608  0.00  0.00    +0.000 A 
ATOM      9  C   UNL     1       1.592  10.049  18.153  0.00  0.00    +0.000 A 
ATOM     10  C   UNL     1       1.058  10.025  19.471  0.00  0.00    +0.000 A 
ATOM     11  C   UNL     1       0.345  11.007  20.291  0.00  0.00    +0.000 A 
ATOM     12  N   UNL     1      -0.010  12.351  20.036  0.00  0.00    +0.000 N 
ATOM     13  C   UNL     1      -0.660  13.123  21.025  0.00  0.00    +0.000 A 
ATOM     14  O   UNL     1      -0.864  14.329  20.859  0.00  0.00    +0.000 OA
ATOM     15  N   UNL     1      -1.070  12.474  22.198  0.00  0.00    +0.000 N 
ENDROOT
BRANCH  12  16
ATOM     16  C   UNL     1       0.209  13.026  18.755  0.00  0.00    +0.000 C 
BRANCH  16  17
ATOM     17  C   UNL     1       1.342  14.034  18.683  0.00  0.00    +0.000 A 
ATOM     18  C   UNL     1       1.020  15.406  18.717  0.00  0.00    +0.000 A 
ATOM     19  C   UNL     1       1.988  16.385  18.479  0.00  0.00    +0.000 A 
ATOM     20  C   UNL     1       3.305  16.011  18.213  0.00  0.00    +0.000 A 
ATOM     21  C   UNL     1       3.642  14.662  18.218  0.00  0.00    +0.000 A 
ATOM     22 CL   UNL     1       5.267  14.196  17.884  0.00  0.00    +0.000 Cl
ATOM     23  C   UNL     1       2.678  13.678  18.455  0.00  0.00    +0.000 A 
ENDBRANCH  16  17
ENDBRANCH  12  16
BRANCH  15  24
ATOM     24  C   UNL     1      -1.804  13.248  23.200  0.00  0.00    +0.000 C 
BRANCH  24  25
ATOM     25  C   UNL     1      -3.312  13.099  23.090  0.00  0.00    +0.000 A 
ATOM     26  C   UNL     1      -4.122  13.018  24.235  0.00  0.00    +0.000 A 
ATOM     27  C   UNL     1      -5.500  12.805  24.117  0.00  0.00    +0.000 A 
ATOM     28  C   UNL     1      -6.085  12.678  22.860  0.00  0.00    +0.000 A 
ATOM     29  C   UNL     1      -5.301  12.807  21.717  0.00  0.00    +0.000 A 
ATOM     30  C   UNL     1      -3.926  13.022  21.831  0.00  0.00    +0.000 A 
ENDBRANCH  24  25
ENDBRANCH  15  24
TORSDOF 4
ENDMDL
