MODEL 1
REMARK VINA RESULT:      -7.6      0.000      0.000
REMARK  Name = 
REMARK  3 active torsions:
REMARK  status: ('A' for Active; 'I' for Inactive)
REMARK    1  A    between atoms: C_2  and  O_3
REMARK    2  A    between atoms: C_2  and  C_4
REMARK    3  A    between atoms: C_10  and  O_11
REMARK                            x       y       z     vdW  Elec       q    Type
REMARK                         _______ _______ _______ _____ _____    ______ ____
ROOT
ATOM      1  C   UNL     1       5.734   4.414  17.465  0.00  0.00    +0.000 A 
ATOM      2  C   UNL     1       4.672   3.662  17.125  0.00  0.00    +0.000 A 
ATOM      3  C   UNL     1       3.543   3.524  18.031  0.00  0.00    +0.000 A 
ATOM      4  C   UNL     1       2.422   2.752  17.712  0.00  0.00    +0.000 A 
ATOM      5  C   UNL     1       1.386   2.633  18.638  0.00  0.00    +0.000 A 
ATOM      6  F   UNL     1       0.311   1.890  18.335  0.00  0.00    +0.000 F 
ATOM      7  C   UNL     1       1.446   3.269  19.876  0.00  0.00    +0.000 A 
ATOM      8  C   UNL     1       2.555   4.043  20.190  0.00  0.00    +0.000 A 
ATOM      9  F   UNL     1       2.637   4.666  21.375  0.00  0.00    +0.000 F 
ATOM     10  C   UNL     1       3.591   4.167  19.267  0.00  0.00    +0.000 A 
ATOM     11  O   UNL     1       4.695   4.966  19.614  0.00  0.00    +0.000 OA
ATOM     12  C   UNL     1       5.764   5.133  18.748  0.00  0.00    +0.000 A 
ATOM     13  O   UNL     1       6.720   5.853  19.033  0.00  0.00    +0.000 OA
ENDROOT
BRANCH   1  15
ATOM     14  O   UNL     1       6.714   4.796  15.329  0.00  0.00    +0.000 OA
ATOM     15  C   UNL     1       6.860   4.478  16.502  0.00  0.00    +0.000 C 
BRANCH  15  16
ATOM     16  O   UNL     1       8.071   4.155  17.000  0.00  0.00    +0.000 OA
ATOM     17  H   UNL     1       8.835   4.273  16.383  0.00  0.00    +0.000 HD
ENDBRANCH  15  16
ENDBRANCH   1  15
BRANCH   7  18
ATOM     18  O   UNL     1       0.427   3.136  20.776  0.00  0.00    +0.000 OA
ATOM     19  H   UNL     1      -0.224   2.513  20.402  0.00  0.00    +0.000 HD
ENDBRANCH   7  18
TORSDOF 3
ENDMDL
MODEL 2
REMARK VINA RESULT:      -7.4      2.951      4.870
REMARK  Name = 
REMARK  3 active torsions:
REMARK  status: ('A' for Active; 'I' for Inactive)
REMARK    1  A    between atoms: C_2  and  O_3
REMARK    2  A    between atoms: C_2  and  C_4
REMARK    3  A    between atoms: C_10  and  O_11
REMARK                            x       y       z     vdW  Elec       q    Type
REMARK                         _______ _______ _______ _____ _____    ______ ____
ROOT
ATOM      1  C   UNL     1       6.208   3.995  13.754  0.00  0.00    +0.000 A 
ATOM      2  C   UNL     1       5.478   3.565  14.798  0.00  0.00    +0.000 A 
ATOM      3  C   UNL     1       5.736   4.067  16.139  0.00  0.00    +0.000 A 
ATOM      4  C   UNL     1       4.998   3.645  17.248  0.00  0.00    +0.000 A 
ATOM      5  C   UNL     1       5.316   4.139  18.512  0.00  0.00    +0.000 A 
ATOM      6  F   UNL     1       4.611   3.731  19.577  0.00  0.00    +0.000 F 
ATOM      7  C   UNL     1       6.357   5.047  18.692  0.00  0.00    +0.000 A 
ATOM      8  C   UNL     1       7.086   5.474  17.590  0.00  0.00    +0.000 A 
ATOM      9  F   UNL     1       8.092   6.347  17.737  0.00  0.00    +0.000 F 
ATOM     10  C   UNL     1       6.769   4.985  16.324  0.00  0.00    +0.000 A 
ATOM     11  O   UNL     1       7.521   5.445  15.229  0.00  0.00    +0.000 OA
ATOM     12  C   UNL     1       7.265   5.001  13.942  0.00  0.00    +0.000 A 
ATOM     13  O   UNL     1       7.901   5.421  12.976  0.00  0.00    +0.000 OA
ENDROOT
BRANCH   1  15
ATOM     14  O   UNL     1       4.810   3.511  11.889  0.00  0.00    +0.000 OA
ATOM     15  C   UNL     1       5.906   3.411  12.424  0.00  0.00    +0.000 C 
BRANCH  15  16
ATOM     16  O   UNL     1       6.923   2.750  11.834  0.00  0.00    +0.000 OA
ATOM     17  H   UNL     1       6.857   1.764  11.844  0.00  0.00    +0.000 HD
ENDBRANCH  15  16
ENDBRANCH   1  15
BRANCH   7  18
ATOM     18  O   UNL     1       6.664   5.516  19.938  0.00  0.00    +0.000 OA
ATOM     19  H   UNL     1       5.912   6.055  20.249  0.00  0.00    +0.000 HD
ENDBRANCH   7  18
TORSDOF 3
ENDMDL
MODEL 3
REMARK VINA RESULT:      -7.4      1.568      1.603
REMARK  Name = 
REMARK  3 active torsions:
REMARK  status: ('A' for Active; 'I' for Inactive)
REMARK    1  A    between atoms: C_2  and  O_3
REMARK    2  A    between atoms: C_2  and  C_4
REMARK    3  A    between atoms: C_10  and  O_11
REMARK                            x       y       z     vdW  Elec       q    Type
REMARK                         _______ _______ _______ _____ _____    ______ ____
ROOT
ATOM      1  C   UNL     1       5.354   4.865  16.076  0.00  0.00    +0.000 A 
ATOM      2  C   UNL     1       4.550   3.806  16.274  0.00  0.00    +0.000 A 
ATOM      3  C   UNL     1       3.496   3.854  17.276  0.00  0.00    +0.000 A 
ATOM      4  C   UNL     1       2.641   2.774  17.510  0.00  0.00    +0.000 A 
ATOM      5  C   UNL     1       1.670   2.871  18.507  0.00  0.00    +0.000 A 
ATOM      6  F   UNL     1       0.852   1.834  18.736  0.00  0.00    +0.000 F 
ATOM      7  C   UNL     1       1.537   4.026  19.275  0.00  0.00    +0.000 A 
ATOM      8  C   UNL     1       2.380   5.103  19.038  0.00  0.00    +0.000 A 
ATOM      9  F   UNL     1       2.272   6.225  19.763  0.00  0.00    +0.000 F 
ATOM     10  C   UNL     1       3.349   5.011  18.040  0.00  0.00    +0.000 A 
ATOM     11  O   UNL     1       4.181   6.123  17.820  0.00  0.00    +0.000 OA
ATOM     12  C   UNL     1       5.168   6.104  16.848  0.00  0.00    +0.000 A 
ATOM     13  O   UNL     1       5.880   7.083  16.631  0.00  0.00    +0.000 OA
ENDROOT
BRANCH   1  15
ATOM     14  O   UNL     1       6.313   4.022  14.067  0.00  0.00    +0.000 OA
ATOM     15  C   UNL     1       6.427   4.726  15.061  0.00  0.00    +0.000 C 
BRANCH  15  16
ATOM     16  O   UNL     1       7.553   5.428  15.304  0.00  0.00    +0.000 OA
ATOM     17  H   UNL     1       8.327   4.901  15.620  0.00  0.00    +0.000 HD
ENDBRANCH  15  16
ENDBRANCH   1  15
BRANCH   7  18
ATOM     18  O   UNL     1       0.588   4.103  20.255  0.00  0.00    +0.000 OA
ATOM     19  H   UNL     1      -0.105   3.447  20.053  0.00  0.00    +0.000 HD
ENDBRANCH   7  18
TORSDOF 3
ENDMDL
MODEL 4
REMARK VINA RESULT:      -7.3      1.250      1.333
REMARK  Name = 
REMARK  3 active torsions:
REMARK  status: ('A' for Active; 'I' for Inactive)
REMARK    1  A    between atoms: C_2  and  O_3
REMARK    2  A    between atoms: C_2  and  C_4
REMARK    3  A    between atoms: C_10  and  O_11
REMARK                            x       y       z     vdW  Elec       q    Type
REMARK                         _______ _______ _______ _____ _____    ______ ____
ROOT
ATOM      1  C   UNL     1       5.965   4.575  16.826  0.00  0.00    +0.000 A 
ATOM      2  C   UNL     1       4.666   4.326  16.584  0.00  0.00    +0.000 A 
ATOM      3  C   UNL     1       3.807   3.794  17.631  0.00  0.00    +0.000 A 
ATOM      4  C   UNL     1       2.453   3.523  17.417  0.00  0.00    +0.000 A 
ATOM      5  C   UNL     1       1.690   2.984  18.452  0.00  0.00    +0.000 A 
ATOM      6  F   UNL     1       0.391   2.720  18.247  0.00  0.00    +0.000 F 
ATOM      7  C   UNL     1       2.252   2.709  19.697  0.00  0.00    +0.000 A 
ATOM      8  C   UNL     1       3.595   2.986  19.913  0.00  0.00    +0.000 A 
ATOM      9  F   UNL     1       4.160   2.731  21.102  0.00  0.00    +0.000 F 
ATOM     10  C   UNL     1       4.360   3.529  18.882  0.00  0.00    +0.000 A 
ATOM     11  O   UNL     1       5.715   3.805  19.138  0.00  0.00    +0.000 OA
ATOM     12  C   UNL     1       6.538   4.341  18.161  0.00  0.00    +0.000 A 
ATOM     13  O   UNL     1       7.717   4.612  18.386  0.00  0.00    +0.000 OA
ENDROOT
BRANCH   1  15
ATOM     14  O   UNL     1       6.828   4.531  14.608  0.00  0.00    +0.000 OA
ATOM     15  C   UNL     1       6.783   5.084  15.698  0.00  0.00    +0.000 C 
BRANCH  15  16
ATOM     16  O   UNL     1       7.490   6.205  15.950  0.00  0.00    +0.000 OA
ATOM     17  H   UNL     1       6.956   7.018  16.127  0.00  0.00    +0.000 HD
ENDBRANCH  15  16
ENDBRANCH   1  15
BRANCH   7  18
ATOM     18  O   UNL     1       1.495   2.172  20.698  0.00  0.00    +0.000 OA
ATOM     19  H   UNL     1       0.759   1.680  20.287  0.00  0.00    +0.000 HD
ENDBRANCH   7  18
TORSDOF 3
ENDMDL
MODEL 5
REMARK VINA RESULT:      -7.3      1.844      2.089
REMARK  Name = 
REMARK  3 active torsions:
REMARK  status: ('A' for Active; 'I' for Inactive)
REMARK    1  A    between atoms: C_2  and  O_3
REMARK    2  A    between atoms: C_2  and  C_4
REMARK    3  A    between atoms: C_10  and  O_11
REMARK                            x       y       z     vdW  Elec       q    Type
REMARK                         _______ _______ _______ _____ _____    ______ ____
ROOT
ATOM      1  C   UNL     1       5.447   5.594  17.552  0.00  0.00    +0.000 A 
ATOM      2  C   UNL     1       4.143   5.749  17.841  0.00  0.00    +0.000 A 
ATOM      3  C   UNL     1       3.492   4.882  18.812  0.00  0.00    +0.000 A 
ATOM      4  C   UNL     1       2.140   5.014  19.139  0.00  0.00    +0.000 A 
ATOM      5  C   UNL     1       1.567   4.132  20.054  0.00  0.00    +0.000 A 
ATOM      6  F   UNL     1       0.268   4.254  20.365  0.00  0.00    +0.000 F 
ATOM      7  C   UNL     1       2.317   3.120  20.649  0.00  0.00    +0.000 A 
ATOM      8  C   UNL     1       3.663   2.994  20.332  0.00  0.00    +0.000 A 
ATOM      9  F   UNL     1       4.406   2.028  20.891  0.00  0.00    +0.000 F 
ATOM     10  C   UNL     1       4.240   3.876  19.420  0.00  0.00    +0.000 A 
ATOM     11  O   UNL     1       5.608   3.725  19.128  0.00  0.00    +0.000 OA
ATOM     12  C   UNL     1       6.249   4.563  18.230  0.00  0.00    +0.000 A 
ATOM     13  O   UNL     1       7.451   4.455  17.991  0.00  0.00    +0.000 OA
ENDROOT
BRANCH   1  15
ATOM     14  O   UNL     1       5.505   6.688  15.438  0.00  0.00    +0.000 OA
ATOM     15  C   UNL     1       6.030   6.493  16.526  0.00  0.00    +0.000 C 
BRANCH  15  16
ATOM     16  O   UNL     1       7.192   7.088  16.866  0.00  0.00    +0.000 OA
ATOM     17  H   UNL     1       7.124   8.032  17.152  0.00  0.00    +0.000 HD
ENDBRANCH  15  16
ENDBRANCH   1  15
BRANCH   7  18
ATOM     18  O   UNL     1       1.740   2.257  21.537  0.00  0.00    +0.000 OA
ATOM     19  H   UNL     1       0.965   2.703  21.928  0.00  0.00    +0.000 HD
ENDBRANCH   7  18
TORSDOF 3
ENDMDL
MODEL 6
REMARK VINA RESULT:      -7.3      2.812      5.475
REMARK  Name = 
REMARK  3 active torsions:
REMARK  status: ('A' for Active; 'I' for Inactive)
REMARK    1  A    between atoms: C_2  and  O_3
REMARK    2  A    between atoms: C_2  and  C_4
REMARK    3  A    between atoms: C_10  and  O_11
REMARK                            x       y       z     vdW  Elec       q    Type
REMARK                         _______ _______ _______ _____ _____    ______ ____
ROOT
ATOM      1  C   UNL     1       3.173   3.482  19.955  0.00  0.00    +0.000 A 
ATOM      2  C   UNL     1       2.982   4.414  19.006  0.00  0.00    +0.000 A 
ATOM      3  C   UNL     1       4.090   4.863  18.176  0.00  0.00    +0.000 A 
ATOM      4  C   UNL     1       3.930   5.829  17.179  0.00  0.00    +0.000 A 
ATOM      5  C   UNL     1       5.038   6.241  16.439  0.00  0.00    +0.000 A 
ATOM      6  F   UNL     1       4.887   7.171  15.485  0.00  0.00    +0.000 F 
ATOM      7  C   UNL     1       6.303   5.707  16.675  0.00  0.00    +0.000 A 
ATOM      8  C   UNL     1       6.461   4.741  17.659  0.00  0.00    +0.000 A 
ATOM      9  F   UNL     1       7.669   4.211  17.905  0.00  0.00    +0.000 F 
ATOM     10  C   UNL     1       5.356   4.324  18.398  0.00  0.00    +0.000 A 
ATOM     11  O   UNL     1       5.550   3.337  19.381  0.00  0.00    +0.000 OA
ATOM     12  C   UNL     1       4.499   2.876  20.157  0.00  0.00    +0.000 A 
ATOM     13  O   UNL     1       4.657   1.994  20.999  0.00  0.00    +0.000 OA
ENDROOT
BRANCH   1  15
ATOM     14  O   UNL     1       0.895   2.889  20.307  0.00  0.00    +0.000 OA
ATOM     15  C   UNL     1       2.002   3.101  20.782  0.00  0.00    +0.000 C 
BRANCH  15  16
ATOM     16  O   UNL     1       2.231   3.006  22.108  0.00  0.00    +0.000 OA
ATOM     17  H   UNL     1       2.233   3.861  22.605  0.00  0.00    +0.000 HD
ENDBRANCH  15  16
ENDBRANCH   1  15
BRANCH   7  18
ATOM     18  O   UNL     1       7.381   6.126  15.948  0.00  0.00    +0.000 OA
ATOM     19  H   UNL     1       8.125   5.525  16.141  0.00  0.00    +0.000 HD
ENDBRANCH   7  18
TORSDOF 3
ENDMDL
MODEL 7
REMARK VINA RESULT:      -7.3      2.578      5.930
REMARK  Name = 
REMARK  3 active torsions:
REMARK  status: ('A' for Active; 'I' for Inactive)
REMARK    1  A    between atoms: C_2  and  O_3
REMARK    2  A    between atoms: C_2  and  C_4
REMARK    3  A    between atoms: C_10  and  O_11
REMARK                            x       y       z     vdW  Elec       q    Type
REMARK                         _______ _______ _______ _____ _____    ______ ____
ROOT
ATOM      1  C   UNL     1       2.786   3.526  19.650  0.00  0.00    +0.000 A 
ATOM      2  C   UNL     1       3.925   4.176  19.947  0.00  0.00    +0.000 A 
ATOM      3  C   UNL     1       4.832   4.600  18.892  0.00  0.00    +0.000 A 
ATOM      4  C   UNL     1       6.023   5.279  19.161  0.00  0.00    +0.000 A 
ATOM      5  C   UNL     1       6.866   5.631  18.107  0.00  0.00    +0.000 A 
ATOM      6  F   UNL     1       8.012   6.279  18.365  0.00  0.00    +0.000 F 
ATOM      7  C   UNL     1       6.543   5.318  16.789  0.00  0.00    +0.000 A 
ATOM      8  C   UNL     1       5.355   4.652  16.519  0.00  0.00    +0.000 A 
ATOM      9  F   UNL     1       5.021   4.340  15.258  0.00  0.00    +0.000 F 
ATOM     10  C   UNL     1       4.509   4.302  17.569  0.00  0.00    +0.000 A 
ATOM     11  O   UNL     1       3.310   3.635  17.259  0.00  0.00    +0.000 OA
ATOM     12  C   UNL     1       2.421   3.253  18.251  0.00  0.00    +0.000 A 
ATOM     13  O   UNL     1       1.357   2.695  17.985  0.00  0.00    +0.000 OA
ENDROOT
BRANCH   1  15
ATOM     14  O   UNL     1       2.386   2.622  21.816  0.00  0.00    +0.000 OA
ATOM     15  C   UNL     1       1.931   3.096  20.783  0.00  0.00    +0.000 C 
BRANCH  15  16
ATOM     16  O   UNL     1       0.604   3.255  20.604  0.00  0.00    +0.000 OA
ATOM     17  H   UNL     1       0.336   4.015  20.032  0.00  0.00    +0.000 HD
ENDBRANCH  15  16
ENDBRANCH   1  15
BRANCH   7  18
ATOM     18  O   UNL     1       7.382   5.661  15.767  0.00  0.00    +0.000 OA
ATOM     19  H   UNL     1       6.900   6.265  15.172  0.00  0.00    +0.000 HD
ENDBRANCH   7  18
TORSDOF 3
ENDMDL
MODEL 8
REMARK VINA RESULT:      -7.2      3.034      5.803
REMARK  Name = 
REMARK  3 active torsions:
REMARK  status: ('A' for Active; 'I' for Inactive)
REMARK    1  A    between atoms: C_2  and  O_3
REMARK    2  A    between atoms: C_2  and  C_4
REMARK    3  A    between atoms: C_10  and  O_11
REMARK                            x       y       z     vdW  Elec       q    Type
REMARK                         _______ _______ _______ _____ _____    ______ ____
ROOT
ATOM      1  C   UNL     1       3.001   3.539  18.971  0.00  0.00    +0.000 A 
ATOM      2  C   UNL     1       4.225   3.810  19.457  0.00  0.00    +0.000 A 
ATOM      3  C   UNL     1       5.076   4.798  18.812  0.00  0.00    +0.000 A 
ATOM      4  C   UNL     1       6.353   5.106  19.289  0.00  0.00    +0.000 A 
ATOM      5  C   UNL     1       7.132   6.040  18.608  0.00  0.00    +0.000 A 
ATOM      6  F   UNL     1       8.359   6.334  19.061  0.00  0.00    +0.000 F 
ATOM      7  C   UNL     1       6.662   6.673  17.459  0.00  0.00    +0.000 A 
ATOM      8  C   UNL     1       5.390   6.374  16.989  0.00  0.00    +0.000 A 
ATOM      9  F   UNL     1       4.915   6.969  15.886  0.00  0.00    +0.000 F 
ATOM     10  C   UNL     1       4.607   5.444  17.670  0.00  0.00    +0.000 A 
ATOM     11  O   UNL     1       3.320   5.171  17.172  0.00  0.00    +0.000 OA
ATOM     12  C   UNL     1       2.486   4.256  17.794  0.00  0.00    +0.000 A 
ATOM     13  O   UNL     1       1.349   4.034  17.380  0.00  0.00    +0.000 OA
ENDROOT
BRANCH   1  15
ATOM     14  O   UNL     1       1.978   2.523  20.865  0.00  0.00    +0.000 OA
ATOM     15  C   UNL     1       2.207   2.495  19.664  0.00  0.00    +0.000 C 
BRANCH  15  16
ATOM     16  O   UNL     1       1.751   1.495  18.881  0.00  0.00    +0.000 OA
ATOM     17  H   UNL     1       1.436   1.763  17.983  0.00  0.00    +0.000 HD
ENDBRANCH  15  16
ENDBRANCH   1  15
BRANCH   7  18
ATOM     18  O   UNL     1       7.441   7.579  16.796  0.00  0.00    +0.000 OA
ATOM     19  H   UNL     1       6.947   7.879  16.009  0.00  0.00    +0.000 HD
ENDBRANCH   7  18
TORSDOF 3
ENDMDL
MODEL 9
REMARK VINA RESULT:      -7.2      2.106      2.515
REMARK  Name = 
REMARK  3 active torsions:
REMARK  status: ('A' for Active; 'I' for Inactive)
REMARK    1  A    between atoms: C_2  and  O_3
REMARK    2  A    between atoms: C_2  and  C_4
REMARK    3  A    between atoms: C_10  and  O_11
REMARK                            x       y       z     vdW  Elec       q    Type
REMARK                         _______ _______ _______ _____ _____    ______ ____
ROOT
ATOM      1  C   UNL     1       6.703   6.285  18.300  0.00  0.00    +0.000 A 
ATOM      2  C   UNL     1       5.472   6.373  17.765  0.00  0.00    +0.000 A 
ATOM      3  C   UNL     1       4.456   5.379  18.078  0.00  0.00    +0.000 A 
ATOM      4  C   UNL     1       3.167   5.438  17.542  0.00  0.00    +0.000 A 
ATOM      5  C   UNL     1       2.248   4.438  17.856  0.00  0.00    +0.000 A 
ATOM      6  F   UNL     1       1.012   4.490  17.339  0.00  0.00    +0.000 F 
ATOM      7  C   UNL     1       2.590   3.379  18.694  0.00  0.00    +0.000 A 
ATOM      8  C   UNL     1       3.868   3.324  19.234  0.00  0.00    +0.000 A 
ATOM      9  F   UNL     1       4.222   2.316  20.043  0.00  0.00    +0.000 F 
ATOM     10  C   UNL     1       4.789   4.324  18.926  0.00  0.00    +0.000 A 
ATOM     11  O   UNL     1       6.071   4.243  19.497  0.00  0.00    +0.000 OA
ATOM     12  C   UNL     1       7.039   5.198  19.234  0.00  0.00    +0.000 A 
ATOM     13  O   UNL     1       8.153   5.149  19.752  0.00  0.00    +0.000 OA
ENDROOT
BRANCH   1  15
ATOM     14  O   UNL     1       7.729   7.809  16.786  0.00  0.00    +0.000 OA
ATOM     15  C   UNL     1       7.693   7.316  17.906  0.00  0.00    +0.000 C 
BRANCH  15  16
ATOM     16  O   UNL     1       8.568   7.681  18.866  0.00  0.00    +0.000 OA
ATOM     17  H   UNL     1       9.506   7.789  18.573  0.00  0.00    +0.000 HD
ENDBRANCH  15  16
ENDBRANCH   1  15
BRANCH   7  18
ATOM     18  O   UNL     1       1.683   2.400  18.985  0.00  0.00    +0.000 OA
ATOM     19  H   UNL     1       2.105   1.773  19.601  0.00  0.00    +0.000 HD
ENDBRANCH   7  18
TORSDOF 3
ENDMDL
