MODEL 1
REMARK VINA RESULT:      -8.5      0.000      0.000
REMARK  Name = 
REMARK  5 active torsions:
REMARK  status: ('A' for Active; 'I' for Inactive)
REMARK    1  A    between atoms: C_2  and  C_3
REMARK    2  A    between atoms: C_3  and  C_4
REMARK    3  A    between atoms: N_7  and  C_8
REMARK    4  A    between atoms: N_16  and  C_17
REMARK    5  A    between atoms: N_23  and  C_24
REMARK                            x       y       z     vdW  Elec       q    Type
REMARK                         _______ _______ _______ _____ _____    ______ ____
ROOT
ATOM      1  C   UNL     1       3.378   7.703  18.185  0.00  0.00    +0.000 C 
ATOM      2  C   UNL     1       2.527   6.938  19.207  0.00  0.00    +0.000 C 
ATOM      3  O   UNL     1       1.711   7.505  19.925  0.00  0.00    +0.000 OA
ATOM      4  N   UNL     1       2.873   5.608  19.160  0.00  0.00    +0.000 N 
ATOM      5  C   UNL     1       3.818   5.409  18.177  0.00  0.00    +0.000 C 
ATOM      6  O   UNL     1       4.255   4.331  17.805  0.00  0.00    +0.000 OA
ATOM      7  N   UNL     1       4.197   6.639  17.636  0.00  0.00    +0.000 N 
ENDROOT
BRANCH   4   8
ATOM      8  C   UNL     1       2.283   4.547  19.907  0.00  0.00    +0.000 A 
ATOM      9  C   UNL     1       1.265   3.744  19.377  0.00  0.00    +0.000 A 
ATOM     10  C   UNL     1       0.730   2.679  20.114  0.00  0.00    +0.000 A 
ATOM     11  C   UNL     1       1.190   2.404  21.398  0.00  0.00    +0.000 A 
ATOM     12  C   UNL     1       2.187   3.194  21.952  0.00  0.00    +0.000 A 
ATOM     13  C   UNL     1       2.721   4.251  21.213  0.00  0.00    +0.000 A 
ENDBRANCH   4   8
BRANCH   7  14
ATOM     14  C   UNL     1       5.220   6.877  16.606  0.00  0.00    +0.000 C 
ATOM     15  C   UNL     1       6.626   7.093  17.180  0.00  0.00    +0.000 C 
ATOM     16  C   UNL     1       7.345   5.816  17.599  0.00  0.00    +0.000 C 
ATOM     17  C   UNL     1       7.267   4.690  16.566  0.00  0.00    +0.000 C 
ATOM     18  C   UNL     1       5.937   4.526  15.828  0.00  0.00    +0.000 C 
ATOM     19  C   UNL     1       5.253   5.841  15.474  0.00  0.00    +0.000 C 
ENDBRANCH   7  14
BRANCH   1  20
ATOM     20  C   UNL     1       2.500   8.477  17.196  0.00  0.00    +0.000 C 
BRANCH  20  22
ATOM     21  O   UNL     1       2.345  10.654  18.170  0.00  0.00    +0.000 OA
ATOM     22  C   UNL     1       1.760   9.623  17.852  0.00  0.00    +0.000 C 
ATOM     23  N   UNL     1       0.416   9.387  18.069  0.00  0.00    +0.000 N 
ATOM     24  H   UNL     1       0.068   8.446  17.944  0.00  0.00    +0.000 HD
BRANCH  23  25
ATOM     25  C   UNL     1      -0.495  10.346  18.570  0.00  0.00    +0.000 A 
ATOM     26  C   UNL     1      -0.333  10.980  19.809  0.00  0.00    +0.000 A 
ATOM     27  C   UNL     1      -1.260  11.915  20.266  0.00  0.00    +0.000 A 
ATOM     28  C   UNL     1      -2.363  12.234  19.486  0.00  0.00    +0.000 A 
ATOM     29  C   UNL     1      -2.536  11.619  18.247  0.00  0.00    +0.000 A 
ATOM     30  C   UNL     1      -1.604  10.682  17.787  0.00  0.00    +0.000 A 
ENDBRANCH  23  25
ENDBRANCH  20  22
ENDBRANCH   1  20
TORSDOF 5
ENDMDL
MODEL 2
REMARK VINA RESULT:      -8.3      1.914      5.206
REMARK  Name = 
REMARK  5 active torsions:
REMARK  status: ('A' for Active; 'I' for Inactive)
REMARK    1  A    between atoms: C_2  and  C_3
REMARK    2  A    between atoms: C_3  and  C_4
REMARK    3  A    between atoms: N_7  and  C_8
REMARK    4  A    between atoms: N_16  and  C_17
REMARK    5  A    between atoms: N_23  and  C_24
REMARK                            x       y       z     vdW  Elec       q    Type
REMARK                         _______ _______ _______ _____ _____    ______ ____
ROOT
ATOM      1  C   UNL     1       2.422   6.045  18.348  0.00  0.00    +0.000 C 
ATOM      2  C   UNL     1       3.591   6.333  17.398  0.00  0.00    +0.000 C 
ATOM      3  O   UNL     1       3.952   7.476  17.142  0.00  0.00    +0.000 OA
ATOM      4  N   UNL     1       4.073   5.138  16.919  0.00  0.00    +0.000 N 
ATOM      5  C   UNL     1       3.386   4.094  17.498  0.00  0.00    +0.000 C 
ATOM      6  O   UNL     1       3.639   2.906  17.373  0.00  0.00    +0.000 OA
ATOM      7  N   UNL     1       2.350   4.597  18.288  0.00  0.00    +0.000 N 
ENDROOT
BRANCH   4   8
ATOM      8  C   UNL     1       5.191   4.956  16.052  0.00  0.00    +0.000 A 
ATOM      9  C   UNL     1       6.505   5.180  16.481  0.00  0.00    +0.000 A 
ATOM     10  C   UNL     1       7.591   4.953  15.624  0.00  0.00    +0.000 A 
ATOM     11  C   UNL     1       7.385   4.513  14.320  0.00  0.00    +0.000 A 
ATOM     12  C   UNL     1       6.091   4.298  13.867  0.00  0.00    +0.000 A 
ATOM     13  C   UNL     1       5.013   4.521  14.724  0.00  0.00    +0.000 A 
ENDBRANCH   4   8
BRANCH   7  14
ATOM     14  C   UNL     1       1.345   3.821  19.031  0.00  0.00    +0.000 C 
ATOM     15  C   UNL     1       1.654   2.320  19.092  0.00  0.00    +0.000 C 
ATOM     16  C   UNL     1       2.713   1.930  20.115  0.00  0.00    +0.000 C 
ATOM     17  C   UNL     1       2.518   2.574  21.489  0.00  0.00    +0.000 C 
ATOM     18  C   UNL     1       2.043   4.029  21.504  0.00  0.00    +0.000 C 
ATOM     19  C   UNL     1       1.015   4.361  20.430  0.00  0.00    +0.000 C 
ENDBRANCH   7  14
BRANCH   1  20
ATOM     20  C   UNL     1       2.661   6.665  19.730  0.00  0.00    +0.000 C 
BRANCH  20  22
ATOM     21  O   UNL     1       1.753   8.751  18.997  0.00  0.00    +0.000 OA
ATOM     22  C   UNL     1       1.898   7.958  19.924  0.00  0.00    +0.000 C 
ATOM     23  N   UNL     1       1.422   8.155  21.204  0.00  0.00    +0.000 N 
ATOM     24  H   UNL     1       1.748   7.540  21.938  0.00  0.00    +0.000 HD
BRANCH  23  25
ATOM     25  C   UNL     1       0.595   9.234  21.595  0.00  0.00    +0.000 A 
ATOM     26  C   UNL     1       0.334  10.335  20.769  0.00  0.00    +0.000 A 
ATOM     27  C   UNL     1      -0.483  11.380  21.198  0.00  0.00    +0.000 A 
ATOM     28  C   UNL     1      -1.057  11.335  22.461  0.00  0.00    +0.000 A 
ATOM     29  C   UNL     1      -0.815  10.243  23.293  0.00  0.00    +0.000 A 
ATOM     30  C   UNL     1       0.003   9.193  22.862  0.00  0.00    +0.000 A 
ENDBRANCH  23  25
ENDBRANCH  20  22
ENDBRANCH   1  20
TORSDOF 5
ENDMDL
MODEL 3
REMARK VINA RESULT:      -8.3      1.509      4.918
REMARK  Name = 
REMARK  5 active torsions:
REMARK  status: ('A' for Active; 'I' for Inactive)
REMARK    1  A    between atoms: C_2  and  C_3
REMARK    2  A    between atoms: C_3  and  C_4
REMARK    3  A    between atoms: N_7  and  C_8
REMARK    4  A    between atoms: N_16  and  C_17
REMARK    5  A    between atoms: N_23  and  C_24
REMARK                            x       y       z     vdW  Elec       q    Type
REMARK                         _______ _______ _______ _____ _____    ______ ____
ROOT
ATOM      1  C   UNL     1       2.333   6.223  18.350  0.00  0.00    +0.000 C 
ATOM      2  C   UNL     1       3.525   6.455  17.413  0.00  0.00    +0.000 C 
ATOM      3  O   UNL     1       3.905   7.581  17.113  0.00  0.00    +0.000 OA
ATOM      4  N   UNL     1       4.005   5.234  17.002  0.00  0.00    +0.000 N 
ATOM      5  C   UNL     1       3.294   4.225  17.614  0.00  0.00    +0.000 C 
ATOM      6  O   UNL     1       3.537   3.030  17.551  0.00  0.00    +0.000 OA
ATOM      7  N   UNL     1       2.247   4.775  18.356  0.00  0.00    +0.000 N 
ENDROOT
BRANCH   4   8
ATOM      8  C   UNL     1       5.139   5.000  16.169  0.00  0.00    +0.000 A 
ATOM      9  C   UNL     1       5.009   4.523  14.858  0.00  0.00    +0.000 A 
ATOM     10  C   UNL     1       6.134   4.342  14.043  0.00  0.00    +0.000 A 
ATOM     11  C   UNL     1       7.410   4.618  14.524  0.00  0.00    +0.000 A 
ATOM     12  C   UNL     1       7.567   5.076  15.824  0.00  0.00    +0.000 A 
ATOM     13  C   UNL     1       6.443   5.260  16.632  0.00  0.00    +0.000 A 
ENDBRANCH   4   8
BRANCH   7  14
ATOM     14  C   UNL     1       1.217   4.044  19.112  0.00  0.00    +0.000 C 
ATOM     15  C   UNL     1       1.353   2.520  19.013  0.00  0.00    +0.000 C 
ATOM     16  C   UNL     1       2.434   1.918  19.903  0.00  0.00    +0.000 C 
ATOM     17  C   UNL     1       2.420   2.443  21.340  0.00  0.00    +0.000 C 
ATOM     18  C   UNL     1       2.121   3.933  21.525  0.00  0.00    +0.000 C 
ATOM     19  C   UNL     1       1.060   4.478  20.576  0.00  0.00    +0.000 C 
ENDBRANCH   7  14
BRANCH   1  20
ATOM     20  C   UNL     1       2.549   6.905  19.706  0.00  0.00    +0.000 C 
BRANCH  20  22
ATOM     21  O   UNL     1       1.197   8.421  20.966  0.00  0.00    +0.000 OA
ATOM     22  C   UNL     1       1.687   8.138  19.877  0.00  0.00    +0.000 C 
ATOM     23  N   UNL     1       1.500   8.870  18.721  0.00  0.00    +0.000 N 
ATOM     24  H   UNL     1       1.788   8.461  17.841  0.00  0.00    +0.000 HD
BRANCH  23  25
ATOM     25  C   UNL     1       0.823  10.110  18.658  0.00  0.00    +0.000 A 
ATOM     26  C   UNL     1      -0.559  10.217  18.449  0.00  0.00    +0.000 A 
ATOM     27  C   UNL     1      -1.184  11.461  18.389  0.00  0.00    +0.000 A 
ATOM     28  C   UNL     1      -0.435  12.620  18.542  0.00  0.00    +0.000 A 
ATOM     29  C   UNL     1       0.940  12.532  18.759  0.00  0.00    +0.000 A 
ATOM     30  C   UNL     1       1.567  11.283  18.822  0.00  0.00    +0.000 A 
ENDBRANCH  23  25
ENDBRANCH  20  22
ENDBRANCH   1  20
TORSDOF 5
ENDMDL
MODEL 4
REMARK VINA RESULT:      -8.2      1.458      4.872
REMARK  Name = 
REMARK  5 active torsions:
REMARK  status: ('A' for Active; 'I' for Inactive)
REMARK    1  A    between atoms: C_2  and  C_3
REMARK    2  A    between atoms: C_3  and  C_4
REMARK    3  A    between atoms: N_7  and  C_8
REMARK    4  A    between atoms: N_16  and  C_17
REMARK    5  A    between atoms: N_23  and  C_24
REMARK                            x       y       z     vdW  Elec       q    Type
REMARK                         _______ _______ _______ _____ _____    ______ ____
ROOT
ATOM      1  C   UNL     1       2.222   6.395  18.581  0.00  0.00    +0.000 C 
ATOM      2  C   UNL     1       3.468   6.644  17.722  0.00  0.00    +0.000 C 
ATOM      3  O   UNL     1       3.864   7.776  17.468  0.00  0.00    +0.000 OA
ATOM      4  N   UNL     1       3.973   5.431  17.317  0.00  0.00    +0.000 N 
ATOM      5  C   UNL     1       3.227   4.411  17.864  0.00  0.00    +0.000 C 
ATOM      6  O   UNL     1       3.474   3.217  17.792  0.00  0.00    +0.000 OA
ATOM      7  N   UNL     1       2.137   4.947  18.553  0.00  0.00    +0.000 N 
ENDROOT
BRANCH   4   8
ATOM      8  C   UNL     1       5.155   5.214  16.549  0.00  0.00    +0.000 A 
ATOM      9  C   UNL     1       6.395   4.967  17.153  0.00  0.00    +0.000 A 
ATOM     10  C   UNL     1       7.535   4.713  16.380  0.00  0.00    +0.000 A 
ATOM     11  C   UNL     1       7.463   4.715  14.990  0.00  0.00    +0.000 A 
ATOM     12  C   UNL     1       6.250   4.972  14.367  0.00  0.00    +0.000 A 
ATOM     13  C   UNL     1       5.116   5.220  15.142  0.00  0.00    +0.000 A 
ENDBRANCH   4   8
BRANCH   7  14
ATOM     14  C   UNL     1       1.064   4.202  19.231  0.00  0.00    +0.000 C 
ATOM     15  C   UNL     1       1.030   2.712  18.868  0.00  0.00    +0.000 C 
ATOM     16  C   UNL     1       2.073   1.861  19.581  0.00  0.00    +0.000 C 
ATOM     17  C   UNL     1       2.171   2.126  21.085  0.00  0.00    +0.000 C 
ATOM     18  C   UNL     1       2.041   3.583  21.535  0.00  0.00    +0.000 C 
ATOM     19  C   UNL     1       1.009   4.388  20.754  0.00  0.00    +0.000 C 
ENDBRANCH   7  14
BRANCH   1  20
ATOM     20  C   UNL     1       2.355   7.050  19.960  0.00  0.00    +0.000 C 
BRANCH  20  22
ATOM     21  O   UNL     1       1.097   8.686  21.166  0.00  0.00    +0.000 OA
ATOM     22  C   UNL     1       1.537   8.318  20.080  0.00  0.00    +0.000 C 
ATOM     23  N   UNL     1       1.325   8.977  18.886  0.00  0.00    +0.000 N 
ATOM     24  H   UNL     1       1.566   8.503  18.026  0.00  0.00    +0.000 HD
BRANCH  23  25
ATOM     25  C   UNL     1       0.682  10.231  18.765  0.00  0.00    +0.000 A 
ATOM     26  C   UNL     1       1.309  11.445  19.077  0.00  0.00    +0.000 A 
ATOM     27  C   UNL     1       0.634  12.658  18.948  0.00  0.00    +0.000 A 
ATOM     28  C   UNL     1      -0.679  12.675  18.500  0.00  0.00    +0.000 A 
ATOM     29  C   UNL     1      -1.316  11.477  18.177  0.00  0.00    +0.000 A 
ATOM     30  C   UNL     1      -0.638  10.260  18.303  0.00  0.00    +0.000 A 
ENDBRANCH  23  25
ENDBRANCH  20  22
ENDBRANCH   1  20
TORSDOF 5
ENDMDL
MODEL 5
REMARK VINA RESULT:      -8.0      1.468      4.784
REMARK  Name = 
REMARK  5 active torsions:
REMARK  status: ('A' for Active; 'I' for Inactive)
REMARK    1  A    between atoms: C_2  and  C_3
REMARK    2  A    between atoms: C_3  and  C_4
REMARK    3  A    between atoms: N_7  and  C_8
REMARK    4  A    between atoms: N_16  and  C_17
REMARK    5  A    between atoms: N_23  and  C_24
REMARK                            x       y       z     vdW  Elec       q    Type
REMARK                         _______ _______ _______ _____ _____    ______ ____
ROOT
ATOM      1  C   UNL     1       2.071   6.629  19.036  0.00  0.00    +0.000 C 
ATOM      2  C   UNL     1       3.178   6.844  17.997  0.00  0.00    +0.000 C 
ATOM      3  O   UNL     1       3.350   7.925  17.446  0.00  0.00    +0.000 OA
ATOM      4  N   UNL     1       3.849   5.657  17.817  0.00  0.00    +0.000 N 
ATOM      5  C   UNL     1       3.339   4.702  18.668  0.00  0.00    +0.000 C 
ATOM      6  O   UNL     1       3.781   3.576  18.838  0.00  0.00    +0.000 OA
ATOM      7  N   UNL     1       2.235   5.221  19.347  0.00  0.00    +0.000 N 
ENDROOT
BRANCH   4   8
ATOM      8  C   UNL     1       4.981   5.436  16.979  0.00  0.00    +0.000 A 
ATOM      9  C   UNL     1       4.886   4.720  15.778  0.00  0.00    +0.000 A 
ATOM     10  C   UNL     1       6.003   4.552  14.949  0.00  0.00    +0.000 A 
ATOM     11  C   UNL     1       7.238   5.082  15.308  0.00  0.00    +0.000 A 
ATOM     12  C   UNL     1       7.362   5.782  16.499  0.00  0.00    +0.000 A 
ATOM     13  C   UNL     1       6.246   5.951  17.320  0.00  0.00    +0.000 A 
ENDBRANCH   4   8
BRANCH   7  14
ATOM     14  C   UNL     1       1.368   4.514  20.303  0.00  0.00    +0.000 C 
ATOM     15  C   UNL     1       0.476   3.451  19.648  0.00  0.00    +0.000 C 
ATOM     16  C   UNL     1       1.183   2.142  19.320  0.00  0.00    +0.000 C 
ATOM     17  C   UNL     1       2.052   1.601  20.458  0.00  0.00    +0.000 C 
ATOM     18  C   UNL     1       2.843   2.632  21.267  0.00  0.00    +0.000 C 
ATOM     19  C   UNL     1       2.092   3.932  21.525  0.00  0.00    +0.000 C 
ENDBRANCH   7  14
BRANCH   1  20
ATOM     20  C   UNL     1       2.206   7.612  20.205  0.00  0.00    +0.000 C 
BRANCH  20  22
ATOM     21  O   UNL     1       0.370   8.921  20.998  0.00  0.00    +0.000 OA
ATOM     22  C   UNL     1       1.212   8.751  20.121  0.00  0.00    +0.000 C 
ATOM     23  N   UNL     1       1.332   9.533  18.989  0.00  0.00    +0.000 N 
ATOM     24  H   UNL     1       1.928   9.206  18.240  0.00  0.00    +0.000 HD
BRANCH  23  25
ATOM     25  C   UNL     1       0.585  10.709  18.744  0.00  0.00    +0.000 A 
ATOM     26  C   UNL     1      -0.767  10.694  18.376  0.00  0.00    +0.000 A 
ATOM     27  C   UNL     1      -1.462  11.878  18.139  0.00  0.00    +0.000 A 
ATOM     28  C   UNL     1      -0.814  13.099  18.273  0.00  0.00    +0.000 A 
ATOM     29  C   UNL     1       0.528  13.133  18.648  0.00  0.00    +0.000 A 
ATOM     30  C   UNL     1       1.226  11.944  18.888  0.00  0.00    +0.000 A 
ENDBRANCH  23  25
ENDBRANCH  20  22
ENDBRANCH   1  20
TORSDOF 5
ENDMDL
MODEL 6
REMARK VINA RESULT:      -7.9      1.286      4.766
REMARK  Name = 
REMARK  5 active torsions:
REMARK  status: ('A' for Active; 'I' for Inactive)
REMARK    1  A    between atoms: C_2  and  C_3
REMARK    2  A    between atoms: C_3  and  C_4
REMARK    3  A    between atoms: N_7  and  C_8
REMARK    4  A    between atoms: N_16  and  C_17
REMARK    5  A    between atoms: N_23  and  C_24
REMARK                            x       y       z     vdW  Elec       q    Type
REMARK                         _______ _______ _______ _____ _____    ______ ____
ROOT
ATOM      1  C   UNL     1       1.990   6.717  19.225  0.00  0.00    +0.000 C 
ATOM      2  C   UNL     1       3.098   7.028  18.211  0.00  0.00    +0.000 C 
ATOM      3  O   UNL     1       3.233   8.143  17.719  0.00  0.00    +0.000 OA
ATOM      4  N   UNL     1       3.816   5.879  17.979  0.00  0.00    +0.000 N 
ATOM      5  C   UNL     1       3.336   4.862  18.774  0.00  0.00    +0.000 C 
ATOM      6  O   UNL     1       3.819   3.747  18.890  0.00  0.00    +0.000 OA
ATOM      7  N   UNL     1       2.205   5.303  19.465  0.00  0.00    +0.000 N 
ENDROOT
BRANCH   4   8
ATOM      8  C   UNL     1       4.965   5.745  17.144  0.00  0.00    +0.000 A 
ATOM      9  C   UNL     1       6.218   6.245  17.524  0.00  0.00    +0.000 A 
ATOM     10  C   UNL     1       7.343   6.064  16.707  0.00  0.00    +0.000 A 
ATOM     11  C   UNL     1       7.235   5.396  15.491  0.00  0.00    +0.000 A 
ATOM     12  C   UNL     1       6.002   4.906  15.086  0.00  0.00    +0.000 A 
ATOM     13  C   UNL     1       4.886   5.084  15.904  0.00  0.00    +0.000 A 
ENDBRANCH   4   8
BRANCH   7  14
ATOM     14  C   UNL     1       1.357   4.514  20.372  0.00  0.00    +0.000 C 
ATOM     15  C   UNL     1       0.472   3.492  19.648  0.00  0.00    +0.000 C 
ATOM     16  C   UNL     1       1.192   2.221  19.215  0.00  0.00    +0.000 C 
ATOM     17  C   UNL     1       2.079   1.607  20.301  0.00  0.00    +0.000 C 
ATOM     18  C   UNL     1       2.865   2.584  21.179  0.00  0.00    +0.000 C 
ATOM     19  C   UNL     1       2.100   3.852  21.541  0.00  0.00    +0.000 C 
ENDBRANCH   7  14
BRANCH   1  20
ATOM     20  C   UNL     1       2.074   7.643  20.444  0.00  0.00    +0.000 C 
BRANCH  20  22
ATOM     21  O   UNL     1       0.065   8.443  21.462  0.00  0.00    +0.000 OA
ATOM     22  C   UNL     1       0.881   8.568  20.553  0.00  0.00    +0.000 C 
ATOM     23  N   UNL     1       0.796   9.513  19.549  0.00  0.00    +0.000 N 
ATOM     24  H   UNL     1       1.406   9.419  18.748  0.00  0.00    +0.000 HD
BRANCH  23  25
ATOM     25  C   UNL     1      -0.169  10.545  19.500  0.00  0.00    +0.000 A 
ATOM     26  C   UNL     1      -0.034  11.752  20.200  0.00  0.00    +0.000 A 
ATOM     27  C   UNL     1      -1.014  12.740  20.126  0.00  0.00    +0.000 A 
ATOM     28  C   UNL     1      -2.143  12.538  19.345  0.00  0.00    +0.000 A 
ATOM     29  C   UNL     1      -2.290  11.348  18.635  0.00  0.00    +0.000 A 
ATOM     30  C   UNL     1      -1.305  10.356  18.707  0.00  0.00    +0.000 A 
ENDBRANCH  23  25
ENDBRANCH  20  22
ENDBRANCH   1  20
TORSDOF 5
ENDMDL
MODEL 7
REMARK VINA RESULT:      -7.9      1.460      4.926
REMARK  Name = 
REMARK  5 active torsions:
REMARK  status: ('A' for Active; 'I' for Inactive)
REMARK    1  A    between atoms: C_2  and  C_3
REMARK    2  A    between atoms: C_3  and  C_4
REMARK    3  A    between atoms: N_7  and  C_8
REMARK    4  A    between atoms: N_16  and  C_17
REMARK    5  A    between atoms: N_23  and  C_24
REMARK                            x       y       z     vdW  Elec       q    Type
REMARK                         _______ _______ _______ _____ _____    ______ ____
ROOT
ATOM      1  C   UNL     1       2.731   6.179  18.793  0.00  0.00    +0.000 C 
ATOM      2  C   UNL     1       3.557   6.416  17.522  0.00  0.00    +0.000 C 
ATOM      3  O   UNL     1       3.417   7.422  16.835  0.00  0.00    +0.000 OA
ATOM      4  N   UNL     1       4.387   5.337  17.330  0.00  0.00    +0.000 N 
ATOM      5  C   UNL     1       4.237   4.444  18.368  0.00  0.00    +0.000 C 
ATOM      6  O   UNL     1       4.904   3.439  18.558  0.00  0.00    +0.000 OA
ATOM      7  N   UNL     1       3.209   4.874  19.209  0.00  0.00    +0.000 N 
ENDROOT
BRANCH   4   8
ATOM      8  C   UNL     1       5.357   5.181  16.296  0.00  0.00    +0.000 A 
ATOM      9  C   UNL     1       6.654   5.698  16.413  0.00  0.00    +0.000 A 
ATOM     10  C   UNL     1       7.604   5.496  15.403  0.00  0.00    +0.000 A 
ATOM     11  C   UNL     1       7.274   4.787  14.251  0.00  0.00    +0.000 A 
ATOM     12  C   UNL     1       5.991   4.278  14.105  0.00  0.00    +0.000 A 
ATOM     13  C   UNL     1       5.050   4.478  15.115  0.00  0.00    +0.000 A 
ENDBRANCH   4   8
BRANCH   7  14
ATOM     14  C   UNL     1       2.689   4.182  20.399  0.00  0.00    +0.000 C 
ATOM     15  C   UNL     1       1.180   4.365  20.603  0.00  0.00    +0.000 C 
ATOM     16  C   UNL     1       0.308   3.490  19.712  0.00  0.00    +0.000 C 
ATOM     17  C   UNL     1       0.748   2.025  19.656  0.00  0.00    +0.000 C 
ATOM     18  C   UNL     1       2.255   1.762  19.623  0.00  0.00    +0.000 C 
ATOM     19  C   UNL     1       3.072   2.699  20.505  0.00  0.00    +0.000 C 
ENDBRANCH   7  14
BRANCH   1  20
ATOM     20  C   UNL     1       2.906   7.328  19.793  0.00  0.00    +0.000 C 
BRANCH  20  22
ATOM     21  O   UNL     1       0.929   8.213  20.804  0.00  0.00    +0.000 OA
ATOM     22  C   UNL     1       1.698   8.238  19.847  0.00  0.00    +0.000 C 
ATOM     23  N   UNL     1       1.543   9.049  18.740  0.00  0.00    +0.000 N 
ATOM     24  H   UNL     1       2.117   8.868  17.927  0.00  0.00    +0.000 HD
BRANCH  23  25
ATOM     25  C   UNL     1       0.552  10.051  18.613  0.00  0.00    +0.000 A 
ATOM     26  C   UNL     1       0.686  11.333  19.163  0.00  0.00    +0.000 A 
ATOM     27  C   UNL     1      -0.319  12.287  19.017  0.00  0.00    +0.000 A 
ATOM     28  C   UNL     1      -1.473  11.974  18.312  0.00  0.00    +0.000 A 
ATOM     29  C   UNL     1      -1.619  10.707  17.751  0.00  0.00    +0.000 A 
ATOM     30  C   UNL     1      -0.609   9.749  17.895  0.00  0.00    +0.000 A 
ENDBRANCH  23  25
ENDBRANCH  20  22
ENDBRANCH   1  20
TORSDOF 5
ENDMDL
MODEL 8
REMARK VINA RESULT:      -7.9      2.139      7.535
REMARK  Name = 
REMARK  5 active torsions:
REMARK  status: ('A' for Active; 'I' for Inactive)
REMARK    1  A    between atoms: C_2  and  C_3
REMARK    2  A    between atoms: C_3  and  C_4
REMARK    3  A    between atoms: N_7  and  C_8
REMARK    4  A    between atoms: N_16  and  C_17
REMARK    5  A    between atoms: N_23  and  C_24
REMARK                            x       y       z     vdW  Elec       q    Type
REMARK                         _______ _______ _______ _____ _____    ______ ____
ROOT
ATOM      1  C   UNL     1       4.003   5.140  18.640  0.00  0.00    +0.000 C 
ATOM      2  C   UNL     1       3.599   6.585  18.322  0.00  0.00    +0.000 C 
ATOM      3  O   UNL     1       4.141   7.229  17.431  0.00  0.00    +0.000 OA
ATOM      4  N   UNL     1       2.610   6.968  19.197  0.00  0.00    +0.000 N 
ATOM      5  C   UNL     1       2.280   5.911  20.017  0.00  0.00    +0.000 C 
ATOM      6  O   UNL     1       1.368   5.884  20.828  0.00  0.00    +0.000 OA
ATOM      7  N   UNL     1       3.140   4.840  19.766  0.00  0.00    +0.000 N 
ENDROOT
BRANCH   4   8
ATOM      8  C   UNL     1       1.918   8.215  19.209  0.00  0.00    +0.000 A 
ATOM      9  C   UNL     1       1.631   8.914  18.030  0.00  0.00    +0.000 A 
ATOM     10  C   UNL     1       0.912  10.117  18.062  0.00  0.00    +0.000 A 
ATOM     11  C   UNL     1       0.480  10.652  19.271  0.00  0.00    +0.000 A 
ATOM     12  C   UNL     1       0.766   9.986  20.455  0.00  0.00    +0.000 A 
ATOM     13  C   UNL     1       1.477   8.786  20.418  0.00  0.00    +0.000 A 
ENDBRANCH   4   8
BRANCH   7  14
ATOM     14  C   UNL     1       3.168   3.544  20.463  0.00  0.00    +0.000 C 
ATOM     15  C   UNL     1       1.789   3.082  20.950  0.00  0.00    +0.000 C 
ATOM     16  C   UNL     1       0.901   2.481  19.868  0.00  0.00    +0.000 C 
ATOM     17  C   UNL     1       1.612   1.462  18.974  0.00  0.00    +0.000 C 
ATOM     18  C   UNL     1       3.058   1.779  18.587  0.00  0.00    +0.000 C 
ATOM     19  C   UNL     1       3.878   2.415  19.703  0.00  0.00    +0.000 C 
ENDBRANCH   7  14
BRANCH   1  20
ATOM     20  C   UNL     1       3.866   4.239  17.407  0.00  0.00    +0.000 C 
BRANCH  20  22
ATOM     21  O   UNL     1       6.215   4.293  16.970  0.00  0.00    +0.000 OA
ATOM     22  C   UNL     1       5.079   4.304  16.504  0.00  0.00    +0.000 C 
ATOM     23  N   UNL     1       4.786   4.397  15.158  0.00  0.00    +0.000 N 
ATOM     24  H   UNL     1       3.830   4.586  14.886  0.00  0.00    +0.000 HD
BRANCH  23  25
ATOM     25  C   UNL     1       5.750   4.366  14.124  0.00  0.00    +0.000 A 
ATOM     26  C   UNL     1       6.915   5.145  14.141  0.00  0.00    +0.000 A 
ATOM     27  C   UNL     1       7.836   5.086  13.096  0.00  0.00    +0.000 A 
ATOM     28  C   UNL     1       7.607   4.241  12.019  0.00  0.00    +0.000 A 
ATOM     29  C   UNL     1       6.458   3.452  11.990  0.00  0.00    +0.000 A 
ATOM     30  C   UNL     1       5.534   3.509  13.040  0.00  0.00    +0.000 A 
ENDBRANCH  23  25
ENDBRANCH  20  22
ENDBRANCH   1  20
TORSDOF 5
ENDMDL
MODEL 9
REMARK VINA RESULT:      -7.8      1.520      4.943
REMARK  Name = 
REMARK  5 active torsions:
REMARK  status: ('A' for Active; 'I' for Inactive)
REMARK    1  A    between atoms: C_2  and  C_3
REMARK    2  A    between atoms: C_3  and  C_4
REMARK    3  A    between atoms: N_7  and  C_8
REMARK    4  A    between atoms: N_16  and  C_17
REMARK    5  A    between atoms: N_23  and  C_24
REMARK                            x       y       z     vdW  Elec       q    Type
REMARK                         _______ _______ _______ _____ _____    ______ ____
ROOT
ATOM      1  C   UNL     1       2.797   6.154  18.709  0.00  0.00    +0.000 C 
ATOM      2  C   UNL     1       3.620   6.363  17.431  0.00  0.00    +0.000 C 
ATOM      3  O   UNL     1       3.489   7.360  16.731  0.00  0.00    +0.000 OA
ATOM      4  N   UNL     1       4.436   5.271  17.250  0.00  0.00    +0.000 N 
ATOM      5  C   UNL     1       4.279   4.395  18.302  0.00  0.00    +0.000 C 
ATOM      6  O   UNL     1       4.934   3.384  18.503  0.00  0.00    +0.000 OA
ATOM      7  N   UNL     1       3.260   4.849  19.141  0.00  0.00    +0.000 N 
ENDROOT
BRANCH   4   8
ATOM      8  C   UNL     1       5.399   5.088  16.215  0.00  0.00    +0.000 A 
ATOM      9  C   UNL     1       5.109   4.358  15.055  0.00  0.00    +0.000 A 
ATOM     10  C   UNL     1       6.057   4.227  14.030  0.00  0.00    +0.000 A 
ATOM     11  C   UNL     1       7.315   4.810  14.150  0.00  0.00    +0.000 A 
ATOM     12  C   UNL     1       7.631   5.526  15.296  0.00  0.00    +0.000 A 
ATOM     13  C   UNL     1       6.683   5.657  16.312  0.00  0.00    +0.000 A 
ENDBRANCH   4   8
BRANCH   7  14
ATOM     14  C   UNL     1       2.736   4.180  20.343  0.00  0.00    +0.000 C 
ATOM     15  C   UNL     1       1.243   4.435  20.583  0.00  0.00    +0.000 C 
ATOM     16  C   UNL     1       0.308   3.605  19.713  0.00  0.00    +0.000 C 
ATOM     17  C   UNL     1       0.676   2.121  19.645  0.00  0.00    +0.000 C 
ATOM     18  C   UNL     1       2.168   1.786  19.574  0.00  0.00    +0.000 C 
ATOM     19  C   UNL     1       3.050   2.680  20.437  0.00  0.00    +0.000 C 
ENDBRANCH   7  14
BRANCH   1  20
ATOM     20  C   UNL     1       2.990   7.314  19.692  0.00  0.00    +0.000 C 
BRANCH  20  22
ATOM     21  O   UNL     1       1.034   8.233  20.713  0.00  0.00    +0.000 OA
ATOM     22  C   UNL     1       1.789   8.234  19.745  0.00  0.00    +0.000 C 
ATOM     23  N   UNL     1       1.625   9.026  18.626  0.00  0.00    +0.000 N 
ATOM     24  H   UNL     1       2.186   8.825  17.808  0.00  0.00    +0.000 HD
BRANCH  23  25
ATOM     25  C   UNL     1       0.640  10.033  18.493  0.00  0.00    +0.000 A 
ATOM     26  C   UNL     1      -0.636   9.788  17.967  0.00  0.00    +0.000 A 
ATOM     27  C   UNL     1      -1.574  10.812  17.850  0.00  0.00    +0.000 A 
ATOM     28  C   UNL     1      -1.251  12.098  18.262  0.00  0.00    +0.000 A 
ATOM     29  C   UNL     1       0.011  12.356  18.796  0.00  0.00    +0.000 A 
ATOM     30  C   UNL     1       0.952  11.328  18.916  0.00  0.00    +0.000 A 
ENDBRANCH  23  25
ENDBRANCH  20  22
ENDBRANCH   1  20
TORSDOF 5
ENDMDL
