MODEL 1
REMARK VINA RESULT:      -7.3      0.000      0.000
REMARK  Name = 
REMARK  9 active torsions:
REMARK  status: ('A' for Active; 'I' for Inactive)
REMARK    1  A    between atoms: C_1  and  C_2
REMARK    2  A    between atoms: C_2  and  O_3
REMARK    3  A    between atoms: O_3  and  C_4
REMARK    4  A    between atoms: C_9  and  C_10
REMARK    5  A    between atoms: C_12  and  N_13
REMARK    6  A    between atoms: N_13  and  C_14
REMARK    7  A    between atoms: C_24  and  O_25
REMARK    8  A    between atoms: O_25  and  C_26
REMARK    9  A    between atoms: C_26  and  C_27
REMARK                            x       y       z     vdW  Elec       q    Type
REMARK                         _______ _______ _______ _____ _____    ______ ____
ROOT
ATOM      1  C   UNL     1       6.655   5.266  16.175  0.00  0.00    +0.000 A 
ATOM      2  C   UNL     1       5.849   4.140  16.368  0.00  0.00    +0.000 A 
ATOM      3  C   UNL     1       4.775   4.131  17.222  0.00  0.00    +0.000 A 
ATOM      4  N   UNL     1       4.070   2.999  17.254  0.00  0.00    +0.000 NA
ATOM      5  C   UNL     1       2.967   2.968  18.013  0.00  0.00    +0.000 A 
ATOM      6  C   UNL     1       2.549   4.025  18.799  0.00  0.00    +0.000 A 
ATOM      7  C   UNL     1       3.349   5.185  18.856  0.00  0.00    +0.000 A 
ATOM      8  C   UNL     1       4.476   5.274  17.983  0.00  0.00    +0.000 A 
ATOM      9  C   UNL     1       5.309   6.417  17.824  0.00  0.00    +0.000 A 
ATOM     10  C   UNL     1       6.380   6.431  16.911  0.00  0.00    +0.000 A 
ENDROOT
BRANCH   6  11
ATOM     11  C   UNL     1       1.286   3.877  19.442  0.00  0.00    +0.000 C 
ATOM     12  N   UNL     1       0.277   3.763  20.011  0.00  0.00    +0.000 NA
ENDBRANCH   6  11
BRANCH   7  13
ATOM     13  N   UNL     1       3.056   6.290  19.709  0.00  0.00    +0.000 N 
ATOM     14  H   UNL     1       3.820   6.474  20.363  0.00  0.00    +0.000 HD
BRANCH  13  15
ATOM     15  C   UNL     1       2.360   7.482  19.376  0.00  0.00    +0.000 A 
ATOM     16  C   UNL     1       2.556   8.103  18.131  0.00  0.00    +0.000 A 
ATOM     17  C   UNL     1       1.982   9.346  17.853  0.00  0.00    +0.000 A 
ATOM     18  C   UNL     1       1.152   9.950  18.793  0.00  0.00    +0.000 A 
ATOM     19 CL   UNL     1       0.484  11.499  18.465  0.00  0.00    +0.000 Cl
ATOM     20  C   UNL     1       0.860   9.308  19.994  0.00  0.00    +0.000 A 
ATOM     21  C   UNL     1       1.457   8.077  20.277  0.00  0.00    +0.000 A 
ATOM     22 CL   UNL     1       1.089   7.309  21.782  0.00  0.00    +0.000 Cl
ENDBRANCH  13  15
ENDBRANCH   7  13
BRANCH   1  23
ATOM     23  O   UNL     1       7.707   5.271  15.279  0.00  0.00    +0.000 OA
BRANCH  23  25
ATOM     24  C   UNL     1       8.252   5.611  12.925  0.00  0.00    +0.000 C 
ATOM     25  C   UNL     1       7.354   4.924  13.931  0.00  0.00    +0.000 C 
ENDBRANCH  23  25
ENDBRANCH   1  23
BRANCH  10  26
ATOM     26  O   UNL     1       7.183   7.522  16.681  0.00  0.00    +0.000 OA
BRANCH  26  27
ATOM     27  C   UNL     1       8.053   7.943  17.735  0.00  0.00    +0.000 C 
ATOM     28  C   UNL     1       8.046   9.462  17.809  0.00  0.00    +0.000 C 
ENDBRANCH  26  27
ENDBRANCH  10  26
TORSDOF 7
ENDMDL
MODEL 2
REMARK VINA RESULT:      -7.0      1.104      1.510
REMARK  Name = 
REMARK  9 active torsions:
REMARK  status: ('A' for Active; 'I' for Inactive)
REMARK    1  A    between atoms: C_1  and  C_2
REMARK    2  A    between atoms: C_2  and  O_3
REMARK    3  A    between atoms: O_3  and  C_4
REMARK    4  A    between atoms: C_9  and  C_10
REMARK    5  A    between atoms: C_12  and  N_13
REMARK    6  A    between atoms: N_13  and  C_14
REMARK    7  A    between atoms: C_24  and  O_25
REMARK    8  A    between atoms: O_25  and  C_26
REMARK    9  A    between atoms: C_26  and  C_27
REMARK                            x       y       z     vdW  Elec       q    Type
REMARK                         _______ _______ _______ _____ _____    ______ ____
ROOT
ATOM      1  C   UNL     1       6.591   5.235  15.981  0.00  0.00    +0.000 A 
ATOM      2  C   UNL     1       5.669   4.190  16.086  0.00  0.00    +0.000 A 
ATOM      3  C   UNL     1       4.656   4.182  17.013  0.00  0.00    +0.000 A 
ATOM      4  N   UNL     1       3.824   3.142  16.951  0.00  0.00    +0.000 NA
ATOM      5  C   UNL     1       2.774   3.129  17.784  0.00  0.00    +0.000 A 
ATOM      6  C   UNL     1       2.535   4.106  18.730  0.00  0.00    +0.000 A 
ATOM      7  C   UNL     1       3.472   5.151  18.876  0.00  0.00    +0.000 A 
ATOM      8  C   UNL     1       4.545   5.235  17.938  0.00  0.00    +0.000 A 
ATOM      9  C   UNL     1       5.498   6.289  17.865  0.00  0.00    +0.000 A 
ATOM     10  C   UNL     1       6.505   6.310  16.882  0.00  0.00    +0.000 A 
ENDROOT
BRANCH   6  11
ATOM     11  C   UNL     1       1.306   4.011  19.445  0.00  0.00    +0.000 C 
ATOM     12  N   UNL     1       0.287   3.975  20.005  0.00  0.00    +0.000 NA
ENDBRANCH   6  11
BRANCH   7  13
ATOM     13  N   UNL     1       3.367   6.153  19.886  0.00  0.00    +0.000 N 
ATOM     14  H   UNL     1       4.287   6.441  20.227  0.00  0.00    +0.000 HD
BRANCH  13  15
ATOM     15  C   UNL     1       2.430   7.217  19.958  0.00  0.00    +0.000 A 
ATOM     16  C   UNL     1       1.673   7.428  21.123  0.00  0.00    +0.000 A 
ATOM     17  C   UNL     1       0.654   8.383  21.151  0.00  0.00    +0.000 A 
ATOM     18  C   UNL     1       0.425   9.183  20.036  0.00  0.00    +0.000 A 
ATOM     19 CL   UNL     1      -0.858  10.326  20.059  0.00  0.00    +0.000 Cl
ATOM     20  C   UNL     1       1.228   9.063  18.904  0.00  0.00    +0.000 A 
ATOM     21  C   UNL     1       2.229   8.090  18.873  0.00  0.00    +0.000 A 
ATOM     22 CL   UNL     1       3.202   7.952  17.449  0.00  0.00    +0.000 Cl
ENDBRANCH  13  15
ENDBRANCH   7  13
BRANCH   1  23
ATOM     23  O   UNL     1       7.579   5.248  15.014  0.00  0.00    +0.000 OA
BRANCH  23  25
ATOM     24  C   UNL     1       7.899   5.435  12.603  0.00  0.00    +0.000 C 
ATOM     25  C   UNL     1       7.178   4.735  13.734  0.00  0.00    +0.000 C 
ENDBRANCH  23  25
ENDBRANCH   1  23
BRANCH  10  26
ATOM     26  O   UNL     1       7.418   7.327  16.734  0.00  0.00    +0.000 OA
BRANCH  26  27
ATOM     27  C   UNL     1       8.055   7.826  17.913  0.00  0.00    +0.000 C 
ATOM     28  C   UNL     1       8.126   9.342  17.836  0.00  0.00    +0.000 C 
ENDBRANCH  26  27
ENDBRANCH  10  26
TORSDOF 7
ENDMDL
MODEL 3
REMARK VINA RESULT:      -6.6      3.416      6.409
REMARK  Name = 
REMARK  9 active torsions:
REMARK  status: ('A' for Active; 'I' for Inactive)
REMARK    1  A    between atoms: C_1  and  C_2
REMARK    2  A    between atoms: C_2  and  O_3
REMARK    3  A    between atoms: O_3  and  C_4
REMARK    4  A    between atoms: C_9  and  C_10
REMARK    5  A    between atoms: C_12  and  N_13
REMARK    6  A    between atoms: N_13  and  C_14
REMARK    7  A    between atoms: C_24  and  O_25
REMARK    8  A    between atoms: O_25  and  C_26
REMARK    9  A    between atoms: C_26  and  C_27
REMARK                            x       y       z     vdW  Elec       q    Type
REMARK                         _______ _______ _______ _____ _____    ______ ____
ROOT
ATOM      1  C   UNL     1       1.576   6.895  20.402  0.00  0.00    +0.000 A 
ATOM      2  C   UNL     1       1.448   5.664  21.052  0.00  0.00    +0.000 A 
ATOM      3  C   UNL     1       2.303   4.614  20.831  0.00  0.00    +0.000 A 
ATOM      4  N   UNL     1       2.084   3.524  21.569  0.00  0.00    +0.000 NA
ATOM      5  C   UNL     1       2.941   2.501  21.446  0.00  0.00    +0.000 A 
ATOM      6  C   UNL     1       4.006   2.496  20.566  0.00  0.00    +0.000 A 
ATOM      7  C   UNL     1       4.177   3.598  19.704  0.00  0.00    +0.000 A 
ATOM      8  C   UNL     1       3.334   4.737  19.884  0.00  0.00    +0.000 A 
ATOM      9  C   UNL     1       3.456   5.973  19.188  0.00  0.00    +0.000 A 
ATOM     10  C   UNL     1       2.601   7.059  19.455  0.00  0.00    +0.000 A 
ENDROOT
BRANCH   6  11
ATOM     11  C   UNL     1       4.896   1.386  20.653  0.00  0.00    +0.000 C 
ATOM     12  N   UNL     1       5.659   0.511  20.739  0.00  0.00    +0.000 NA
ENDBRANCH   6  11
BRANCH   7  13
ATOM     13  N   UNL     1       5.185   3.647  18.695  0.00  0.00    +0.000 N 
ATOM     14  H   UNL     1       4.913   3.116  17.865  0.00  0.00    +0.000 HD
BRANCH  13  15
ATOM     15  C   UNL     1       6.025   4.742  18.359  0.00  0.00    +0.000 A 
ATOM     16  C   UNL     1       6.987   5.213  19.268  0.00  0.00    +0.000 A 
ATOM     17  C   UNL     1       7.717   6.373  19.000  0.00  0.00    +0.000 A 
ATOM     18  C   UNL     1       7.540   7.037  17.790  0.00  0.00    +0.000 A 
ATOM     19 CL   UNL     1       8.409   8.488  17.482  0.00  0.00    +0.000 Cl
ATOM     20  C   UNL     1       6.667   6.533  16.829  0.00  0.00    +0.000 A 
ATOM     21  C   UNL     1       5.921   5.388  17.113  0.00  0.00    +0.000 A 
ATOM     22 CL   UNL     1       4.832   4.792  15.908  0.00  0.00    +0.000 Cl
ENDBRANCH  13  15
ENDBRANCH   7  13
BRANCH   1  23
ATOM     23  O   UNL     1       0.731   7.957  20.668  0.00  0.00    +0.000 OA
BRANCH  23  25
ATOM     24  C   UNL     1      -0.075   9.202  22.603  0.00  0.00    +0.000 C 
ATOM     25  C   UNL     1       1.121   8.774  21.781  0.00  0.00    +0.000 C 
ENDBRANCH  23  25
ENDBRANCH   1  23
BRANCH  10  26
ATOM     26  O   UNL     1       2.706   8.289  18.852  0.00  0.00    +0.000 OA
BRANCH  26  27
ATOM     27  C   UNL     1       1.874   8.547  17.717  0.00  0.00    +0.000 C 
ATOM     28  C   UNL     1       1.175   9.884  17.906  0.00  0.00    +0.000 C 
ENDBRANCH  26  27
ENDBRANCH  10  26
TORSDOF 7
ENDMDL
MODEL 4
REMARK VINA RESULT:      -6.3      6.416      9.205
REMARK  Name = 
REMARK  9 active torsions:
REMARK  status: ('A' for Active; 'I' for Inactive)
REMARK    1  A    between atoms: C_1  and  C_2
REMARK    2  A    between atoms: C_2  and  O_3
REMARK    3  A    between atoms: O_3  and  C_4
REMARK    4  A    between atoms: C_9  and  C_10
REMARK    5  A    between atoms: C_12  and  N_13
REMARK    6  A    between atoms: N_13  and  C_14
REMARK    7  A    between atoms: C_24  and  O_25
REMARK    8  A    between atoms: O_25  and  C_26
REMARK    9  A    between atoms: C_26  and  C_27
REMARK                            x       y       z     vdW  Elec       q    Type
REMARK                         _______ _______ _______ _____ _____    ______ ____
ROOT
ATOM      1  C   UNL     1       0.266  10.222  18.969  0.00  0.00    +0.000 A 
ATOM      2  C   UNL     1      -0.731   9.800  18.084  0.00  0.00    +0.000 A 
ATOM      3  C   UNL     1      -1.954  10.416  17.992  0.00  0.00    +0.000 A 
ATOM      4  N   UNL     1      -2.777   9.931  17.061  0.00  0.00    +0.000 NA
ATOM      5  C   UNL     1      -3.952  10.550  16.880  0.00  0.00    +0.000 A 
ATOM      6  C   UNL     1      -4.374  11.628  17.634  0.00  0.00    +0.000 A 
ATOM      7  C   UNL     1      -3.557  12.075  18.693  0.00  0.00    +0.000 A 
ATOM      8  C   UNL     1      -2.262  11.492  18.842  0.00  0.00    +0.000 A 
ATOM      9  C   UNL     1      -1.270  11.912  19.773  0.00  0.00    +0.000 A 
ATOM     10  C   UNL     1      -0.002  11.302  19.828  0.00  0.00    +0.000 A 
ENDROOT
BRANCH   6  11
ATOM     11  C   UNL     1      -5.589  12.251  17.226  0.00  0.00    +0.000 C 
ATOM     12  N   UNL     1      -6.555  12.795  16.872  0.00  0.00    +0.000 NA
ENDBRANCH   6  11
BRANCH   7  13
ATOM     13  N   UNL     1      -3.946  13.115  19.589  0.00  0.00    +0.000 N 
ATOM     14  H   UNL     1      -4.136  13.988  19.091  0.00  0.00    +0.000 HD
BRANCH  13  15
ATOM     15  C   UNL     1      -4.741  13.001  20.759  0.00  0.00    +0.000 A 
ATOM     16  C   UNL     1      -6.012  12.404  20.708  0.00  0.00    +0.000 A 
ATOM     17  C   UNL     1      -6.852  12.413  21.823  0.00  0.00    +0.000 A 
ATOM     18  C   UNL     1      -6.405  12.962  23.021  0.00  0.00    +0.000 A 
ATOM     19 CL   UNL     1      -7.459  13.011  24.379  0.00  0.00    +0.000 Cl
ATOM     20  C   UNL     1      -5.113  13.468  23.127  0.00  0.00    +0.000 A 
ATOM     21  C   UNL     1      -4.285  13.479  22.002  0.00  0.00    +0.000 A 
ATOM     22 CL   UNL     1      -2.689  14.128  22.158  0.00  0.00    +0.000 Cl
ENDBRANCH  13  15
ENDBRANCH   7  13
BRANCH   1  23
ATOM     23  O   UNL     1       1.507   9.618  19.019  0.00  0.00    +0.000 OA
BRANCH  23  25
ATOM     24  C   UNL     1       2.641   7.690  18.044  0.00  0.00    +0.000 C 
ATOM     25  C   UNL     1       1.929   9.002  17.793  0.00  0.00    +0.000 C 
ENDBRANCH  23  25
ENDBRANCH   1  23
BRANCH  10  26
ATOM     26  O   UNL     1       1.009  11.700  20.669  0.00  0.00    +0.000 OA
BRANCH  26  27
ATOM     27  C   UNL     1       1.316  13.095  20.727  0.00  0.00    +0.000 C 
ATOM     28  C   UNL     1       2.377  13.415  19.686  0.00  0.00    +0.000 C 
ENDBRANCH  26  27
ENDBRANCH  10  26
TORSDOF 7
ENDMDL
MODEL 5
REMARK VINA RESULT:      -6.3      5.545      9.785
REMARK  Name = 
REMARK  9 active torsions:
REMARK  status: ('A' for Active; 'I' for Inactive)
REMARK    1  A    between atoms: C_1  and  C_2
REMARK    2  A    between atoms: C_2  and  O_3
REMARK    3  A    between atoms: O_3  and  C_4
REMARK    4  A    between atoms: C_9  and  C_10
REMARK    5  A    between atoms: C_12  and  N_13
REMARK    6  A    between atoms: N_13  and  C_14
REMARK    7  A    between atoms: C_24  and  O_25
REMARK    8  A    between atoms: O_25  and  C_26
REMARK    9  A    between atoms: C_26  and  C_27
REMARK                            x       y       z     vdW  Elec       q    Type
REMARK                         _______ _______ _______ _____ _____    ______ ____
ROOT
ATOM      1  C   UNL     1      -3.918  11.218  17.794  0.00  0.00    +0.000 A 
ATOM      2  C   UNL     1      -3.633  12.099  18.842  0.00  0.00    +0.000 A 
ATOM      3  C   UNL     1      -2.384  12.217  19.397  0.00  0.00    +0.000 A 
ATOM      4  N   UNL     1      -2.259  13.141  20.351  0.00  0.00    +0.000 NA
ATOM      5  C   UNL     1      -1.040  13.348  20.867  0.00  0.00    +0.000 A 
ATOM      6  C   UNL     1       0.080  12.626  20.501  0.00  0.00    +0.000 A 
ATOM      7  C   UNL     1      -0.067  11.572  19.575  0.00  0.00    +0.000 A 
ATOM      8  C   UNL     1      -1.336  11.398  18.942  0.00  0.00    +0.000 A 
ATOM      9  C   UNL     1      -1.618  10.471  17.900  0.00  0.00    +0.000 A 
ATOM     10  C   UNL     1      -2.892  10.390  17.306  0.00  0.00    +0.000 A 
ENDROOT
BRANCH   6  11
ATOM     11  C   UNL     1       1.321  13.059  21.049  0.00  0.00    +0.000 C 
ATOM     12  N   UNL     1       2.315  13.456  21.508  0.00  0.00    +0.000 NA
ENDBRANCH   6  11
BRANCH   7  13
ATOM     13  N   UNL     1       1.006  10.707  19.205  0.00  0.00    +0.000 N 
ATOM     14  H   UNL     1       1.890  11.216  19.131  0.00  0.00    +0.000 HD
BRANCH  13  15
ATOM     15  C   UNL     1       1.212   9.361  19.605  0.00  0.00    +0.000 A 
ATOM     16  C   UNL     1       0.683   8.883  20.815  0.00  0.00    +0.000 A 
ATOM     17  C   UNL     1       0.998   7.604  21.279  0.00  0.00    +0.000 A 
ATOM     18  C   UNL     1       1.794   6.765  20.505  0.00  0.00    +0.000 A 
ATOM     19 CL   UNL     1       2.217   5.208  21.099  0.00  0.00    +0.000 Cl
ATOM     20  C   UNL     1       2.249   7.178  19.255  0.00  0.00    +0.000 A 
ATOM     21  C   UNL     1       1.951   8.467  18.808  0.00  0.00    +0.000 A 
ATOM     22 CL   UNL     1       2.540   8.959  17.258  0.00  0.00    +0.000 Cl
ENDBRANCH  13  15
ENDBRANCH   7  13
BRANCH   1  23
ATOM     23  O   UNL     1      -5.172  11.143  17.218  0.00  0.00    +0.000 OA
BRANCH  23  25
ATOM     24  C   UNL     1      -7.168  12.260  18.063  0.00  0.00    +0.000 C 
ATOM     25  C   UNL     1      -5.914  12.371  17.224  0.00  0.00    +0.000 C 
ENDBRANCH  23  25
ENDBRANCH   1  23
BRANCH  10  26
ATOM     26  O   UNL     1      -3.206   9.552  16.264  0.00  0.00    +0.000 OA
BRANCH  26  27
ATOM     27  C   UNL     1      -2.764   9.924  14.955  0.00  0.00    +0.000 C 
ATOM     28  C   UNL     1      -3.968  10.016  14.031  0.00  0.00    +0.000 C 
ENDBRANCH  26  27
ENDBRANCH  10  26
TORSDOF 7
ENDMDL
MODEL 6
REMARK VINA RESULT:      -6.2      5.518      9.662
REMARK  Name = 
REMARK  9 active torsions:
REMARK  status: ('A' for Active; 'I' for Inactive)
REMARK    1  A    between atoms: C_1  and  C_2
REMARK    2  A    between atoms: C_2  and  O_3
REMARK    3  A    between atoms: O_3  and  C_4
REMARK    4  A    between atoms: C_9  and  C_10
REMARK    5  A    between atoms: C_12  and  N_13
REMARK    6  A    between atoms: N_13  and  C_14
REMARK    7  A    between atoms: C_24  and  O_25
REMARK    8  A    between atoms: O_25  and  C_26
REMARK    9  A    between atoms: C_26  and  C_27
REMARK                            x       y       z     vdW  Elec       q    Type
REMARK                         _______ _______ _______ _____ _____    ______ ____
ROOT
ATOM      1  C   UNL     1      -3.930  11.047  17.850  0.00  0.00    +0.000 A 
ATOM      2  C   UNL     1      -3.615  11.847  18.952  0.00  0.00    +0.000 A 
ATOM      3  C   UNL     1      -2.327  12.057  19.376  0.00  0.00    +0.000 A 
ATOM      4  N   UNL     1      -2.186  12.890  20.408  0.00  0.00    +0.000 NA
ATOM      5  C   UNL     1      -0.942  13.188  20.807  0.00  0.00    +0.000 A 
ATOM      6  C   UNL     1       0.195  12.645  20.241  0.00  0.00    +0.000 A 
ATOM      7  C   UNL     1       0.049  11.679  19.224  0.00  0.00    +0.000 A 
ATOM      8  C   UNL     1      -1.261  11.418  18.719  0.00  0.00    +0.000 A 
ATOM      9  C   UNL     1      -1.568  10.572  17.616  0.00  0.00    +0.000 A 
ATOM     10  C   UNL     1      -2.889  10.400  17.162  0.00  0.00    +0.000 A 
ENDROOT
BRANCH   6  11
ATOM     11  C   UNL     1       1.441  13.166  20.694  0.00  0.00    +0.000 C 
ATOM     12  N   UNL     1       2.480  13.575  21.023  0.00  0.00    +0.000 NA
ENDBRANCH   6  11
BRANCH   7  13
ATOM     13  N   UNL     1       1.155  10.989  18.643  0.00  0.00    +0.000 N 
ATOM     14  H   UNL     1       1.958  11.608  18.513  0.00  0.00    +0.000 HD
BRANCH  13  15
ATOM     15  C   UNL     1       1.564   9.650  18.880  0.00  0.00    +0.000 A 
ATOM     16  C   UNL     1       2.226   8.915  17.882  0.00  0.00    +0.000 A 
ATOM     17  C   UNL     1       2.506   7.558  18.060  0.00  0.00    +0.000 A 
ATOM     18  C   UNL     1       2.186   6.938  19.264  0.00  0.00    +0.000 A 
ATOM     19 CL   UNL     1       2.492   5.258  19.463  0.00  0.00    +0.000 Cl
ATOM     20  C   UNL     1       1.622   7.669  20.307  0.00  0.00    +0.000 A 
ATOM     21  C   UNL     1       1.321   9.019  20.114  0.00  0.00    +0.000 A 
ATOM     22 CL   UNL     1       0.607   9.900  21.421  0.00  0.00    +0.000 Cl
ENDBRANCH  13  15
ENDBRANCH   7  13
BRANCH   1  23
ATOM     23  O   UNL     1      -5.230  10.881  17.411  0.00  0.00    +0.000 OA
BRANCH  23  25
ATOM     24  C   UNL     1      -7.200  12.183  18.022  0.00  0.00    +0.000 C 
ATOM     25  C   UNL     1      -6.237  11.083  18.413  0.00  0.00    +0.000 C 
ENDBRANCH  23  25
ENDBRANCH   1  23
BRANCH  10  26
ATOM     26  O   UNL     1      -3.237   9.638  16.073  0.00  0.00    +0.000 OA
BRANCH  26  27
ATOM     27  C   UNL     1      -2.792  10.075  14.786  0.00  0.00    +0.000 C 
ATOM     28  C   UNL     1      -3.968  10.066  13.823  0.00  0.00    +0.000 C 
ENDBRANCH  26  27
ENDBRANCH  10  26
TORSDOF 7
ENDMDL
MODEL 7
REMARK VINA RESULT:      -6.2      3.271      5.602
REMARK  Name = 
REMARK  9 active torsions:
REMARK  status: ('A' for Active; 'I' for Inactive)
REMARK    1  A    between atoms: C_1  and  C_2
REMARK    2  A    between atoms: C_2  and  O_3
REMARK    3  A    between atoms: O_3  and  C_4
REMARK    4  A    between atoms: C_9  and  C_10
REMARK    5  A    between atoms: C_12  and  N_13
REMARK    6  A    between atoms: N_13  and  C_14
REMARK    7  A    between atoms: C_24  and  O_25
REMARK    8  A    between atoms: O_25  and  C_26
REMARK    9  A    between atoms: C_26  and  C_27
REMARK                            x       y       z     vdW  Elec       q    Type
REMARK                         _______ _______ _______ _____ _____    ______ ____
ROOT
ATOM      1  C   UNL     1       6.388   3.690  12.468  0.00  0.00    +0.000 A 
ATOM      2  C   UNL     1       7.282   4.134  13.447  0.00  0.00    +0.000 A 
ATOM      3  C   UNL     1       6.893   4.441  14.726  0.00  0.00    +0.000 A 
ATOM      4  N   UNL     1       7.872   4.796  15.560  0.00  0.00    +0.000 NA
ATOM      5  C   UNL     1       7.552   5.029  16.840  0.00  0.00    +0.000 A 
ATOM      6  C   UNL     1       6.262   4.968  17.330  0.00  0.00    +0.000 A 
ATOM      7  C   UNL     1       5.208   4.702  16.431  0.00  0.00    +0.000 A 
ATOM      8  C   UNL     1       5.536   4.358  15.085  0.00  0.00    +0.000 A 
ATOM      9  C   UNL     1       4.608   3.941  14.089  0.00  0.00    +0.000 A 
ATOM     10  C   UNL     1       5.024   3.585  12.792  0.00  0.00    +0.000 A 
ENDROOT
BRANCH   6  11
ATOM     11  C   UNL     1       6.111   5.114  18.740  0.00  0.00    +0.000 C 
ATOM     12  N   UNL     1       6.025   5.201  19.897  0.00  0.00    +0.000 NA
ENDBRANCH   6  11
BRANCH   7  13
ATOM     13  N   UNL     1       3.835   4.713  16.818  0.00  0.00    +0.000 N 
ATOM     14  H   UNL     1       3.218   4.536  16.022  0.00  0.00    +0.000 HD
BRANCH  13  15
ATOM     15  C   UNL     1       3.271   4.232  18.029  0.00  0.00    +0.000 A 
ATOM     16  C   UNL     1       3.375   2.875  18.379  0.00  0.00    +0.000 A 
ATOM     17  C   UNL     1       2.706   2.371  19.496  0.00  0.00    +0.000 A 
ATOM     18  C   UNL     1       1.978   3.232  20.313  0.00  0.00    +0.000 A 
ATOM     19 CL   UNL     1       1.119   2.600  21.661  0.00  0.00    +0.000 Cl
ATOM     20  C   UNL     1       1.942   4.597  20.045  0.00  0.00    +0.000 A 
ATOM     21  C   UNL     1       2.593   5.092  18.913  0.00  0.00    +0.000 A 
ATOM     22 CL   UNL     1       2.520   6.791  18.595  0.00  0.00    +0.000 Cl
ENDBRANCH  13  15
ENDBRANCH   7  13
BRANCH   1  23
ATOM     23  O   UNL     1       6.804   3.344  11.196  0.00  0.00    +0.000 OA
BRANCH  23  25
ATOM     24  C   UNL     1       6.492   0.933  10.995  0.00  0.00    +0.000 C 
ATOM     25  C   UNL     1       7.475   2.078  11.104  0.00  0.00    +0.000 C 
ENDBRANCH  23  25
ENDBRANCH   1  23
BRANCH  10  26
ATOM     26  O   UNL     1       4.180   3.128  11.810  0.00  0.00    +0.000 OA
BRANCH  26  27
ATOM     27  C   UNL     1       3.652   4.085  10.888  0.00  0.00    +0.000 C 
ATOM     28  C   UNL     1       2.972   3.351   9.743  0.00  0.00    +0.000 C 
ENDBRANCH  26  27
ENDBRANCH  10  26
TORSDOF 7
ENDMDL
MODEL 8
REMARK VINA RESULT:      -6.1      6.142     10.269
REMARK  Name = 
REMARK  9 active torsions:
REMARK  status: ('A' for Active; 'I' for Inactive)
REMARK    1  A    between atoms: C_1  and  C_2
REMARK    2  A    between atoms: C_2  and  O_3
REMARK    3  A    between atoms: O_3  and  C_4
REMARK    4  A    between atoms: C_9  and  C_10
REMARK    5  A    between atoms: C_12  and  N_13
REMARK    6  A    between atoms: N_13  and  C_14
REMARK    7  A    between atoms: C_24  and  O_25
REMARK    8  A    between atoms: O_25  and  C_26
REMARK    9  A    between atoms: C_26  and  C_27
REMARK                            x       y       z     vdW  Elec       q    Type
REMARK                         _______ _______ _______ _____ _____    ______ ____
ROOT
ATOM      1  C   UNL     1      -4.664  11.667  18.536  0.00  0.00    +0.000 A 
ATOM      2  C   UNL     1      -4.485  12.293  19.773  0.00  0.00    +0.000 A 
ATOM      3  C   UNL     1      -3.248  12.628  20.265  0.00  0.00    +0.000 A 
ATOM      4  N   UNL     1      -3.246  13.271  21.434  0.00  0.00    +0.000 NA
ATOM      5  C   UNL     1      -2.068  13.689  21.917  0.00  0.00    +0.000 A 
ATOM      6  C   UNL     1      -0.857  13.449  21.296  0.00  0.00    +0.000 A 
ATOM      7  C   UNL     1      -0.842  12.673  20.118  0.00  0.00    +0.000 A 
ATOM      8  C   UNL     1      -2.092  12.300  19.536  0.00  0.00    +0.000 A 
ATOM      9  C   UNL     1      -2.256  11.631  18.291  0.00  0.00    +0.000 A 
ATOM     10  C   UNL     1      -3.531  11.332  17.774  0.00  0.00    +0.000 A 
ENDROOT
BRANCH   6  11
ATOM     11  C   UNL     1       0.287  14.074  21.872  0.00  0.00    +0.000 C 
ATOM     12  N   UNL     1       1.206  14.627  22.323  0.00  0.00    +0.000 NA
ENDBRANCH   6  11
BRANCH   7  13
ATOM     13  N   UNL     1       0.362  12.288  19.456  0.00  0.00    +0.000 N 
ATOM     14  H   UNL     1       1.094  12.994  19.566  0.00  0.00    +0.000 HD
BRANCH  13  15
ATOM     15  C   UNL     1       0.912  10.984  19.343  0.00  0.00    +0.000 A 
ATOM     16  C   UNL     1       1.568  10.582  18.168  0.00  0.00    +0.000 A 
ATOM     17  C   UNL     1       1.987   9.260  17.998  0.00  0.00    +0.000 A 
ATOM     18  C   UNL     1       1.812   8.343  19.030  0.00  0.00    +0.000 A 
ATOM     19 CL   UNL     1       2.289   6.707  18.801  0.00  0.00    +0.000 Cl
ATOM     20  C   UNL     1       1.257   8.741  20.243  0.00  0.00    +0.000 A 
ATOM     21  C   UNL     1       0.817  10.057  20.397  0.00  0.00    +0.000 A 
ATOM     22 CL   UNL     1       0.117  10.521  21.910  0.00  0.00    +0.000 Cl
ENDBRANCH  13  15
ENDBRANCH   7  13
BRANCH   1  23
ATOM     23  O   UNL     1      -5.919  11.375  18.035  0.00  0.00    +0.000 OA
BRANCH  23  25
ATOM     24  C   UNL     1      -6.980   9.605  19.336  0.00  0.00    +0.000 C 
ATOM     25  C   UNL     1      -6.913  11.085  19.029  0.00  0.00    +0.000 C 
ENDBRANCH  23  25
ENDBRANCH   1  23
BRANCH  10  26
ATOM     26  O   UNL     1      -3.749  10.735  16.556  0.00  0.00    +0.000 OA
BRANCH  26  27
ATOM     27  C   UNL     1      -2.648  10.659  15.646  0.00  0.00    +0.000 C 
ATOM     28  C   UNL     1      -3.118  10.021  14.348  0.00  0.00    +0.000 C 
ENDBRANCH  26  27
ENDBRANCH  10  26
TORSDOF 7
ENDMDL
MODEL 9
REMARK VINA RESULT:      -6.0      7.143     10.946
REMARK  Name = 
REMARK  9 active torsions:
REMARK  status: ('A' for Active; 'I' for Inactive)
REMARK    1  A    between atoms: C_1  and  C_2
REMARK    2  A    between atoms: C_2  and  O_3
REMARK    3  A    between atoms: O_3  and  C_4
REMARK    4  A    between atoms: C_9  and  C_10
REMARK    5  A    between atoms: C_12  and  N_13
REMARK    6  A    between atoms: N_13  and  C_14
REMARK    7  A    between atoms: C_24  and  O_25
REMARK    8  A    between atoms: O_25  and  C_26
REMARK    9  A    between atoms: C_26  and  C_27
REMARK                            x       y       z     vdW  Elec       q    Type
REMARK                         _______ _______ _______ _____ _____    ______ ____
ROOT
ATOM      1  C   UNL     1      -5.325  11.858  19.092  0.00  0.00    +0.000 A 
ATOM      2  C   UNL     1      -5.490  12.246  20.425  0.00  0.00    +0.000 A 
ATOM      3  C   UNL     1      -4.447  12.662  21.213  0.00  0.00    +0.000 A 
ATOM      4  N   UNL     1      -4.774  13.053  22.446  0.00  0.00    +0.000 NA
ATOM      5  C   UNL     1      -3.802  13.541  23.228  0.00  0.00    +0.000 A 
ATOM      6  C   UNL     1      -2.476  13.617  22.844  0.00  0.00    +0.000 A 
ATOM      7  C   UNL     1      -2.106  13.102  21.584  0.00  0.00    +0.000 A 
ATOM      8  C   UNL     1      -3.139  12.666  20.700  0.00  0.00    +0.000 A 
ATOM      9  C   UNL     1      -2.949  12.240  19.355  0.00  0.00    +0.000 A 
ATOM     10  C   UNL     1      -4.032  11.859  18.540  0.00  0.00    +0.000 A 
ENDROOT
BRANCH   6  11
ATOM     11  C   UNL     1      -1.593  14.283  23.742  0.00  0.00    +0.000 C 
ATOM     12  N   UNL     1      -0.910  14.851  24.493  0.00  0.00    +0.000 NA
ENDBRANCH   6  11
BRANCH   7  13
ATOM     13  N   UNL     1      -0.753  13.046  21.135  0.00  0.00    +0.000 N 
ATOM     14  H   UNL     1      -0.141  13.630  21.710  0.00  0.00    +0.000 HD
BRANCH  13  15
ATOM     15  C   UNL     1      -0.058  11.923  20.613  0.00  0.00    +0.000 A 
ATOM     16  C   UNL     1       0.586  11.994  19.367  0.00  0.00    +0.000 A 
ATOM     17  C   UNL     1       1.150  10.856  18.787  0.00  0.00    +0.000 A 
ATOM     18  C   UNL     1       1.135   9.648  19.478  0.00  0.00    +0.000 A 
ATOM     19 CL   UNL     1       1.791   8.239  18.742  0.00  0.00    +0.000 Cl
ATOM     20  C   UNL     1       0.593   9.574  20.758  0.00  0.00    +0.000 A 
ATOM     21  C   UNL     1       0.008  10.709  21.323  0.00  0.00    +0.000 A 
ATOM     22 CL   UNL     1      -0.672  10.586  22.909  0.00  0.00    +0.000 Cl
ENDBRANCH  13  15
ENDBRANCH   7  13
BRANCH   1  23
ATOM     23  O   UNL     1      -6.393  11.483  18.298  0.00  0.00    +0.000 OA
BRANCH  23  25
ATOM     24  C   UNL     1      -6.928  13.451  16.960  0.00  0.00    +0.000 C 
ATOM     25  C   UNL     1      -7.364  12.514  18.066  0.00  0.00    +0.000 C 
ENDBRANCH  23  25
ENDBRANCH   1  23
BRANCH  10  26
ATOM     26  O   UNL     1      -3.913  11.489  17.222  0.00  0.00    +0.000 OA
BRANCH  26  27
ATOM     27  C   UNL     1      -2.618  11.103  16.754  0.00  0.00    +0.000 C 
ATOM     28  C   UNL     1      -2.766  10.373  15.428  0.00  0.00    +0.000 C 
ENDBRANCH  26  27
ENDBRANCH  10  26
TORSDOF 7
ENDMDL
