MODEL 1
REMARK VINA RESULT:      -8.3      0.000      0.000
REMARK  Name = 
REMARK  11 active torsions:
REMARK  status: ('A' for Active; 'I' for Inactive)
REMARK    1  A    between atoms: C_1  and  O_2
REMARK    2  A    between atoms: O_2  and  C_3
REMARK    3  A    between atoms: C_6  and  O_7
REMARK    4  A    between atoms: O_7  and  C_8
REMARK    5  A    between atoms: C_12  and  O_13
REMARK    6  A    between atoms: C_14  and  N_15
REMARK    7  A    between atoms: N_15  and  C_16
REMARK    8  A    between atoms: C_16  and  C_17
REMARK    9  A    between atoms: C_17  and  C_18
REMARK   10  A    between atoms: C_18  and  C_19
REMARK   11  A    between atoms: C_18  and  C_25
REMARK                            x       y       z     vdW  Elec       q    Type
REMARK                         _______ _______ _______ _____ _____    ______ ____
ROOT
ATOM      1  N   UNL     1       2.107   7.732  20.007  0.00  0.00    +0.000 NA
ATOM      2  H   UNL     1       1.423   6.983  20.267  0.00  0.00    +0.000 HD
ENDROOT
BRANCH   1  11
ATOM      3  C   UNL     1      -1.663  12.087  20.817  0.00  0.00    +0.000 A 
ATOM      4  C   UNL     1      -2.588  12.382  19.805  0.00  0.00    +0.000 A 
ATOM      5  C   UNL     1      -2.577  11.667  18.614  0.00  0.00    +0.000 A 
ATOM      6  C   UNL     1      -1.632  10.640  18.392  0.00  0.00    +0.000 A 
ATOM      7  C   UNL     1      -0.676  10.351  19.391  0.00  0.00    +0.000 A 
ATOM      8  C   UNL     1      -0.713  11.063  20.609  0.00  0.00    +0.000 A 
ATOM      9  C   UNL     1       0.241  10.726  21.719  0.00  0.00    +0.000 C 
ATOM     10  C   UNL     1       0.815   9.292  21.621  0.00  0.00    +0.000 C 
ATOM     11  C   UNL     1       1.454   9.067  20.220  0.00  0.00    +0.000 C 
ATOM     12  C   UNL     1       0.342   9.236  19.146  0.00  0.00    +0.000 C 
BRANCH   3  14
ATOM     13  C   UNL     1      -2.658  12.683  22.977  0.00  0.00    +0.000 C 
ATOM     14  O   UNL     1      -1.670  12.743  22.014  0.00  0.00    +0.000 OA
ENDBRANCH   3  14
BRANCH   6  15
ATOM     15  O   UNL     1      -1.621   9.926  17.234  0.00  0.00    +0.000 OA
ATOM     16  C   UNL     1      -2.581   9.974  16.239  0.00  0.00    +0.000 C 
ENDBRANCH   6  15
BRANCH  10  17
ATOM     17  O   UNL     1       1.711   9.100  22.689  0.00  0.00    +0.000 OA
ATOM     18  H   UNL     1       1.899   8.128  22.784  0.00  0.00    +0.000 HD
ENDBRANCH  10  17
ENDBRANCH   1  11
BRANCH   1  19
ATOM     19  C   UNL     1       2.609   7.490  18.638  0.00  0.00    +0.000 C 
BRANCH  19  20
ATOM     20  C   UNL     1       2.654   6.006  18.170  0.00  0.00    +0.000 C 
BRANCH  20  21
ATOM     21  C   UNL     1       3.860   4.961  18.189  0.00  0.00    +0.000 C 
BRANCH  21  22
ATOM     22  C   UNL     1       3.656   3.402  18.527  0.00  0.00    +0.000 C 
ATOM     23  C   UNL     1       3.706   2.883  19.988  0.00  0.00    +0.000 C 
ATOM     24  C   UNL     1       2.417   3.103  20.760  0.00  0.00    +0.000 C 
ATOM     25  C   UNL     1       1.179   2.620  19.969  0.00  0.00    +0.000 C 
ATOM     26  C   UNL     1       1.153   3.085  18.496  0.00  0.00    +0.000 C 
ATOM     27  C   UNL     1       2.469   2.715  17.814  0.00  0.00    +0.000 C 
ENDBRANCH  21  22
BRANCH  21  28
ATOM     28  C   UNL     1       4.555   5.064  16.728  0.00  0.00    +0.000 C 
ATOM     29  C   UNL     1       4.979   6.490  16.276  0.00  0.00    +0.000 C 
ATOM     30  C   UNL     1       6.140   7.013  17.131  0.00  0.00    +0.000 C 
ATOM     31  C   UNL     1       7.349   6.069  17.020  0.00  0.00    +0.000 C 
ATOM     32  C   UNL     1       6.973   4.624  17.381  0.00  0.00    +0.000 C 
ATOM     33  C   UNL     1       5.808   4.162  16.497  0.00  0.00    +0.000 C 
ENDBRANCH  21  28
ENDBRANCH  20  21
ENDBRANCH  19  20
ENDBRANCH   1  19
TORSDOF 9
ENDMDL
MODEL 2
REMARK VINA RESULT:      -8.3      0.974      1.085
REMARK  Name = 
REMARK  11 active torsions:
REMARK  status: ('A' for Active; 'I' for Inactive)
REMARK    1  A    between atoms: C_1  and  O_2
REMARK    2  A    between atoms: O_2  and  C_3
REMARK    3  A    between atoms: C_6  and  O_7
REMARK    4  A    between atoms: O_7  and  C_8
REMARK    5  A    between atoms: C_12  and  O_13
REMARK    6  A    between atoms: C_14  and  N_15
REMARK    7  A    between atoms: N_15  and  C_16
REMARK    8  A    between atoms: C_16  and  C_17
REMARK    9  A    between atoms: C_17  and  C_18
REMARK   10  A    between atoms: C_18  and  C_19
REMARK   11  A    between atoms: C_18  and  C_25
REMARK                            x       y       z     vdW  Elec       q    Type
REMARK                         _______ _______ _______ _____ _____    ______ ____
ROOT
ATOM      1  N   UNL     1       1.964   8.513  19.537  0.00  0.00    +0.000 NA
ATOM      2  H   UNL     1       1.546   7.739  20.106  0.00  0.00    +0.000 HD
ENDROOT
BRANCH   1  11
ATOM      3  C   UNL     1      -2.532  12.167  20.052  0.00  0.00    +0.000 A 
ATOM      4  C   UNL     1      -3.489  12.216  19.028  0.00  0.00    +0.000 A 
ATOM      5  C   UNL     1      -3.343  11.428  17.892  0.00  0.00    +0.000 A 
ATOM      6  C   UNL     1      -2.227  10.575  17.740  0.00  0.00    +0.000 A 
ATOM      7  C   UNL     1      -1.241  10.537  18.750  0.00  0.00    +0.000 A 
ATOM      8  C   UNL     1      -1.413  11.318  19.913  0.00  0.00    +0.000 A 
ATOM      9  C   UNL     1      -0.420  11.240  21.037  0.00  0.00    +0.000 C 
ATOM     10  C   UNL     1       0.402   9.930  21.041  0.00  0.00    +0.000 C 
ATOM     11  C   UNL     1       1.081   9.720  19.656  0.00  0.00    +0.000 C 
ATOM     12  C   UNL     1      -0.038   9.608  18.581  0.00  0.00    +0.000 C 
BRANCH   3  14
ATOM     13  C   UNL     1      -3.729  12.861  22.076  0.00  0.00    +0.000 C 
ATOM     14  O   UNL     1      -2.664  12.898  21.197  0.00  0.00    +0.000 OA
ENDBRANCH   3  14
BRANCH   6  15
ATOM     15  O   UNL     1      -2.081   9.791  16.638  0.00  0.00    +0.000 OA
ATOM     16  C   UNL     1      -2.778   9.920  15.449  0.00  0.00    +0.000 C 
ENDBRANCH   6  15
BRANCH  10  17
ATOM     17  O   UNL     1       1.313   9.981  22.114  0.00  0.00    +0.000 OA
ATOM     18  H   UNL     1       1.730  10.883  22.142  0.00  0.00    +0.000 HD
ENDBRANCH  10  17
ENDBRANCH   1  11
BRANCH   1  19
ATOM     19  C   UNL     1       2.198   8.040  18.156  0.00  0.00    +0.000 C 
BRANCH  19  20
ATOM     20  C   UNL     1       2.561   6.534  17.993  0.00  0.00    +0.000 C 
BRANCH  20  21
ATOM     21  C   UNL     1       3.753   5.692  18.636  0.00  0.00    +0.000 C 
BRANCH  21  22
ATOM     22  C   UNL     1       3.507   4.388  19.544  0.00  0.00    +0.000 C 
ATOM     23  C   UNL     1       2.621   4.449  20.816  0.00  0.00    +0.000 C 
ATOM     24  C   UNL     1       1.131   4.391  20.527  0.00  0.00    +0.000 C 
ATOM     25  C   UNL     1       0.771   3.229  19.572  0.00  0.00    +0.000 C 
ATOM     26  C   UNL     1       1.688   3.127  18.333  0.00  0.00    +0.000 C 
ATOM     27  C   UNL     1       3.151   3.097  18.773  0.00  0.00    +0.000 C 
ENDBRANCH  21  22
BRANCH  21  28
ATOM     28  C   UNL     1       4.706   5.259  17.397  0.00  0.00    +0.000 C 
ATOM     29  C   UNL     1       5.102   6.398  16.415  0.00  0.00    +0.000 C 
ATOM     30  C   UNL     1       6.036   7.407  17.095  0.00  0.00    +0.000 C 
ATOM     31  C   UNL     1       7.310   6.703  17.589  0.00  0.00    +0.000 C 
ATOM     32  C   UNL     1       6.980   5.515  18.506  0.00  0.00    +0.000 C 
ATOM     33  C   UNL     1       6.043   4.548  17.773  0.00  0.00    +0.000 C 
ENDBRANCH  21  28
ENDBRANCH  20  21
ENDBRANCH  19  20
ENDBRANCH   1  19
TORSDOF 9
ENDMDL
MODEL 3
REMARK VINA RESULT:      -8.2      0.895      1.153
REMARK  Name = 
REMARK  11 active torsions:
REMARK  status: ('A' for Active; 'I' for Inactive)
REMARK    1  A    between atoms: C_1  and  O_2
REMARK    2  A    between atoms: O_2  and  C_3
REMARK    3  A    between atoms: C_6  and  O_7
REMARK    4  A    between atoms: O_7  and  C_8
REMARK    5  A    between atoms: C_12  and  O_13
REMARK    6  A    between atoms: C_14  and  N_15
REMARK    7  A    between atoms: N_15  and  C_16
REMARK    8  A    between atoms: C_16  and  C_17
REMARK    9  A    between atoms: C_17  and  C_18
REMARK   10  A    between atoms: C_18  and  C_19
REMARK   11  A    between atoms: C_18  and  C_25
REMARK                            x       y       z     vdW  Elec       q    Type
REMARK                         _______ _______ _______ _____ _____    ______ ____
ROOT
ATOM      1  N   UNL     1       1.845   7.641  20.485  0.00  0.00    +0.000 NA
ATOM      2  H   UNL     1       1.071   6.961  20.674  0.00  0.00    +0.000 HD
ENDROOT
BRANCH   1  11
ATOM      3  C   UNL     1      -1.629  12.301  20.708  0.00  0.00    +0.000 A 
ATOM      4  C   UNL     1      -2.474  12.571  19.622  0.00  0.00    +0.000 A 
ATOM      5  C   UNL     1      -2.452  11.758  18.496  0.00  0.00    +0.000 A 
ATOM      6  C   UNL     1      -1.575  10.652  18.417  0.00  0.00    +0.000 A 
ATOM      7  C   UNL     1      -0.699  10.385  19.491  0.00  0.00    +0.000 A 
ATOM      8  C   UNL     1      -0.749  11.199  20.642  0.00  0.00    +0.000 A 
ATOM      9  C   UNL     1       0.116  10.893  21.831  0.00  0.00    +0.000 C 
ATOM     10  C   UNL     1       0.586   9.420  21.886  0.00  0.00    +0.000 C 
ATOM     11  C   UNL     1       1.282   9.031  20.548  0.00  0.00    +0.000 C 
ATOM     12  C   UNL     1       0.245   9.185  19.400  0.00  0.00    +0.000 C 
BRANCH   3  14
ATOM     13  C   UNL     1      -1.311  14.391  21.951  0.00  0.00    +0.000 C 
ATOM     14  O   UNL     1      -1.652  13.056  21.845  0.00  0.00    +0.000 OA
ENDBRANCH   3  14
BRANCH   6  15
ATOM     15  O   UNL     1      -1.555   9.842  17.323  0.00  0.00    +0.000 OA
ATOM     16  C   UNL     1      -2.518   9.791  16.330  0.00  0.00    +0.000 C 
ENDBRANCH   6  15
BRANCH  10  17
ATOM     17  O   UNL     1       1.407   9.258  23.018  0.00  0.00    +0.000 OA
ATOM     18  H   UNL     1       1.086   9.862  23.740  0.00  0.00    +0.000 HD
ENDBRANCH  10  17
ENDBRANCH   1  11
BRANCH   1  19
ATOM     19  C   UNL     1       2.510   7.290  19.212  0.00  0.00    +0.000 C 
BRANCH  19  20
ATOM     20  C   UNL     1       3.545   6.128  19.269  0.00  0.00    +0.000 C 
BRANCH  20  21
ATOM     21  C   UNL     1       3.938   5.051  18.160  0.00  0.00    +0.000 C 
BRANCH  21  22
ATOM     22  C   UNL     1       2.870   4.036  17.515  0.00  0.00    +0.000 C 
ATOM     23  C   UNL     1       3.127   2.507  17.491  0.00  0.00    +0.000 C 
ATOM     24  C   UNL     1       2.820   1.815  18.808  0.00  0.00    +0.000 C 
ATOM     25  C   UNL     1       1.428   2.205  19.356  0.00  0.00    +0.000 C 
ATOM     26  C   UNL     1       1.142   3.723  19.326  0.00  0.00    +0.000 C 
ATOM     27  C   UNL     1       1.398   4.270  17.923  0.00  0.00    +0.000 C 
ENDBRANCH  21  22
BRANCH  21  28
ATOM     28  C   UNL     1       4.615   5.892  16.950  0.00  0.00    +0.000 C 
ATOM     29  C   UNL     1       5.880   6.717  17.321  0.00  0.00    +0.000 C 
ATOM     30  C   UNL     1       7.056   5.794  17.659  0.00  0.00    +0.000 C 
ATOM     31  C   UNL     1       7.381   4.886  16.461  0.00  0.00    +0.000 C 
ATOM     32  C   UNL     1       6.145   4.099  15.997  0.00  0.00    +0.000 C 
ATOM     33  C   UNL     1       5.006   5.075  15.679  0.00  0.00    +0.000 C 
ENDBRANCH  21  28
ENDBRANCH  20  21
ENDBRANCH  19  20
ENDBRANCH   1  19
TORSDOF 9
ENDMDL
MODEL 4
REMARK VINA RESULT:      -8.1      1.067      1.204
REMARK  Name = 
REMARK  11 active torsions:
REMARK  status: ('A' for Active; 'I' for Inactive)
REMARK    1  A    between atoms: C_1  and  O_2
REMARK    2  A    between atoms: O_2  and  C_3
REMARK    3  A    between atoms: C_6  and  O_7
REMARK    4  A    between atoms: O_7  and  C_8
REMARK    5  A    between atoms: C_12  and  O_13
REMARK    6  A    between atoms: C_14  and  N_15
REMARK    7  A    between atoms: N_15  and  C_16
REMARK    8  A    between atoms: C_16  and  C_17
REMARK    9  A    between atoms: C_17  and  C_18
REMARK   10  A    between atoms: C_18  and  C_19
REMARK   11  A    between atoms: C_18  and  C_25
REMARK                            x       y       z     vdW  Elec       q    Type
REMARK                         _______ _______ _______ _____ _____    ______ ____
ROOT
ATOM      1  N   UNL     1       2.057   7.676  18.717  0.00  0.00    +0.000 NA
ATOM      2  H   UNL     1       1.310   7.162  18.193  0.00  0.00    +0.000 HD
ENDROOT
BRANCH   1  11
ATOM      3  C   UNL     1      -1.479  11.836  20.725  0.00  0.00    +0.000 A 
ATOM      4  C   UNL     1      -2.475  12.346  19.881  0.00  0.00    +0.000 A 
ATOM      5  C   UNL     1      -2.590  11.889  18.574  0.00  0.00    +0.000 A 
ATOM      6  C   UNL     1      -1.703  10.914  18.066  0.00  0.00    +0.000 A 
ATOM      7  C   UNL     1      -0.677  10.412  18.895  0.00  0.00    +0.000 A 
ATOM      8  C   UNL     1      -0.586  10.860  20.230  0.00  0.00    +0.000 A 
ATOM      9  C   UNL     1       0.446  10.288  21.158  0.00  0.00    +0.000 C 
ATOM     10  C   UNL     1       0.960   8.895  20.722  0.00  0.00    +0.000 C 
ATOM     11  C   UNL     1       1.471   8.950  19.253  0.00  0.00    +0.000 C 
ATOM     12  C   UNL     1       0.278   9.353  18.340  0.00  0.00    +0.000 C 
BRANCH   3  14
ATOM     13  C   UNL     1      -0.724  13.371  22.482  0.00  0.00    +0.000 C 
ATOM     14  O   UNL     1      -1.362  12.234  22.025  0.00  0.00    +0.000 OA
ENDBRANCH   3  14
BRANCH   6  15
ATOM     15  O   UNL     1      -1.815  10.451  16.791  0.00  0.00    +0.000 OA
ATOM     16  C   UNL     1      -2.727  10.884  15.845  0.00  0.00    +0.000 C 
ENDBRANCH   6  15
BRANCH  10  17
ATOM     17  O   UNL     1       1.937   8.474  21.645  0.00  0.00    +0.000 OA
ATOM     18  H   UNL     1       1.545   8.484  22.559  0.00  0.00    +0.000 HD
ENDBRANCH  10  17
ENDBRANCH   1  11
BRANCH   1  19
ATOM     19  C   UNL     1       3.241   7.847  17.849  0.00  0.00    +0.000 C 
BRANCH  19  20
ATOM     20  C   UNL     1       3.889   6.543  17.298  0.00  0.00    +0.000 C 
BRANCH  20  21
ATOM     21  C   UNL     1       4.687   5.393  18.064  0.00  0.00    +0.000 C 
BRANCH  21  22
ATOM     22  C   UNL     1       4.080   3.923  18.304  0.00  0.00    +0.000 C 
ATOM     23  C   UNL     1       3.740   3.417  19.731  0.00  0.00    +0.000 C 
ATOM     24  C   UNL     1       2.412   3.930  20.260  0.00  0.00    +0.000 C 
ATOM     25  C   UNL     1       1.267   3.734  19.240  0.00  0.00    +0.000 C 
ATOM     26  C   UNL     1       1.621   4.182  17.804  0.00  0.00    +0.000 C 
ATOM     27  C   UNL     1       2.924   3.518  17.362  0.00  0.00    +0.000 C 
ENDBRANCH  21  22
BRANCH  21  28
ATOM     28  C   UNL     1       6.089   5.224  17.267  0.00  0.00    +0.000 C 
ATOM     29  C   UNL     1       6.599   6.487  16.515  0.00  0.00    +0.000 C 
ATOM     30  C   UNL     1       7.015   7.582  17.504  0.00  0.00    +0.000 C 
ATOM     31  C   UNL     1       8.127   7.066  18.432  0.00  0.00    +0.000 C 
ATOM     32  C   UNL     1       7.710   5.772  19.148  0.00  0.00    +0.000 C 
ATOM     33  C   UNL     1       7.303   4.721  18.109  0.00  0.00    +0.000 C 
ENDBRANCH  21  28
ENDBRANCH  20  21
ENDBRANCH  19  20
ENDBRANCH   1  19
TORSDOF 9
ENDMDL
MODEL 5
REMARK VINA RESULT:      -8.1      1.984      2.978
REMARK  Name = 
REMARK  11 active torsions:
REMARK  status: ('A' for Active; 'I' for Inactive)
REMARK    1  A    between atoms: C_1  and  O_2
REMARK    2  A    between atoms: O_2  and  C_3
REMARK    3  A    between atoms: C_6  and  O_7
REMARK    4  A    between atoms: O_7  and  C_8
REMARK    5  A    between atoms: C_12  and  O_13
REMARK    6  A    between atoms: C_14  and  N_15
REMARK    7  A    between atoms: N_15  and  C_16
REMARK    8  A    between atoms: C_16  and  C_17
REMARK    9  A    between atoms: C_17  and  C_18
REMARK   10  A    between atoms: C_18  and  C_19
REMARK   11  A    between atoms: C_18  and  C_25
REMARK                            x       y       z     vdW  Elec       q    Type
REMARK                         _______ _______ _______ _____ _____    ______ ____
ROOT
ATOM      1  N   UNL     1       2.235   9.075  17.926  0.00  0.00    +0.000 NA
ATOM      2  H   UNL     1       3.230   9.391  17.844  0.00  0.00    +0.000 HD
ENDROOT
BRANCH   1  11
ATOM      3  C   UNL     1      -0.171  13.642  20.607  0.00  0.00    +0.000 A 
ATOM      4  C   UNL     1      -0.825  13.444  21.832  0.00  0.00    +0.000 A 
ATOM      5  C   UNL     1      -0.927  12.169  22.375  0.00  0.00    +0.000 A 
ATOM      6  C   UNL     1      -0.386  11.049  21.704  0.00  0.00    +0.000 A 
ATOM      7  C   UNL     1       0.250  11.230  20.457  0.00  0.00    +0.000 A 
ATOM      8  C   UNL     1       0.374  12.532  19.926  0.00  0.00    +0.000 A 
ATOM      9  C   UNL     1       1.113  12.764  18.640  0.00  0.00    +0.000 C 
ATOM     10  C   UNL     1       2.115  11.637  18.294  0.00  0.00    +0.000 C 
ATOM     11  C   UNL     1       1.392  10.258  18.305  0.00  0.00    +0.000 C 
ATOM     12  C   UNL     1       0.836  10.014  19.737  0.00  0.00    +0.000 C 
BRANCH   3  14
ATOM     13  C   UNL     1      -0.025  16.086  20.747  0.00  0.00    +0.000 C 
ATOM     14  O   UNL     1      -0.019  14.885  20.064  0.00  0.00    +0.000 OA
ENDBRANCH   3  14
BRANCH   6  15
ATOM     15  O   UNL     1      -0.470   9.799  22.234  0.00  0.00    +0.000 OA
ATOM     16  C   UNL     1       0.063   9.390  23.443  0.00  0.00    +0.000 C 
ENDBRANCH   6  15
BRANCH  10  17
ATOM     17  O   UNL     1       2.723  11.946  17.063  0.00  0.00    +0.000 OA
ATOM     18  H   UNL     1       3.428  12.632  17.212  0.00  0.00    +0.000 HD
ENDBRANCH  10  17
ENDBRANCH   1  11
BRANCH   1  19
ATOM     19  C   UNL     1       2.156   7.925  18.850  0.00  0.00    +0.000 C 
BRANCH  19  20
ATOM     20  C   UNL     1       2.654   6.557  18.298  0.00  0.00    +0.000 C 
BRANCH  20  21
ATOM     21  C   UNL     1       3.795   5.585  18.846  0.00  0.00    +0.000 C 
BRANCH  21  22
ATOM     22  C   UNL     1       3.472   4.252  19.685  0.00  0.00    +0.000 C 
ATOM     23  C   UNL     1       2.461   4.267  20.861  0.00  0.00    +0.000 C 
ATOM     24  C   UNL     1       1.009   4.204  20.420  0.00  0.00    +0.000 C 
ATOM     25  C   UNL     1       0.762   3.069  19.400  0.00  0.00    +0.000 C 
ATOM     26  C   UNL     1       1.801   3.012  18.258  0.00  0.00    +0.000 C 
ATOM     27  C   UNL     1       3.212   2.982  18.844  0.00  0.00    +0.000 C 
ENDBRANCH  21  22
BRANCH  21  28
ATOM     28  C   UNL     1       4.667   5.155  17.548  0.00  0.00    +0.000 C 
ATOM     29  C   UNL     1       5.005   6.296  16.548  0.00  0.00    +0.000 C 
ATOM     30  C   UNL     1       5.983   7.300  17.173  0.00  0.00    +0.000 C 
ATOM     31  C   UNL     1       7.283   6.589  17.584  0.00  0.00    +0.000 C 
ATOM     32  C   UNL     1       7.006   5.399  18.515  0.00  0.00    +0.000 C 
ATOM     33  C   UNL     1       6.022   4.437  17.838  0.00  0.00    +0.000 C 
ENDBRANCH  21  28
ENDBRANCH  20  21
ENDBRANCH  19  20
ENDBRANCH   1  19
TORSDOF 9
ENDMDL
MODEL 6
REMARK VINA RESULT:      -8.1      1.301      1.847
REMARK  Name = 
REMARK  11 active torsions:
REMARK  status: ('A' for Active; 'I' for Inactive)
REMARK    1  A    between atoms: C_1  and  O_2
REMARK    2  A    between atoms: O_2  and  C_3
REMARK    3  A    between atoms: C_6  and  O_7
REMARK    4  A    between atoms: O_7  and  C_8
REMARK    5  A    between atoms: C_12  and  O_13
REMARK    6  A    between atoms: C_14  and  N_15
REMARK    7  A    between atoms: N_15  and  C_16
REMARK    8  A    between atoms: C_16  and  C_17
REMARK    9  A    between atoms: C_17  and  C_18
REMARK   10  A    between atoms: C_18  and  C_19
REMARK   11  A    between atoms: C_18  and  C_25
REMARK                            x       y       z     vdW  Elec       q    Type
REMARK                         _______ _______ _______ _____ _____    ______ ____
ROOT
ATOM      1  N   UNL     1       1.794   9.158  19.258  0.00  0.00    +0.000 NA
ATOM      2  H   UNL     1       1.489   8.346  19.846  0.00  0.00    +0.000 HD
ENDROOT
BRANCH   1  11
ATOM      3  C   UNL     1      -3.173  12.154  19.685  0.00  0.00    +0.000 A 
ATOM      4  C   UNL     1      -4.118  12.054  18.654  0.00  0.00    +0.000 A 
ATOM      5  C   UNL     1      -3.853  11.279  17.532  0.00  0.00    +0.000 A 
ATOM      6  C   UNL     1      -2.627  10.588  17.401  0.00  0.00    +0.000 A 
ATOM      7  C   UNL     1      -1.655  10.702  18.418  0.00  0.00    +0.000 A 
ATOM      8  C   UNL     1      -1.945  11.468  19.567  0.00  0.00    +0.000 A 
ATOM      9  C   UNL     1      -0.962  11.545  20.700  0.00  0.00    +0.000 C 
ATOM     10  C   UNL     1       0.036  10.363  20.730  0.00  0.00    +0.000 C 
ATOM     11  C   UNL     1       0.749  10.231  19.352  0.00  0.00    +0.000 C 
ATOM     12  C   UNL     1      -0.333   9.948  18.271  0.00  0.00    +0.000 C 
BRANCH   3  14
ATOM     13  C   UNL     1      -3.431  14.252  20.929  0.00  0.00    +0.000 C 
ATOM     14  O   UNL     1      -3.417  12.875  20.819  0.00  0.00    +0.000 OA
ENDBRANCH   3  14
BRANCH   6  15
ATOM     15  O   UNL     1      -2.363   9.817  16.311  0.00  0.00    +0.000 OA
ATOM     16  C   UNL     1      -2.827  10.037  15.026  0.00  0.00    +0.000 C 
ENDBRANCH   6  15
BRANCH  10  17
ATOM     17  O   UNL     1       0.920  10.556  21.808  0.00  0.00    +0.000 OA
ATOM     18  H   UNL     1       0.950   9.726  22.356  0.00  0.00    +0.000 HD
ENDBRANCH  10  17
ENDBRANCH   1  11
BRANCH   1  19
ATOM     19  C   UNL     1       2.091   8.690  17.888  0.00  0.00    +0.000 C 
BRANCH  19  20
ATOM     20  C   UNL     1       3.195   7.600  17.753  0.00  0.00    +0.000 C 
BRANCH  20  21
ATOM     21  C   UNL     1       3.266   6.132  18.374  0.00  0.00    +0.000 C 
BRANCH  21  22
ATOM     22  C   UNL     1       1.962   5.223  18.612  0.00  0.00    +0.000 C 
ATOM     23  C   UNL     1       1.646   4.014  17.692  0.00  0.00    +0.000 C 
ATOM     24  C   UNL     1       2.440   2.765  18.030  0.00  0.00    +0.000 C 
ATOM     25  C   UNL     1       2.381   2.432  19.539  0.00  0.00    +0.000 C 
ATOM     26  C   UNL     1       2.636   3.645  20.461  0.00  0.00    +0.000 C 
ATOM     27  C   UNL     1       1.705   4.793  20.074  0.00  0.00    +0.000 C 
ENDBRANCH  21  22
BRANCH  21  28
ATOM     28  C   UNL     1       4.283   5.300  17.423  0.00  0.00    +0.000 C 
ATOM     29  C   UNL     1       5.121   6.145  16.422  0.00  0.00    +0.000 C 
ATOM     30  C   UNL     1       6.143   7.017  17.162  0.00  0.00    +0.000 C 
ATOM     31  C   UNL     1       7.090   6.136  17.993  0.00  0.00    +0.000 C 
ATOM     32  C   UNL     1       6.314   5.218  18.951  0.00  0.00    +0.000 C 
ATOM     33  C   UNL     1       5.309   4.379  18.154  0.00  0.00    +0.000 C 
ENDBRANCH  21  28
ENDBRANCH  20  21
ENDBRANCH  19  20
ENDBRANCH   1  19
TORSDOF 9
ENDMDL
MODEL 7
REMARK VINA RESULT:      -8.1      1.085      3.464
REMARK  Name = 
REMARK  11 active torsions:
REMARK  status: ('A' for Active; 'I' for Inactive)
REMARK    1  A    between atoms: C_1  and  O_2
REMARK    2  A    between atoms: O_2  and  C_3
REMARK    3  A    between atoms: C_6  and  O_7
REMARK    4  A    between atoms: O_7  and  C_8
REMARK    5  A    between atoms: C_12  and  O_13
REMARK    6  A    between atoms: C_14  and  N_15
REMARK    7  A    between atoms: N_15  and  C_16
REMARK    8  A    between atoms: C_16  and  C_17
REMARK    9  A    between atoms: C_17  and  C_18
REMARK   10  A    between atoms: C_18  and  C_19
REMARK   11  A    between atoms: C_18  and  C_25
REMARK                            x       y       z     vdW  Elec       q    Type
REMARK                         _______ _______ _______ _____ _____    ______ ____
ROOT
ATOM      1  N   UNL     1       1.732   8.214  21.414  0.00  0.00    +0.000 NA
ATOM      2  H   UNL     1       1.214   7.525  22.009  0.00  0.00    +0.000 HD
ENDROOT
BRANCH   1  11
ATOM      3  C   UNL     1      -2.301  12.399  21.177  0.00  0.00    +0.000 A 
ATOM      4  C   UNL     1      -2.932  12.667  19.953  0.00  0.00    +0.000 A 
ATOM      5  C   UNL     1      -2.570  11.966  18.809  0.00  0.00    +0.000 A 
ATOM      6  C   UNL     1      -1.557  10.982  18.851  0.00  0.00    +0.000 A 
ATOM      7  C   UNL     1      -0.894  10.722  20.070  0.00  0.00    +0.000 A 
ATOM      8  C   UNL     1      -1.288  11.418  21.233  0.00  0.00    +0.000 A 
ATOM      9  C   UNL     1      -0.653  11.108  22.558  0.00  0.00    +0.000 C 
ATOM     10  C   UNL     1      -0.014   9.701  22.620  0.00  0.00    +0.000 C 
ATOM     11  C   UNL     1       0.989   9.518  21.442  0.00  0.00    +0.000 C 
ATOM     12  C   UNL     1       0.200   9.653  20.109  0.00  0.00    +0.000 C 
BRANCH   3  14
ATOM     13  C   UNL     1      -3.944  13.234  22.795  0.00  0.00    +0.000 C 
ATOM     14  O   UNL     1      -2.658  13.041  22.327  0.00  0.00    +0.000 OA
ENDBRANCH   3  14
BRANCH   6  15
ATOM     15  O   UNL     1      -1.204  10.282  17.739  0.00  0.00    +0.000 OA
ATOM     16  C   UNL     1      -2.068   9.812  16.765  0.00  0.00    +0.000 C 
ENDBRANCH   6  15
BRANCH  10  17
ATOM     17  O   UNL     1       0.570   9.534  23.890  0.00  0.00    +0.000 OA
ATOM     18  H   UNL     1      -0.009   8.939  24.438  0.00  0.00    +0.000 HD
ENDBRANCH  10  17
ENDBRANCH   1  11
BRANCH   1  19
ATOM     19  C   UNL     1       1.945   7.643  20.068  0.00  0.00    +0.000 C 
BRANCH  19  20
ATOM     20  C   UNL     1       2.247   6.116  20.004  0.00  0.00    +0.000 C 
BRANCH  20  21
ATOM     21  C   UNL     1       3.224   5.305  19.038  0.00  0.00    +0.000 C 
BRANCH  21  22
ATOM     22  C   UNL     1       4.727   5.782  18.720  0.00  0.00    +0.000 C 
ATOM     23  C   UNL     1       5.826   4.763  18.320  0.00  0.00    +0.000 C 
ATOM     24  C   UNL     1       5.770   4.344  16.861  0.00  0.00    +0.000 C 
ATOM     25  C   UNL     1       5.674   5.561  15.913  0.00  0.00    +0.000 C 
ATOM     26  C   UNL     1       4.621   6.609  16.339  0.00  0.00    +0.000 C 
ATOM     27  C   UNL     1       4.854   7.013  17.794  0.00  0.00    +0.000 C 
ENDBRANCH  21  22
BRANCH  21  28
ATOM     28  C   UNL     1       3.300   3.804  19.649  0.00  0.00    +0.000 C 
ATOM     29  C   UNL     1       2.208   3.440  20.694  0.00  0.00    +0.000 C 
ATOM     30  C   UNL     1       0.825   3.363  20.036  0.00  0.00    +0.000 C 
ATOM     31  C   UNL     1       0.826   2.305  18.920  0.00  0.00    +0.000 C 
ATOM     32  C   UNL     1       1.938   2.568  17.894  0.00  0.00    +0.000 C 
ATOM     33  C   UNL     1       3.291   2.639  18.611  0.00  0.00    +0.000 C 
ENDBRANCH  21  28
ENDBRANCH  20  21
ENDBRANCH  19  20
ENDBRANCH   1  19
TORSDOF 9
ENDMDL
MODEL 8
REMARK VINA RESULT:      -8.0      1.363      2.887
REMARK  Name = 
REMARK  11 active torsions:
REMARK  status: ('A' for Active; 'I' for Inactive)
REMARK    1  A    between atoms: C_1  and  O_2
REMARK    2  A    between atoms: O_2  and  C_3
REMARK    3  A    between atoms: C_6  and  O_7
REMARK    4  A    between atoms: O_7  and  C_8
REMARK    5  A    between atoms: C_12  and  O_13
REMARK    6  A    between atoms: C_14  and  N_15
REMARK    7  A    between atoms: N_15  and  C_16
REMARK    8  A    between atoms: C_16  and  C_17
REMARK    9  A    between atoms: C_17  and  C_18
REMARK   10  A    between atoms: C_18  and  C_19
REMARK   11  A    between atoms: C_18  and  C_25
REMARK                            x       y       z     vdW  Elec       q    Type
REMARK                         _______ _______ _______ _____ _____    ______ ____
ROOT
ATOM      1  N   UNL     1       2.713   7.502  20.072  0.00  0.00    +0.000 NA
ATOM      2  H   UNL     1       2.885   7.676  21.090  0.00  0.00    +0.000 HD
ENDROOT
BRANCH   1  11
ATOM      3  C   UNL     1      -1.300  11.563  18.959  0.00  0.00    +0.000 A 
ATOM      4  C   UNL     1      -1.845  12.290  20.027  0.00  0.00    +0.000 A 
ATOM      5  C   UNL     1      -1.457  12.017  21.333  0.00  0.00    +0.000 A 
ATOM      6  C   UNL     1      -0.518  10.998  21.613  0.00  0.00    +0.000 A 
ATOM      7  C   UNL     1       0.017  10.239  20.550  0.00  0.00    +0.000 A 
ATOM      8  C   UNL     1      -0.361  10.543  19.225  0.00  0.00    +0.000 A 
ATOM      9  C   UNL     1       0.250   9.804  18.069  0.00  0.00    +0.000 C 
ATOM     10  C   UNL     1       1.613   9.153  18.407  0.00  0.00    +0.000 C 
ATOM     11  C   UNL     1       1.475   8.247  19.665  0.00  0.00    +0.000 C 
ATOM     12  C   UNL     1       1.035   9.140  20.860  0.00  0.00    +0.000 C 
BRANCH   3  14
ATOM     13  C   UNL     1      -2.770  11.417  17.002  0.00  0.00    +0.000 C 
ATOM     14  O   UNL     1      -1.630  11.831  17.662  0.00  0.00    +0.000 OA
ENDBRANCH   3  14
BRANCH   6  15
ATOM     15  O   UNL     1      -0.123  10.732  22.887  0.00  0.00    +0.000 OA
ATOM     16  C   UNL     1      -0.333   9.549  23.574  0.00  0.00    +0.000 C 
ENDBRANCH   6  15
BRANCH  10  17
ATOM     17  O   UNL     1       2.073   8.470  17.265  0.00  0.00    +0.000 OA
ATOM     18  H   UNL     1       1.447   8.639  16.512  0.00  0.00    +0.000 HD
ENDBRANCH  10  17
ENDBRANCH   1  11
BRANCH   1  19
ATOM     19  C   UNL     1       2.680   6.046  19.819  0.00  0.00    +0.000 C 
BRANCH  19  20
ATOM     20  C   UNL     1       4.050   5.361  19.539  0.00  0.00    +0.000 C 
BRANCH  20  21
ATOM     21  C   UNL     1       4.469   4.342  18.385  0.00  0.00    +0.000 C 
BRANCH  21  22
ATOM     22  C   UNL     1       3.664   2.982  18.090  0.00  0.00    +0.000 C 
ATOM     23  C   UNL     1       3.313   1.991  19.231  0.00  0.00    +0.000 C 
ATOM     24  C   UNL     1       2.098   2.401  20.044  0.00  0.00    +0.000 C 
ATOM     25  C   UNL     1       0.895   2.766  19.143  0.00  0.00    +0.000 C 
ATOM     26  C   UNL     1       1.250   3.706  17.969  0.00  0.00    +0.000 C 
ATOM     27  C   UNL     1       2.423   3.126  17.180  0.00  0.00    +0.000 C 
ENDBRANCH  21  22
BRANCH  21  28
ATOM     28  C   UNL     1       4.490   5.212  17.016  0.00  0.00    +0.000 C 
ATOM     29  C   UNL     1       5.082   6.645  17.131  0.00  0.00    +0.000 C 
ATOM     30  C   UNL     1       6.590   6.595  17.406  0.00  0.00    +0.000 C 
ATOM     31  C   UNL     1       7.311   5.841  16.277  0.00  0.00    +0.000 C 
ATOM     32  C   UNL     1       6.717   4.441  16.062  0.00  0.00    +0.000 C 
ATOM     33  C   UNL     1       5.212   4.558  15.797  0.00  0.00    +0.000 C 
ENDBRANCH  21  28
ENDBRANCH  20  21
ENDBRANCH  19  20
ENDBRANCH   1  19
TORSDOF 9
ENDMDL
MODEL 9
REMARK VINA RESULT:      -8.0      0.843      3.553
REMARK  Name = 
REMARK  11 active torsions:
REMARK  status: ('A' for Active; 'I' for Inactive)
REMARK    1  A    between atoms: C_1  and  O_2
REMARK    2  A    between atoms: O_2  and  C_3
REMARK    3  A    between atoms: C_6  and  O_7
REMARK    4  A    between atoms: O_7  and  C_8
REMARK    5  A    between atoms: C_12  and  O_13
REMARK    6  A    between atoms: C_14  and  N_15
REMARK    7  A    between atoms: N_15  and  C_16
REMARK    8  A    between atoms: C_16  and  C_17
REMARK    9  A    between atoms: C_17  and  C_18
REMARK   10  A    between atoms: C_18  and  C_19
REMARK   11  A    between atoms: C_18  and  C_25
REMARK                            x       y       z     vdW  Elec       q    Type
REMARK                         _______ _______ _______ _____ _____    ______ ____
ROOT
ATOM      1  N   UNL     1       1.844   7.763  20.449  0.00  0.00    +0.000 NA
ATOM      2  H   UNL     1       1.107   7.054  20.675  0.00  0.00    +0.000 HD
ENDROOT
BRANCH   1  11
ATOM      3  C   UNL     1      -1.806  12.282  20.748  0.00  0.00    +0.000 A 
ATOM      4  C   UNL     1      -2.662  12.537  19.667  0.00  0.00    +0.000 A 
ATOM      5  C   UNL     1      -2.612  11.741  18.529  0.00  0.00    +0.000 A 
ATOM      6  C   UNL     1      -1.693  10.672  18.432  0.00  0.00    +0.000 A 
ATOM      7  C   UNL     1      -0.805  10.422  19.501  0.00  0.00    +0.000 A 
ATOM      8  C   UNL     1      -0.884  11.217  20.664  0.00  0.00    +0.000 A 
ATOM      9  C   UNL     1      -0.005  10.926  21.847  0.00  0.00    +0.000 C 
ATOM     10  C   UNL     1       0.521   9.471  21.879  0.00  0.00    +0.000 C 
ATOM     11  C   UNL     1       1.229   9.129  20.535  0.00  0.00    +0.000 C 
ATOM     12  C   UNL     1       0.184   9.260  19.390  0.00  0.00    +0.000 C 
BRANCH   3  14
ATOM     13  C   UNL     1      -1.480  14.341  22.041  0.00  0.00    +0.000 C 
ATOM     14  O   UNL     1      -1.856  13.019  21.896  0.00  0.00    +0.000 OA
ENDBRANCH   3  14
BRANCH   6  15
ATOM     15  O   UNL     1      -1.644   9.880  17.327  0.00  0.00    +0.000 OA
ATOM     16  C   UNL     1      -2.503   9.941  16.243  0.00  0.00    +0.000 C 
ENDBRANCH   6  15
BRANCH  10  17
ATOM     17  O   UNL     1       1.350   9.324  23.007  0.00  0.00    +0.000 OA
ATOM     18  H   UNL     1       2.059  10.020  22.982  0.00  0.00    +0.000 HD
ENDBRANCH  10  17
ENDBRANCH   1  11
BRANCH   1  19
ATOM     19  C   UNL     1       2.465   7.434  19.149  0.00  0.00    +0.000 C 
BRANCH  19  20
ATOM     20  C   UNL     1       3.565   6.333  19.166  0.00  0.00    +0.000 C 
BRANCH  20  21
ATOM     21  C   UNL     1       3.578   4.887  18.491  0.00  0.00    +0.000 C 
BRANCH  21  22
ATOM     22  C   UNL     1       4.783   4.374  17.558  0.00  0.00    +0.000 C 
ATOM     23  C   UNL     1       4.995   4.944  16.131  0.00  0.00    +0.000 C 
ATOM     24  C   UNL     1       5.701   6.289  16.109  0.00  0.00    +0.000 C 
ATOM     25  C   UNL     1       6.982   6.285  16.975  0.00  0.00    +0.000 C 
ATOM     26  C   UNL     1       6.791   5.663  18.376  0.00  0.00    +0.000 C 
ATOM     27  C   UNL     1       6.164   4.276  18.245  0.00  0.00    +0.000 C 
ENDBRANCH  21  22
BRANCH  21  28
ATOM     28  C   UNL     1       3.411   3.830  19.709  0.00  0.00    +0.000 C 
ATOM     29  C   UNL     1       2.316   4.172  20.759  0.00  0.00    +0.000 C 
ATOM     30  C   UNL     1       0.914   4.057  20.147  0.00  0.00    +0.000 C 
ATOM     31  C   UNL     1       0.680   2.631  19.621  0.00  0.00    +0.000 C 
ATOM     32  C   UNL     1       1.777   2.205  18.633  0.00  0.00    +0.000 C 
ATOM     33  C   UNL     1       3.150   2.347  19.301  0.00  0.00    +0.000 C 
ENDBRANCH  21  28
ENDBRANCH  20  21
ENDBRANCH  19  20
ENDBRANCH   1  19
TORSDOF 9
ENDMDL
