MODEL 1
REMARK VINA RESULT:      -9.2      0.000      0.000
REMARK  Name = 
REMARK  7 active torsions:
REMARK  status: ('A' for Active; 'I' for Inactive)
REMARK    1  A    between atoms: C_1  and  C_2
REMARK    2  A    between atoms: N_4  and  S_5
REMARK    3  A    between atoms: S_5  and  C_8
REMARK    4  A    between atoms: C_12  and  C_13
REMARK    5  A    between atoms: N_15  and  C_16
REMARK    6  A    between atoms: C_19  and  N_20
REMARK    7  A    between atoms: C_30  and  C_31
REMARK                            x       y       z     vdW  Elec       q    Type
REMARK                         _______ _______ _______ _____ _____    ______ ____
ROOT
ATOM      1  C   UNL     1       2.955   4.012  18.942  0.00  0.00    +0.000 A 
ATOM      2  C   UNL     1       2.843   3.205  20.079  0.00  0.00    +0.000 A 
ATOM      3  C   UNL     1       2.359   3.753  21.260  0.00  0.00    +0.000 A 
ATOM      4  C   UNL     1       1.961   5.089  21.287  0.00  0.00    +0.000 A 
ATOM      5  C   UNL     1       2.040   5.903  20.140  0.00  0.00    +0.000 A 
ATOM      6  C   UNL     1       2.543   5.354  18.956  0.00  0.00    +0.000 A 
ENDROOT
BRANCH   5   7
ATOM      7  C   UNL     1       1.619   7.329  20.305  0.00  0.00    +0.000 C 
ATOM      8  O   UNL     1       2.025   8.126  19.462  0.00  0.00    +0.000 OA
ATOM      9  N   UNL     1       0.824   7.659  21.391  0.00  0.00    +0.000 N 
ATOM     10  H   UNL     1       0.720   6.996  22.146  0.00  0.00    +0.000 HD
BRANCH   9  11
ATOM     11  C   UNL     1       0.212   8.921  21.592  0.00  0.00    +0.000 A 
ATOM     12  C   UNL     1      -0.054   9.814  20.555  0.00  0.00    +0.000 A 
ATOM     13  C   UNL     1      -0.672  11.044  20.805  0.00  0.00    +0.000 A 
ATOM     14  C   UNL     1      -1.060  11.428  22.091  0.00  0.00    +0.000 A 
ATOM     15  C   UNL     1      -0.792  10.517  23.122  0.00  0.00    +0.000 A 
ATOM     16  C   UNL     1      -0.173   9.279  22.883  0.00  0.00    +0.000 A 
BRANCH  14  17
ATOM     17  N   UNL     1      -1.689  12.636  22.317  0.00  0.00    +0.000 N 
ATOM     18  C   UNL     1      -3.141  12.740  22.429  0.00  0.00    +0.000 C 
ATOM     19  C   UNL     1      -3.504  13.241  23.822  0.00  0.00    +0.000 C 
ATOM     20  C   UNL     1      -2.798  14.565  24.114  0.00  0.00    +0.000 C 
ATOM     21  C   UNL     1      -1.287  14.426  23.933  0.00  0.00    +0.000 C 
ATOM     22  C   UNL     1      -0.928  13.866  22.553  0.00  0.00    +0.000 C 
ENDBRANCH  14  17
ENDBRANCH   9  11
ENDBRANCH   5   7
BRANCH   1  23
ATOM     23  S   UNL     1       3.529   3.294  17.415  0.00  0.00    +0.000 S 
ATOM     24  O   UNL     1       2.462   3.452  16.450  0.00  0.00    +0.000 OA
ATOM     25  O   UNL     1       4.085   1.992  17.712  0.00  0.00    +0.000 OA
BRANCH  23  29
ATOM     26  C   UNL     1       6.750   6.716  17.564  0.00  0.00    +0.000 C 
ATOM     27  C   UNL     1       7.111   5.242  17.389  0.00  0.00    +0.000 C 
ATOM     28  C   UNL     1       6.002   4.292  17.870  0.00  0.00    +0.000 C 
ATOM     29  N   UNL     1       4.817   4.328  16.948  0.00  0.00    +0.000 NA
ATOM     30  C   UNL     1       5.270   4.036  15.542  0.00  0.00    +0.000 C 
ATOM     31  C   UNL     1       6.406   4.982  15.115  0.00  0.00    +0.000 C 
ATOM     32  C   UNL     1       6.952   4.576  13.751  0.00  0.00    +0.000 C 
ATOM     33  O   UNL     1       7.504   4.945  16.041  0.00  0.00    +0.000 OA
ENDBRANCH  23  29
ENDBRANCH   1  23
TORSDOF 5
ENDMDL
MODEL 2
REMARK VINA RESULT:      -8.7      1.805      2.244
REMARK  Name = 
REMARK  7 active torsions:
REMARK  status: ('A' for Active; 'I' for Inactive)
REMARK    1  A    between atoms: C_1  and  C_2
REMARK    2  A    between atoms: N_4  and  S_5
REMARK    3  A    between atoms: S_5  and  C_8
REMARK    4  A    between atoms: C_12  and  C_13
REMARK    5  A    between atoms: N_15  and  C_16
REMARK    6  A    between atoms: C_19  and  N_20
REMARK    7  A    between atoms: C_30  and  C_31
REMARK                            x       y       z     vdW  Elec       q    Type
REMARK                         _______ _______ _______ _____ _____    ______ ____
ROOT
ATOM      1  C   UNL     1       3.200   4.287  19.415  0.00  0.00    +0.000 A 
ATOM      2  C   UNL     1       2.289   3.675  20.283  0.00  0.00    +0.000 A 
ATOM      3  C   UNL     1       1.290   4.437  20.872  0.00  0.00    +0.000 A 
ATOM      4  C   UNL     1       1.187   5.794  20.566  0.00  0.00    +0.000 A 
ATOM      5  C   UNL     1       2.079   6.415  19.670  0.00  0.00    +0.000 A 
ATOM      6  C   UNL     1       3.094   5.649  19.089  0.00  0.00    +0.000 A 
ENDROOT
BRANCH   5   7
ATOM      7  C   UNL     1       1.890   7.883  19.452  0.00  0.00    +0.000 C 
ATOM      8  O   UNL     1       2.542   8.395  18.546  0.00  0.00    +0.000 OA
ATOM      9  N   UNL     1       1.016   8.564  20.284  0.00  0.00    +0.000 N 
ATOM     10  H   UNL     1       0.693   8.120  21.132  0.00  0.00    +0.000 HD
BRANCH   9  11
ATOM     11  C   UNL     1       0.608   9.909  20.101  0.00  0.00    +0.000 A 
ATOM     12  C   UNL     1      -0.210  10.323  19.051  0.00  0.00    +0.000 A 
ATOM     13  C   UNL     1      -0.595  11.661  18.922  0.00  0.00    +0.000 A 
ATOM     14  C   UNL     1      -0.192  12.637  19.838  0.00  0.00    +0.000 A 
ATOM     15  C   UNL     1       0.625  12.205  20.892  0.00  0.00    +0.000 A 
ATOM     16  C   UNL     1       1.017  10.864  21.032  0.00  0.00    +0.000 A 
BRANCH  14  17
ATOM     17  N   UNL     1      -0.599  13.949  19.708  0.00  0.00    +0.000 N 
ATOM     18  C   UNL     1      -1.655  14.515  20.543  0.00  0.00    +0.000 C 
ATOM     19  C   UNL     1      -1.079  15.652  21.381  0.00  0.00    +0.000 C 
ATOM     20  C   UNL     1      -0.420  16.697  20.481  0.00  0.00    +0.000 C 
ATOM     21  C   UNL     1       0.640  16.054  19.588  0.00  0.00    +0.000 C 
ATOM     22  C   UNL     1       0.072  14.875  18.791  0.00  0.00    +0.000 C 
ENDBRANCH  14  17
ENDBRANCH   9  11
ENDBRANCH   5   7
BRANCH   1  23
ATOM     23  S   UNL     1       4.450   3.297  18.620  0.00  0.00    +0.000 S 
ATOM     24  O   UNL     1       3.761   2.381  17.736  0.00  0.00    +0.000 OA
ATOM     25  O   UNL     1       5.357   2.815  19.639  0.00  0.00    +0.000 OA
BRANCH  23  29
ATOM     26  C   UNL     1       6.676   7.222  17.296  0.00  0.00    +0.000 C 
ATOM     27  C   UNL     1       7.334   5.844  17.271  0.00  0.00    +0.000 C 
ATOM     28  C   UNL     1       6.639   4.829  18.192  0.00  0.00    +0.000 C 
ATOM     29  N   UNL     1       5.297   4.430  17.647  0.00  0.00    +0.000 NA
ATOM     30  C   UNL     1       5.461   3.925  16.238  0.00  0.00    +0.000 C 
ATOM     31  C   UNL     1       6.197   4.953  15.361  0.00  0.00    +0.000 C 
ATOM     32  C   UNL     1       6.486   4.367  13.984  0.00  0.00    +0.000 C 
ATOM     33  O   UNL     1       7.458   5.336  15.934  0.00  0.00    +0.000 OA
ENDBRANCH  23  29
ENDBRANCH   1  23
TORSDOF 5
ENDMDL
MODEL 3
REMARK VINA RESULT:      -8.7      2.032      3.189
REMARK  Name = 
REMARK  7 active torsions:
REMARK  status: ('A' for Active; 'I' for Inactive)
REMARK    1  A    between atoms: C_1  and  C_2
REMARK    2  A    between atoms: N_4  and  S_5
REMARK    3  A    between atoms: S_5  and  C_8
REMARK    4  A    between atoms: C_12  and  C_13
REMARK    5  A    between atoms: N_15  and  C_16
REMARK    6  A    between atoms: C_19  and  N_20
REMARK    7  A    between atoms: C_30  and  C_31
REMARK                            x       y       z     vdW  Elec       q    Type
REMARK                         _______ _______ _______ _____ _____    ______ ____
ROOT
ATOM      1  C   UNL     1       2.485   7.011  18.816  0.00  0.00    +0.000 A 
ATOM      2  C   UNL     1       2.576   7.683  17.592  0.00  0.00    +0.000 A 
ATOM      3  C   UNL     1       2.086   8.978  17.485  0.00  0.00    +0.000 A 
ATOM      4  C   UNL     1       1.541   9.602  18.607  0.00  0.00    +0.000 A 
ATOM      5  C   UNL     1       1.473   8.947  19.852  0.00  0.00    +0.000 A 
ATOM      6  C   UNL     1       1.952   7.638  19.953  0.00  0.00    +0.000 A 
ENDROOT
BRANCH   5   7
ATOM      7  C   UNL     1       0.832   9.707  20.971  0.00  0.00    +0.000 C 
ATOM      8  O   UNL     1       1.037   9.293  22.109  0.00  0.00    +0.000 OA
ATOM      9  N   UNL     1       0.046  10.804  20.655  0.00  0.00    +0.000 N 
ATOM     10  H   UNL     1      -0.247  10.942  19.698  0.00  0.00    +0.000 HD
BRANCH   9  11
ATOM     11  C   UNL     1      -0.487  11.716  21.600  0.00  0.00    +0.000 A 
ATOM     12  C   UNL     1      -1.468  11.368  22.526  0.00  0.00    +0.000 A 
ATOM     13  C   UNL     1      -1.953  12.303  23.447  0.00  0.00    +0.000 A 
ATOM     14  C   UNL     1      -1.472  13.615  23.490  0.00  0.00    +0.000 A 
ATOM     15  C   UNL     1      -0.481  13.948  22.556  0.00  0.00    +0.000 A 
ATOM     16  C   UNL     1       0.013  13.017  21.628  0.00  0.00    +0.000 A 
BRANCH  14  17
ATOM     17  N   UNL     1      -1.945  14.519  24.419  0.00  0.00    +0.000 N 
ATOM     18  C   UNL     1      -1.101  15.579  24.964  0.00  0.00    +0.000 C 
ATOM     19  C   UNL     1      -1.686  16.934  24.583  0.00  0.00    +0.000 C 
ATOM     20  C   UNL     1      -3.136  17.041  25.054  0.00  0.00    +0.000 C 
ATOM     21  C   UNL     1      -3.972  15.885  24.505  0.00  0.00    +0.000 C 
ATOM     22  C   UNL     1      -3.349  14.525  24.839  0.00  0.00    +0.000 C 
ENDBRANCH  14  17
ENDBRANCH   9  11
ENDBRANCH   5   7
BRANCH   1  23
ATOM     23  S   UNL     1       3.160   5.369  18.962  0.00  0.00    +0.000 S 
ATOM     24  O   UNL     1       2.346   4.504  18.134  0.00  0.00    +0.000 OA
ATOM     25  O   UNL     1       3.361   5.089  20.367  0.00  0.00    +0.000 OA
BRANCH  23  29
ATOM     26  C   UNL     1       7.601   6.695  18.169  0.00  0.00    +0.000 C 
ATOM     27  C   UNL     1       7.193   5.237  18.372  0.00  0.00    +0.000 C 
ATOM     28  C   UNL     1       5.848   5.087  19.100  0.00  0.00    +0.000 C 
ATOM     29  N   UNL     1       4.703   5.504  18.222  0.00  0.00    +0.000 NA
ATOM     30  C   UNL     1       4.759   4.734  16.930  0.00  0.00    +0.000 C 
ATOM     31  C   UNL     1       6.134   4.879  16.254  0.00  0.00    +0.000 C 
ATOM     32  C   UNL     1       6.223   3.976  15.029  0.00  0.00    +0.000 C 
ATOM     33  O   UNL     1       7.203   4.504  17.138  0.00  0.00    +0.000 OA
ENDBRANCH  23  29
ENDBRANCH   1  23
TORSDOF 5
ENDMDL
MODEL 4
REMARK VINA RESULT:      -8.7      0.838      1.663
REMARK  Name = 
REMARK  7 active torsions:
REMARK  status: ('A' for Active; 'I' for Inactive)
REMARK    1  A    between atoms: C_1  and  C_2
REMARK    2  A    between atoms: N_4  and  S_5
REMARK    3  A    between atoms: S_5  and  C_8
REMARK    4  A    between atoms: C_12  and  C_13
REMARK    5  A    between atoms: N_15  and  C_16
REMARK    6  A    between atoms: C_19  and  N_20
REMARK    7  A    between atoms: C_30  and  C_31
REMARK                            x       y       z     vdW  Elec       q    Type
REMARK                         _______ _______ _______ _____ _____    ______ ____
ROOT
ATOM      1  C   UNL     1       2.953   3.716  19.110  0.00  0.00    +0.000 A 
ATOM      2  C   UNL     1       2.843   3.002  20.308  0.00  0.00    +0.000 A 
ATOM      3  C   UNL     1       2.410   3.654  21.455  0.00  0.00    +0.000 A 
ATOM      4  C   UNL     1       2.060   5.002  21.389  0.00  0.00    +0.000 A 
ATOM      5  C   UNL     1       2.136   5.724  20.182  0.00  0.00    +0.000 A 
ATOM      6  C   UNL     1       2.588   5.069  19.032  0.00  0.00    +0.000 A 
ENDROOT
BRANCH   5   7
ATOM      7  C   UNL     1       1.770   7.173  20.247  0.00  0.00    +0.000 C 
ATOM      8  O   UNL     1       2.152   7.882  19.320  0.00  0.00    +0.000 OA
ATOM      9  N   UNL     1       1.047   7.620  21.343  0.00  0.00    +0.000 N 
ATOM     10  H   UNL     1       0.965   7.026  22.156  0.00  0.00    +0.000 HD
BRANCH   9  11
ATOM     11  C   UNL     1       0.487   8.916  21.468  0.00  0.00    +0.000 A 
ATOM     12  C   UNL     1       0.403   9.817  20.409  0.00  0.00    +0.000 A 
ATOM     13  C   UNL     1      -0.172  11.080  20.581  0.00  0.00    +0.000 A 
ATOM     14  C   UNL     1      -0.696  11.492  21.810  0.00  0.00    +0.000 A 
ATOM     15  C   UNL     1      -0.610  10.572  22.865  0.00  0.00    +0.000 A 
ATOM     16  C   UNL     1      -0.036   9.300  22.702  0.00  0.00    +0.000 A 
BRANCH  14  17
ATOM     17  N   UNL     1      -1.278  12.734  21.958  0.00  0.00    +0.000 N 
ATOM     18  C   UNL     1      -2.075  13.343  20.896  0.00  0.00    +0.000 C 
ATOM     19  C   UNL     1      -3.505  13.537  21.388  0.00  0.00    +0.000 C 
ATOM     20  C   UNL     1      -3.519  14.360  22.676  0.00  0.00    +0.000 C 
ATOM     21  C   UNL     1      -2.632  13.716  23.741  0.00  0.00    +0.000 C 
ATOM     22  C   UNL     1      -1.212  13.468  23.224  0.00  0.00    +0.000 C 
ENDBRANCH  14  17
ENDBRANCH   9  11
ENDBRANCH   5   7
BRANCH   1  23
ATOM     23  S   UNL     1       3.460   2.865  17.629  0.00  0.00    +0.000 S 
ATOM     24  O   UNL     1       2.452   3.130  16.625  0.00  0.00    +0.000 OA
ATOM     25  O   UNL     1       3.820   1.511  17.990  0.00  0.00    +0.000 OA
BRANCH  23  29
ATOM     26  C   UNL     1       6.918   4.593  14.951  0.00  0.00    +0.000 C 
ATOM     27  C   UNL     1       6.000   5.475  15.795  0.00  0.00    +0.000 C 
ATOM     28  C   UNL     1       4.676   4.786  16.162  0.00  0.00    +0.000 C 
ATOM     29  N   UNL     1       4.893   3.690  17.166  0.00  0.00    +0.000 NA
ATOM     30  C   UNL     1       5.615   4.246  18.364  0.00  0.00    +0.000 C 
ATOM     31  C   UNL     1       6.912   4.962  17.949  0.00  0.00    +0.000 C 
ATOM     32  C   UNL     1       7.551   5.646  19.152  0.00  0.00    +0.000 C 
ATOM     33  O   UNL     1       6.667   5.977  16.963  0.00  0.00    +0.000 OA
ENDBRANCH  23  29
ENDBRANCH   1  23
TORSDOF 5
ENDMDL
MODEL 5
REMARK VINA RESULT:      -8.7      0.666      1.482
REMARK  Name = 
REMARK  7 active torsions:
REMARK  status: ('A' for Active; 'I' for Inactive)
REMARK    1  A    between atoms: C_1  and  C_2
REMARK    2  A    between atoms: N_4  and  S_5
REMARK    3  A    between atoms: S_5  and  C_8
REMARK    4  A    between atoms: C_12  and  C_13
REMARK    5  A    between atoms: N_15  and  C_16
REMARK    6  A    between atoms: C_19  and  N_20
REMARK    7  A    between atoms: C_30  and  C_31
REMARK                            x       y       z     vdW  Elec       q    Type
REMARK                         _______ _______ _______ _____ _____    ______ ____
ROOT
ATOM      1  C   UNL     1       2.913   3.946  18.986  0.00  0.00    +0.000 A 
ATOM      2  C   UNL     1       2.771   3.117  20.105  0.00  0.00    +0.000 A 
ATOM      3  C   UNL     1       2.286   3.649  21.292  0.00  0.00    +0.000 A 
ATOM      4  C   UNL     1       1.917   4.993  21.344  0.00  0.00    +0.000 A 
ATOM      5  C   UNL     1       2.025   5.829  20.216  0.00  0.00    +0.000 A 
ATOM      6  C   UNL     1       2.528   5.295  19.026  0.00  0.00    +0.000 A 
ENDROOT
BRANCH   5   7
ATOM      7  C   UNL     1       1.632   7.260  20.407  0.00  0.00    +0.000 C 
ATOM      8  O   UNL     1       2.126   8.077  19.634  0.00  0.00    +0.000 OA
ATOM      9  N   UNL     1       0.763   7.571  21.441  0.00  0.00    +0.000 N 
ATOM     10  H   UNL     1       0.580   6.882  22.157  0.00  0.00    +0.000 HD
BRANCH   9  11
ATOM     11  C   UNL     1       0.172   8.843  21.646  0.00  0.00    +0.000 A 
ATOM     12  C   UNL     1      -0.149   9.341  22.907  0.00  0.00    +0.000 A 
ATOM     13  C   UNL     1      -0.720  10.610  23.057  0.00  0.00    +0.000 A 
ATOM     14  C   UNL     1      -0.981  11.436  21.960  0.00  0.00    +0.000 A 
ATOM     15  C   UNL     1      -0.646  10.924  20.699  0.00  0.00    +0.000 A 
ATOM     16  C   UNL     1      -0.072   9.652  20.537  0.00  0.00    +0.000 A 
BRANCH  14  17
ATOM     17  N   UNL     1      -1.524  12.693  22.127  0.00  0.00    +0.000 N 
ATOM     18  C   UNL     1      -0.882  13.889  21.586  0.00  0.00    +0.000 C 
ATOM     19  C   UNL     1      -1.808  14.537  20.563  0.00  0.00    +0.000 C 
ATOM     20  C   UNL     1      -3.170  14.837  21.189  0.00  0.00    +0.000 C 
ATOM     21  C   UNL     1      -3.781  13.571  21.789  0.00  0.00    +0.000 C 
ATOM     22  C   UNL     1      -2.825  12.889  22.773  0.00  0.00    +0.000 C 
ENDBRANCH  14  17
ENDBRANCH   9  11
ENDBRANCH   5   7
BRANCH   1  23
ATOM     23  S   UNL     1       3.487   3.249  17.450  0.00  0.00    +0.000 S 
ATOM     24  O   UNL     1       2.420   3.419  16.487  0.00  0.00    +0.000 OA
ATOM     25  O   UNL     1       4.043   1.943  17.729  0.00  0.00    +0.000 OA
BRANCH  23  29
ATOM     26  C   UNL     1       6.698   6.679  17.640  0.00  0.00    +0.000 C 
ATOM     27  C   UNL     1       7.063   5.207  17.458  0.00  0.00    +0.000 C 
ATOM     28  C   UNL     1       5.954   4.250  17.926  0.00  0.00    +0.000 C 
ATOM     29  N   UNL     1       4.774   4.290  16.997  0.00  0.00    +0.000 NA
ATOM     30  C   UNL     1       5.236   4.008  15.592  0.00  0.00    +0.000 C 
ATOM     31  C   UNL     1       6.372   4.960  15.178  0.00  0.00    +0.000 C 
ATOM     32  C   UNL     1       6.926   4.566  13.814  0.00  0.00    +0.000 C 
ATOM     33  O   UNL     1       7.465   4.920  16.110  0.00  0.00    +0.000 OA
ENDBRANCH  23  29
ENDBRANCH   1  23
TORSDOF 5
ENDMDL
MODEL 6
REMARK VINA RESULT:      -8.6      0.934      1.973
REMARK  Name = 
REMARK  7 active torsions:
REMARK  status: ('A' for Active; 'I' for Inactive)
REMARK    1  A    between atoms: C_1  and  C_2
REMARK    2  A    between atoms: N_4  and  S_5
REMARK    3  A    between atoms: S_5  and  C_8
REMARK    4  A    between atoms: C_12  and  C_13
REMARK    5  A    between atoms: N_15  and  C_16
REMARK    6  A    between atoms: C_19  and  N_20
REMARK    7  A    between atoms: C_30  and  C_31
REMARK                            x       y       z     vdW  Elec       q    Type
REMARK                         _______ _______ _______ _____ _____    ______ ____
ROOT
ATOM      1  C   UNL     1       2.945   3.717  19.078  0.00  0.00    +0.000 A 
ATOM      2  C   UNL     1       2.838   2.970  20.257  0.00  0.00    +0.000 A 
ATOM      3  C   UNL     1       2.403   3.590  21.421  0.00  0.00    +0.000 A 
ATOM      4  C   UNL     1       2.047   4.938  21.392  0.00  0.00    +0.000 A 
ATOM      5  C   UNL     1       2.120   5.692  20.204  0.00  0.00    +0.000 A 
ATOM      6  C   UNL     1       2.573   5.070  19.037  0.00  0.00    +0.000 A 
ENDROOT
BRANCH   5   7
ATOM      7  C   UNL     1       1.747   7.137  20.309  0.00  0.00    +0.000 C 
ATOM      8  O   UNL     1       2.156   7.879  19.419  0.00  0.00    +0.000 OA
ATOM      9  N   UNL     1       0.990   7.544  21.396  0.00  0.00    +0.000 N 
ATOM     10  H   UNL     1       0.884   6.922  22.185  0.00  0.00    +0.000 HD
BRANCH   9  11
ATOM     11  C   UNL     1       0.422   8.834  21.549  0.00  0.00    +0.000 A 
ATOM     12  C   UNL     1       0.247   9.721  20.489  0.00  0.00    +0.000 A 
ATOM     13  C   UNL     1      -0.331  10.979  20.690  0.00  0.00    +0.000 A 
ATOM     14  C   UNL     1      -0.768  11.398  21.950  0.00  0.00    +0.000 A 
ATOM     15  C   UNL     1      -0.591  10.492  23.005  0.00  0.00    +0.000 A 
ATOM     16  C   UNL     1      -0.013   9.226  22.814  0.00  0.00    +0.000 A 
BRANCH  14  17
ATOM     17  N   UNL     1      -1.355  12.634  22.128  0.00  0.00    +0.000 N 
ATOM     18  C   UNL     1      -0.565  13.832  22.395  0.00  0.00    +0.000 C 
ATOM     19  C   UNL     1      -0.763  14.830  21.259  0.00  0.00    +0.000 C 
ATOM     20  C   UNL     1      -2.248  15.138  21.072  0.00  0.00    +0.000 C 
ATOM     21  C   UNL     1      -3.045  13.853  20.848  0.00  0.00    +0.000 C 
ATOM     22  C   UNL     1      -2.798  12.830  21.961  0.00  0.00    +0.000 C 
ENDBRANCH  14  17
ENDBRANCH   9  11
ENDBRANCH   5   7
BRANCH   1  23
ATOM     23  S   UNL     1       3.454   2.908  17.575  0.00  0.00    +0.000 S 
ATOM     24  O   UNL     1       2.456   3.215  16.573  0.00  0.00    +0.000 OA
ATOM     25  O   UNL     1       3.798   1.539  17.895  0.00  0.00    +0.000 OA
BRANCH  23  29
ATOM     26  C   UNL     1       6.963   4.661  14.982  0.00  0.00    +0.000 C 
ATOM     27  C   UNL     1       6.037   5.534  15.826  0.00  0.00    +0.000 C 
ATOM     28  C   UNL     1       4.703   4.846  16.160  0.00  0.00    +0.000 C 
ATOM     29  N   UNL     1       4.898   3.732  17.149  0.00  0.00    +0.000 NA
ATOM     30  C   UNL     1       5.604   4.265  18.367  0.00  0.00    +0.000 C 
ATOM     31  C   UNL     1       6.912   4.980  17.985  0.00  0.00    +0.000 C 
ATOM     32  C   UNL     1       7.535   5.640  19.210  0.00  0.00    +0.000 C 
ATOM     33  O   UNL     1       6.688   6.013  17.012  0.00  0.00    +0.000 OA
ENDBRANCH  23  29
ENDBRANCH   1  23
TORSDOF 5
ENDMDL
MODEL 7
REMARK VINA RESULT:      -8.5      1.127      1.409
REMARK  Name = 
REMARK  7 active torsions:
REMARK  status: ('A' for Active; 'I' for Inactive)
REMARK    1  A    between atoms: C_1  and  C_2
REMARK    2  A    between atoms: N_4  and  S_5
REMARK    3  A    between atoms: S_5  and  C_8
REMARK    4  A    between atoms: C_12  and  C_13
REMARK    5  A    between atoms: N_15  and  C_16
REMARK    6  A    between atoms: C_19  and  N_20
REMARK    7  A    between atoms: C_30  and  C_31
REMARK                            x       y       z     vdW  Elec       q    Type
REMARK                         _______ _______ _______ _____ _____    ______ ____
ROOT
ATOM      1  C   UNL     1       3.047   3.804  19.470  0.00  0.00    +0.000 A 
ATOM      2  C   UNL     1       1.976   3.023  19.917  0.00  0.00    +0.000 A 
ATOM      3  C   UNL     1       0.854   3.643  20.453  0.00  0.00    +0.000 A 
ATOM      4  C   UNL     1       0.798   5.036  20.507  0.00  0.00    +0.000 A 
ATOM      5  C   UNL     1       1.857   5.834  20.032  0.00  0.00    +0.000 A 
ATOM      6  C   UNL     1       2.991   5.207  19.507  0.00  0.00    +0.000 A 
ENDROOT
BRANCH   5   7
ATOM      7  C   UNL     1       1.694   7.313  20.179  0.00  0.00    +0.000 C 
ATOM      8  O   UNL     1       2.239   8.017  19.332  0.00  0.00    +0.000 OA
ATOM      9  N   UNL     1       0.964   7.791  21.257  0.00  0.00    +0.000 N 
ATOM     10  H   UNL     1       0.740   7.165  22.018  0.00  0.00    +0.000 HD
BRANCH   9  11
ATOM     11  C   UNL     1       0.584   9.144  21.440  0.00  0.00    +0.000 A 
ATOM     12  C   UNL     1       0.964  10.167  20.575  0.00  0.00    +0.000 A 
ATOM     13  C   UNL     1       0.552  11.486  20.794  0.00  0.00    +0.000 A 
ATOM     14  C   UNL     1      -0.263  11.835  21.874  0.00  0.00    +0.000 A 
ATOM     15  C   UNL     1      -0.643  10.793  22.732  0.00  0.00    +0.000 A 
ATOM     16  C   UNL     1      -0.236   9.466  22.521  0.00  0.00    +0.000 A 
BRANCH  14  17
ATOM     17  N   UNL     1      -0.679  13.137  22.063  0.00  0.00    +0.000 N 
ATOM     18  C   UNL     1      -0.711  14.103  20.968  0.00  0.00    +0.000 C 
ATOM     19  C   UNL     1      -2.148  14.559  20.741  0.00  0.00    +0.000 C 
ATOM     20  C   UNL     1      -2.741  15.119  22.033  0.00  0.00    +0.000 C 
ATOM     21  C   UNL     1      -2.640  14.097  23.165  0.00  0.00    +0.000 C 
ATOM     22  C   UNL     1      -1.204  13.597  23.352  0.00  0.00    +0.000 C 
ENDBRANCH  14  17
ENDBRANCH   9  11
ENDBRANCH   5   7
BRANCH   1  23
ATOM     23  S   UNL     1       4.462   3.008  18.737  0.00  0.00    +0.000 S 
ATOM     24  O   UNL     1       3.955   1.968  17.867  0.00  0.00    +0.000 OA
ATOM     25  O   UNL     1       5.406   2.709  19.792  0.00  0.00    +0.000 OA
BRANCH  23  29
ATOM     26  C   UNL     1       6.227   7.153  17.391  0.00  0.00    +0.000 C 
ATOM     27  C   UNL     1       7.011   5.846  17.296  0.00  0.00    +0.000 C 
ATOM     28  C   UNL     1       6.468   4.751  18.229  0.00  0.00    +0.000 C 
ATOM     29  N   UNL     1       5.142   4.235  17.748  0.00  0.00    +0.000 NA
ATOM     30  C   UNL     1       5.273   3.776  16.320  0.00  0.00    +0.000 C 
ATOM     31  C   UNL     1       5.857   4.887  15.430  0.00  0.00    +0.000 C 
ATOM     32  C   UNL     1       6.122   4.358  14.024  0.00  0.00    +0.000 C 
ATOM     33  O   UNL     1       7.106   5.377  15.942  0.00  0.00    +0.000 OA
ENDBRANCH  23  29
ENDBRANCH   1  23
TORSDOF 5
ENDMDL
MODEL 8
REMARK VINA RESULT:      -8.5      2.512      3.086
REMARK  Name = 
REMARK  7 active torsions:
REMARK  status: ('A' for Active; 'I' for Inactive)
REMARK    1  A    between atoms: C_1  and  C_2
REMARK    2  A    between atoms: N_4  and  S_5
REMARK    3  A    between atoms: S_5  and  C_8
REMARK    4  A    between atoms: C_12  and  C_13
REMARK    5  A    between atoms: N_15  and  C_16
REMARK    6  A    between atoms: C_19  and  N_20
REMARK    7  A    between atoms: C_30  and  C_31
REMARK                            x       y       z     vdW  Elec       q    Type
REMARK                         _______ _______ _______ _____ _____    ______ ____
ROOT
ATOM      1  C   UNL     1       2.835   4.283  18.890  0.00  0.00    +0.000 A 
ATOM      2  C   UNL     1       2.514   3.523  20.021  0.00  0.00    +0.000 A 
ATOM      3  C   UNL     1       1.970   4.151  21.133  0.00  0.00    +0.000 A 
ATOM      4  C   UNL     1       1.720   5.522  21.097  0.00  0.00    +0.000 A 
ATOM      5  C   UNL     1       2.010   6.292  19.954  0.00  0.00    +0.000 A 
ATOM      6  C   UNL     1       2.573   5.661  18.840  0.00  0.00    +0.000 A 
ENDROOT
BRANCH   5   7
ATOM      7  C   UNL     1       1.733   7.759  20.050  0.00  0.00    +0.000 C 
ATOM      8  O   UNL     1       1.755   8.253  21.175  0.00  0.00    +0.000 OA
ATOM      9  N   UNL     1       1.456   8.455  18.884  0.00  0.00    +0.000 N 
ATOM     10  H   UNL     1       1.242   7.940  18.041  0.00  0.00    +0.000 HD
BRANCH   9  11
ATOM     11  C   UNL     1       1.338   9.864  18.791  0.00  0.00    +0.000 A 
ATOM     12  C   UNL     1       0.227  10.569  19.250  0.00  0.00    +0.000 A 
ATOM     13  C   UNL     1       0.165  11.963  19.146  0.00  0.00    +0.000 A 
ATOM     14  C   UNL     1       1.209  12.709  18.593  0.00  0.00    +0.000 A 
ATOM     15  C   UNL     1       2.322  11.987  18.142  0.00  0.00    +0.000 A 
ATOM     16  C   UNL     1       2.396  10.588  18.242  0.00  0.00    +0.000 A 
BRANCH  14  17
ATOM     17  N   UNL     1       1.141  14.085  18.518  0.00  0.00    +0.000 N 
ATOM     18  C   UNL     1      -0.110  14.808  18.732  0.00  0.00    +0.000 C 
ATOM     19  C   UNL     1       0.034  15.715  19.949  0.00  0.00    +0.000 C 
ATOM     20  C   UNL     1       1.229  16.652  19.777  0.00  0.00    +0.000 C 
ATOM     21  C   UNL     1       2.506  15.859  19.504  0.00  0.00    +0.000 C 
ATOM     22  C   UNL     1       2.339  14.905  18.317  0.00  0.00    +0.000 C 
ENDBRANCH  14  17
ENDBRANCH   9  11
ENDBRANCH   5   7
BRANCH   1  23
ATOM     23  S   UNL     1       3.486   3.468  17.446  0.00  0.00    +0.000 S 
ATOM     24  O   UNL     1       2.475   3.568  16.415  0.00  0.00    +0.000 OA
ATOM     25  O   UNL     1       4.016   2.185  17.855  0.00  0.00    +0.000 OA
BRANCH  23  29
ATOM     26  C   UNL     1       6.809   6.790  17.619  0.00  0.00    +0.000 C 
ATOM     27  C   UNL     1       7.126   5.307  17.437  0.00  0.00    +0.000 C 
ATOM     28  C   UNL     1       5.988   4.389  17.911  0.00  0.00    +0.000 C 
ATOM     29  N   UNL     1       4.806   4.465  16.987  0.00  0.00    +0.000 NA
ATOM     30  C   UNL     1       5.253   4.166  15.581  0.00  0.00    +0.000 C 
ATOM     31  C   UNL     1       6.418   5.079  15.161  0.00  0.00    +0.000 C 
ATOM     32  C   UNL     1       6.954   4.665  13.795  0.00  0.00    +0.000 C 
ATOM     33  O   UNL     1       7.513   5.005  16.088  0.00  0.00    +0.000 OA
ENDBRANCH  23  29
ENDBRANCH   1  23
TORSDOF 5
ENDMDL
MODEL 9
REMARK VINA RESULT:      -8.4      1.085      1.358
REMARK  Name = 
REMARK  7 active torsions:
REMARK  status: ('A' for Active; 'I' for Inactive)
REMARK    1  A    between atoms: C_1  and  C_2
REMARK    2  A    between atoms: N_4  and  S_5
REMARK    3  A    between atoms: S_5  and  C_8
REMARK    4  A    between atoms: C_12  and  C_13
REMARK    5  A    between atoms: N_15  and  C_16
REMARK    6  A    between atoms: C_19  and  N_20
REMARK    7  A    between atoms: C_30  and  C_31
REMARK                            x       y       z     vdW  Elec       q    Type
REMARK                         _______ _______ _______ _____ _____    ______ ____
ROOT
ATOM      1  C   UNL     1       3.170   3.921  19.479  0.00  0.00    +0.000 A 
ATOM      2  C   UNL     1       2.158   3.124  20.029  0.00  0.00    +0.000 A 
ATOM      3  C   UNL     1       1.054   3.730  20.613  0.00  0.00    +0.000 A 
ATOM      4  C   UNL     1       0.953   5.121  20.616  0.00  0.00    +0.000 A 
ATOM      5  C   UNL     1       1.949   5.932  20.038  0.00  0.00    +0.000 A 
ATOM      6  C   UNL     1       3.067   5.321  19.464  0.00  0.00    +0.000 A 
ENDROOT
BRANCH   5   7
ATOM      7  C   UNL     1       1.745   7.411  20.137  0.00  0.00    +0.000 C 
ATOM      8  O   UNL     1       2.156   8.090  19.200  0.00  0.00    +0.000 OA
ATOM      9  N   UNL     1       1.128   7.915  21.272  0.00  0.00    +0.000 N 
ATOM     10  H   UNL     1       1.021   7.321  22.082  0.00  0.00    +0.000 HD
BRANCH   9  11
ATOM     11  C   UNL     1       0.718   9.261  21.438  0.00  0.00    +0.000 A 
ATOM     12  C   UNL     1       1.190  10.307  20.648  0.00  0.00    +0.000 A 
ATOM     13  C   UNL     1       0.744  11.618  20.845  0.00  0.00    +0.000 A 
ATOM     14  C   UNL     1      -0.199  11.938  21.827  0.00  0.00    +0.000 A 
ATOM     15  C   UNL     1      -0.669  10.874  22.609  0.00  0.00    +0.000 A 
ATOM     16  C   UNL     1      -0.229   9.554  22.420  0.00  0.00    +0.000 A 
BRANCH  14  17
ATOM     17  N   UNL     1      -0.645  13.233  21.993  0.00  0.00    +0.000 N 
ATOM     18  C   UNL     1      -1.740  13.560  22.903  0.00  0.00    +0.000 C 
ATOM     19  C   UNL     1      -1.223  14.483  24.001  0.00  0.00    +0.000 C 
ATOM     20  C   UNL     1      -0.576  15.727  23.392  0.00  0.00    +0.000 C 
ATOM     21  C   UNL     1       0.527  15.338  22.408  0.00  0.00    +0.000 C 
ATOM     22  C   UNL     1       0.019  14.364  21.341  0.00  0.00    +0.000 C 
ENDBRANCH  14  17
ENDBRANCH   9  11
ENDBRANCH   5   7
BRANCH   1  23
ATOM     23  S   UNL     1       4.560   3.140  18.685  0.00  0.00    +0.000 S 
ATOM     24  O   UNL     1       4.025   2.132  17.795  0.00  0.00    +0.000 OA
ATOM     25  O   UNL     1       5.529   2.802  19.704  0.00  0.00    +0.000 OA
BRANCH  23  29
ATOM     26  C   UNL     1       6.212   7.352  17.401  0.00  0.00    +0.000 C 
ATOM     27  C   UNL     1       7.045   6.073  17.324  0.00  0.00    +0.000 C 
ATOM     28  C   UNL     1       6.516   4.956  18.238  0.00  0.00    +0.000 C 
ATOM     29  N   UNL     1       5.223   4.395  17.718  0.00  0.00    +0.000 NA
ATOM     30  C   UNL     1       5.410   3.947  16.294  0.00  0.00    +0.000 C 
ATOM     31  C   UNL     1       5.979   5.081  15.423  0.00  0.00    +0.000 C 
ATOM     32  C   UNL     1       6.301   4.568  14.025  0.00  0.00    +0.000 C 
ATOM     33  O   UNL     1       7.195   5.614  15.972  0.00  0.00    +0.000 OA
ENDBRANCH  23  29
ENDBRANCH   1  23
TORSDOF 5
ENDMDL
