MODEL 1
REMARK VINA RESULT:      -6.6      0.000      0.000
REMARK  Name = 
REMARK  9 active torsions:
REMARK  status: ('A' for Active; 'I' for Inactive)
REMARK    1  A    between atoms: C_1  and  C_2
REMARK    2  A    between atoms: C_2  and  C_3
REMARK    3  A    between atoms: C_3  and  C_4
REMARK    4  A    between atoms: C_3  and  N_6
REMARK    5  A    between atoms: C_7  and  C_9
REMARK    6  A    between atoms: C_12  and  O_13
REMARK    7  A    between atoms: O_13  and  C_14
REMARK    8  A    between atoms: C_14  and  C_15
REMARK    9  A    between atoms: C_14  and  C_16
REMARK                            x       y       z     vdW  Elec       q    Type
REMARK                         _______ _______ _______ _____ _____    ______ ____
ROOT
ATOM      1  C   UNL     1       5.534   4.620  16.979  0.00  0.00    +0.000 A 
ATOM      2  C   UNL     1       5.594   3.794  18.085  0.00  0.00    +0.000 A 
ATOM      3  N   UNL     1       4.765   3.915  19.154  0.00  0.00    +0.000 NA
ATOM      4  C   UNL     1       3.845   4.914  19.139  0.00  0.00    +0.000 A 
ATOM      5  C   UNL     1       3.769   5.832  18.081  0.00  0.00    +0.000 A 
ATOM      6 CL   UNL     1       2.736   7.206  18.055  0.00  0.00    +0.000 Cl
ATOM      7  C   UNL     1       4.597   5.651  16.968  0.00  0.00    +0.000 A 
ENDROOT
BRANCH   1   9
ATOM      8  N   UNL     1       5.821   4.130  14.629  0.00  0.00    +0.000 N 
ATOM      9  C   UNL     1       6.436   4.380  15.834  0.00  0.00    +0.000 C 
ATOM     10  O   UNL     1       7.648   4.422  15.985  0.00  0.00    +0.000 OA
ATOM     11  H   UNL     1       4.820   4.259  14.526  0.00  0.00    +0.000 HD
BRANCH   8  12
ATOM     12  C   UNL     1       6.594   3.829  13.431  0.00  0.00    +0.000 C 
BRANCH  12  14
ATOM     13  C   UNL     1       6.022   2.142  11.579  0.00  0.00    +0.000 C 
ATOM     14  C   UNL     1       5.678   3.473  12.245  0.00  0.00    +0.000 C 
ENDBRANCH  12  14
BRANCH  12  15
ATOM     15  C   UNL     1       7.482   4.952  13.091  0.00  0.00    +0.000 C 
ATOM     16  N   UNL     1       8.144   5.864  12.777  0.00  0.00    +0.000 NA
ENDBRANCH  12  15
ENDBRANCH   8  12
ENDBRANCH   1   9
BRANCH   4  17
ATOM     17  O   UNL     1       2.999   4.984  20.227  0.00  0.00    +0.000 OA
BRANCH  17  18
ATOM     18  C   UNL     1       2.227   3.775  20.455  0.00  0.00    +0.000 C 
ATOM     19  C   UNL     1       2.228   3.309  21.918  0.00  0.00    +0.000 C 
ATOM     20  C   UNL     1       0.771   4.063  20.059  0.00  0.00    +0.000 C 
ENDBRANCH  17  18
ENDBRANCH   4  17
TORSDOF 6
ENDMDL
MODEL 2
REMARK VINA RESULT:      -6.6      1.000      1.072
REMARK  Name = 
REMARK  9 active torsions:
REMARK  status: ('A' for Active; 'I' for Inactive)
REMARK    1  A    between atoms: C_1  and  C_2
REMARK    2  A    between atoms: C_2  and  C_3
REMARK    3  A    between atoms: C_3  and  C_4
REMARK    4  A    between atoms: C_3  and  N_6
REMARK    5  A    between atoms: C_7  and  C_9
REMARK    6  A    between atoms: C_12  and  O_13
REMARK    7  A    between atoms: O_13  and  C_14
REMARK    8  A    between atoms: C_14  and  C_15
REMARK    9  A    between atoms: C_14  and  C_16
REMARK                            x       y       z     vdW  Elec       q    Type
REMARK                         _______ _______ _______ _____ _____    ______ ____
ROOT
ATOM      1  C   UNL     1       5.550   4.352  16.851  0.00  0.00    +0.000 A 
ATOM      2  C   UNL     1       5.981   4.515  18.153  0.00  0.00    +0.000 A 
ATOM      3  N   UNL     1       5.139   4.582  19.216  0.00  0.00    +0.000 NA
ATOM      4  C   UNL     1       3.803   4.508  18.979  0.00  0.00    +0.000 A 
ATOM      5  C   UNL     1       3.289   4.410  17.677  0.00  0.00    +0.000 A 
ATOM      6 CL   UNL     1       1.616   4.456  17.284  0.00  0.00    +0.000 Cl
ATOM      7  C   UNL     1       4.180   4.285  16.606  0.00  0.00    +0.000 A 
ENDROOT
BRANCH   1   9
ATOM      8  N   UNL     1       6.025   3.967  14.511  0.00  0.00    +0.000 N 
ATOM      9  C   UNL     1       6.539   4.229  15.760  0.00  0.00    +0.000 C 
ATOM     10  O   UNL     1       7.731   4.369  15.990  0.00  0.00    +0.000 OA
ATOM     11  H   UNL     1       5.024   4.015  14.348  0.00  0.00    +0.000 HD
BRANCH   8  12
ATOM     12  C   UNL     1       6.893   3.773  13.358  0.00  0.00    +0.000 C 
BRANCH  12  14
ATOM     13  C   UNL     1       4.612   3.561  12.194  0.00  0.00    +0.000 C 
ATOM     14  C   UNL     1       6.107   3.247  12.143  0.00  0.00    +0.000 C 
ENDBRANCH  12  14
BRANCH  12  15
ATOM     15  C   UNL     1       7.600   5.020  13.026  0.00  0.00    +0.000 C 
ATOM     16  N   UNL     1       8.185   5.982  12.709  0.00  0.00    +0.000 NA
ENDBRANCH  12  15
ENDBRANCH   8  12
ENDBRANCH   1   9
BRANCH   4  17
ATOM     17  O   UNL     1       2.981   4.546  20.087  0.00  0.00    +0.000 OA
BRANCH  17  18
ATOM     18  C   UNL     1       2.271   3.305  20.339  0.00  0.00    +0.000 C 
ATOM     19  C   UNL     1       2.630   2.651  21.681  0.00  0.00    +0.000 C 
ATOM     20  C   UNL     1       0.768   3.619  20.363  0.00  0.00    +0.000 C 
ENDBRANCH  17  18
ENDBRANCH   4  17
TORSDOF 6
ENDMDL
MODEL 3
REMARK VINA RESULT:      -6.6      1.166      1.333
REMARK  Name = 
REMARK  9 active torsions:
REMARK  status: ('A' for Active; 'I' for Inactive)
REMARK    1  A    between atoms: C_1  and  C_2
REMARK    2  A    between atoms: C_2  and  C_3
REMARK    3  A    between atoms: C_3  and  C_4
REMARK    4  A    between atoms: C_3  and  N_6
REMARK    5  A    between atoms: C_7  and  C_9
REMARK    6  A    between atoms: C_12  and  O_13
REMARK    7  A    between atoms: O_13  and  C_14
REMARK    8  A    between atoms: C_14  and  C_15
REMARK    9  A    between atoms: C_14  and  C_16
REMARK                            x       y       z     vdW  Elec       q    Type
REMARK                         _______ _______ _______ _____ _____    ______ ____
ROOT
ATOM      1  C   UNL     1       5.165   4.745  16.354  0.00  0.00    +0.000 A 
ATOM      2  C   UNL     1       4.518   3.685  16.959  0.00  0.00    +0.000 A 
ATOM      3  N   UNL     1       3.431   3.831  17.760  0.00  0.00    +0.000 NA
ATOM      4  C   UNL     1       2.974   5.088  17.993  0.00  0.00    +0.000 A 
ATOM      5  C   UNL     1       3.619   6.218  17.468  0.00  0.00    +0.000 A 
ATOM      6 CL   UNL     1       3.192   7.843  17.833  0.00  0.00    +0.000 Cl
ATOM      7  C   UNL     1       4.702   6.035  16.600  0.00  0.00    +0.000 A 
ENDROOT
BRANCH   1   9
ATOM      8  N   UNL     1       5.984   4.247  14.134  0.00  0.00    +0.000 N 
ATOM      9  C   UNL     1       6.305   4.491  15.449  0.00  0.00    +0.000 C 
ATOM     10  O   UNL     1       7.449   4.515  15.878  0.00  0.00    +0.000 OA
ATOM     11  H   UNL     1       5.036   4.391  13.802  0.00  0.00    +0.000 HD
BRANCH   8  12
ATOM     12  C   UNL     1       7.009   3.933  13.148  0.00  0.00    +0.000 C 
BRANCH  12  14
ATOM     13  C   UNL     1       4.871   3.255  11.894  0.00  0.00    +0.000 C 
ATOM     14  C   UNL     1       6.398   3.308  11.881  0.00  0.00    +0.000 C 
ENDBRANCH  12  14
BRANCH  12  15
ATOM     15  C   UNL     1       7.794   5.133  12.816  0.00  0.00    +0.000 C 
ATOM     16  N   UNL     1       8.372   6.122  12.581  0.00  0.00    +0.000 NA
ENDBRANCH  12  15
ENDBRANCH   8  12
ENDBRANCH   1   9
BRANCH   4  17
ATOM     17  O   UNL     1       1.848   5.194  18.784  0.00  0.00    +0.000 OA
BRANCH  17  18
ATOM     18  C   UNL     1       2.129   5.274  20.207  0.00  0.00    +0.000 C 
ATOM     19  C   UNL     1       1.618   6.564  20.864  0.00  0.00    +0.000 C 
ATOM     20  C   UNL     1       1.429   4.093  20.893  0.00  0.00    +0.000 C 
ENDBRANCH  17  18
ENDBRANCH   4  17
TORSDOF 6
ENDMDL
MODEL 4
REMARK VINA RESULT:      -6.5      2.269      7.058
REMARK  Name = 
REMARK  9 active torsions:
REMARK  status: ('A' for Active; 'I' for Inactive)
REMARK    1  A    between atoms: C_1  and  C_2
REMARK    2  A    between atoms: C_2  and  C_3
REMARK    3  A    between atoms: C_3  and  C_4
REMARK    4  A    between atoms: C_3  and  N_6
REMARK    5  A    between atoms: C_7  and  C_9
REMARK    6  A    between atoms: C_12  and  O_13
REMARK    7  A    between atoms: O_13  and  C_14
REMARK    8  A    between atoms: C_14  and  C_15
REMARK    9  A    between atoms: C_14  and  C_16
REMARK                            x       y       z     vdW  Elec       q    Type
REMARK                         _______ _______ _______ _____ _____    ______ ____
ROOT
ATOM      1  C   UNL     1       4.444   5.697  18.098  0.00  0.00    +0.000 A 
ATOM      2  C   UNL     1       4.331   6.448  16.944  0.00  0.00    +0.000 A 
ATOM      3  N   UNL     1       5.299   6.508  15.993  0.00  0.00    +0.000 NA
ATOM      4  C   UNL     1       6.445   5.809  16.203  0.00  0.00    +0.000 A 
ATOM      5  C   UNL     1       6.659   5.078  17.381  0.00  0.00    +0.000 A 
ATOM      6 CL   UNL     1       8.132   4.289  17.786  0.00  0.00    +0.000 Cl
ATOM      7  C   UNL     1       5.623   4.987  18.318  0.00  0.00    +0.000 A 
ENDROOT
BRANCH   1   9
ATOM      8  N   UNL     1       2.983   4.389  19.513  0.00  0.00    +0.000 N 
ATOM      9  C   UNL     1       3.317   5.641  19.052  0.00  0.00    +0.000 C 
ATOM     10  O   UNL     1       2.750   6.668  19.396  0.00  0.00    +0.000 OA
ATOM     11  H   UNL     1       3.582   3.594  19.319  0.00  0.00    +0.000 HD
BRANCH   8  12
ATOM     12  C   UNL     1       1.861   4.189  20.420  0.00  0.00    +0.000 C 
BRANCH  12  14
ATOM     13  C   UNL     1       0.836   2.512  18.763  0.00  0.00    +0.000 C 
ATOM     14  C   UNL     1       0.602   3.725  19.663  0.00  0.00    +0.000 C 
ENDBRANCH  12  14
BRANCH  12  15
ATOM     15  C   UNL     1       2.216   3.235  21.482  0.00  0.00    +0.000 C 
ATOM     16  N   UNL     1       2.491   2.428  22.284  0.00  0.00    +0.000 NA
ENDBRANCH  12  15
ENDBRANCH   8  12
ENDBRANCH   1   9
BRANCH   4  17
ATOM     17  O   UNL     1       7.390   5.867  15.200  0.00  0.00    +0.000 OA
BRANCH  17  18
ATOM     18  C   UNL     1       7.351   4.742  14.283  0.00  0.00    +0.000 C 
ATOM     19  C   UNL     1       5.945   4.157  14.085  0.00  0.00    +0.000 C 
ATOM     20  C   UNL     1       7.848   5.231  12.915  0.00  0.00    +0.000 C 
ENDBRANCH  17  18
ENDBRANCH   4  17
TORSDOF 6
ENDMDL
MODEL 5
REMARK VINA RESULT:      -6.4      1.042      1.218
REMARK  Name = 
REMARK  9 active torsions:
REMARK  status: ('A' for Active; 'I' for Inactive)
REMARK    1  A    between atoms: C_1  and  C_2
REMARK    2  A    between atoms: C_2  and  C_3
REMARK    3  A    between atoms: C_3  and  C_4
REMARK    4  A    between atoms: C_3  and  N_6
REMARK    5  A    between atoms: C_7  and  C_9
REMARK    6  A    between atoms: C_12  and  O_13
REMARK    7  A    between atoms: O_13  and  C_14
REMARK    8  A    between atoms: C_14  and  C_15
REMARK    9  A    between atoms: C_14  and  C_16
REMARK                            x       y       z     vdW  Elec       q    Type
REMARK                         _______ _______ _______ _____ _____    ______ ____
ROOT
ATOM      1  C   UNL     1       5.419   4.484  17.062  0.00  0.00    +0.000 A 
ATOM      2  C   UNL     1       5.884   4.814  18.320  0.00  0.00    +0.000 A 
ATOM      3  N   UNL     1       5.074   4.979  19.397  0.00  0.00    +0.000 NA
ATOM      4  C   UNL     1       3.735   4.835  19.218  0.00  0.00    +0.000 A 
ATOM      5  C   UNL     1       3.184   4.567  17.956  0.00  0.00    +0.000 A 
ATOM      6 CL   UNL     1       1.499   4.514  17.619  0.00  0.00    +0.000 Cl
ATOM      7  C   UNL     1       4.045   4.345  16.876  0.00  0.00    +0.000 A 
ENDROOT
BRANCH   1   9
ATOM      8  N   UNL     1       5.823   4.066  14.715  0.00  0.00    +0.000 N 
ATOM      9  C   UNL     1       6.376   4.264  15.959  0.00  0.00    +0.000 C 
ATOM     10  O   UNL     1       7.579   4.275  16.175  0.00  0.00    +0.000 OA
ATOM     11  H   UNL     1       4.832   4.221  14.564  0.00  0.00    +0.000 HD
BRANCH   8  12
ATOM     12  C   UNL     1       6.654   3.789  13.551  0.00  0.00    +0.000 C 
BRANCH  12  14
ATOM     13  C   UNL     1       6.320   2.250  11.520  0.00  0.00    +0.000 C 
ATOM     14  C   UNL     1       5.797   3.444  12.318  0.00  0.00    +0.000 C 
ENDBRANCH  12  14
BRANCH  12  15
ATOM     15  C   UNL     1       7.546   4.924  13.268  0.00  0.00    +0.000 C 
ATOM     16  N   UNL     1       8.285   5.815  13.099  0.00  0.00    +0.000 NA
ENDBRANCH  12  15
ENDBRANCH   8  12
ENDBRANCH   1   9
BRANCH   4  17
ATOM     17  O   UNL     1       2.948   4.977  20.342  0.00  0.00    +0.000 OA
BRANCH  17  18
ATOM     18  C   UNL     1       2.624   3.725  21.001  0.00  0.00    +0.000 C 
ATOM     19  C   UNL     1       1.153   3.311  20.849  0.00  0.00    +0.000 C 
ATOM     20  C   UNL     1       3.485   2.622  20.368  0.00  0.00    +0.000 C 
ENDBRANCH  17  18
ENDBRANCH   4  17
TORSDOF 6
ENDMDL
MODEL 6
REMARK VINA RESULT:      -6.4      2.004      2.510
REMARK  Name = 
REMARK  9 active torsions:
REMARK  status: ('A' for Active; 'I' for Inactive)
REMARK    1  A    between atoms: C_1  and  C_2
REMARK    2  A    between atoms: C_2  and  C_3
REMARK    3  A    between atoms: C_3  and  C_4
REMARK    4  A    between atoms: C_3  and  N_6
REMARK    5  A    between atoms: C_7  and  C_9
REMARK    6  A    between atoms: C_12  and  O_13
REMARK    7  A    between atoms: O_13  and  C_14
REMARK    8  A    between atoms: C_14  and  C_15
REMARK    9  A    between atoms: C_14  and  C_16
REMARK                            x       y       z     vdW  Elec       q    Type
REMARK                         _______ _______ _______ _____ _____    ______ ____
ROOT
ATOM      1  C   UNL     1       5.811   4.530  15.817  0.00  0.00    +0.000 A 
ATOM      2  C   UNL     1       4.592   4.016  16.214  0.00  0.00    +0.000 A 
ATOM      3  N   UNL     1       4.153   4.040  17.499  0.00  0.00    +0.000 NA
ATOM      4  C   UNL     1       4.969   4.578  18.443  0.00  0.00    +0.000 A 
ATOM      5  C   UNL     1       6.248   5.058  18.126  0.00  0.00    +0.000 A 
ATOM      6 CL   UNL     1       7.393   5.617  19.280  0.00  0.00    +0.000 Cl
ATOM      7  C   UNL     1       6.652   5.073  16.786  0.00  0.00    +0.000 A 
ENDROOT
BRANCH   1   9
ATOM      8  N   UNL     1       5.410   3.723  13.574  0.00  0.00    +0.000 N 
ATOM      9  C   UNL     1       6.184   4.516  14.388  0.00  0.00    +0.000 C 
ATOM     10  O   UNL     1       7.123   5.190  13.989  0.00  0.00    +0.000 OA
ATOM     11  H   UNL     1       4.553   3.308  13.925  0.00  0.00    +0.000 HD
BRANCH   8  12
ATOM     12  C   UNL     1       5.701   3.581  12.153  0.00  0.00    +0.000 C 
BRANCH  12  14
ATOM     13  C   UNL     1       6.233   1.257  11.192  0.00  0.00    +0.000 C 
ATOM     14  C   UNL     1       6.768   2.500  11.903  0.00  0.00    +0.000 C 
ENDBRANCH  12  14
BRANCH  12  15
ATOM     15  C   UNL     1       4.472   3.289  11.399  0.00  0.00    +0.000 C 
ATOM     16  N   UNL     1       3.508   3.107  10.761  0.00  0.00    +0.000 NA
ENDBRANCH  12  15
ENDBRANCH   8  12
ENDBRANCH   1   9
BRANCH   4  17
ATOM     17  O   UNL     1       4.474   4.615  19.731  0.00  0.00    +0.000 OA
BRANCH  17  18
ATOM     18  C   UNL     1       3.143   4.053  19.870  0.00  0.00    +0.000 C 
ATOM     19  C   UNL     1       3.090   2.807  20.767  0.00  0.00    +0.000 C 
ATOM     20  C   UNL     1       2.243   5.122  20.506  0.00  0.00    +0.000 C 
ENDBRANCH  17  18
ENDBRANCH   4  17
TORSDOF 6
ENDMDL
MODEL 7
REMARK VINA RESULT:      -6.3      1.149      1.428
REMARK  Name = 
REMARK  9 active torsions:
REMARK  status: ('A' for Active; 'I' for Inactive)
REMARK    1  A    between atoms: C_1  and  C_2
REMARK    2  A    between atoms: C_2  and  C_3
REMARK    3  A    between atoms: C_3  and  C_4
REMARK    4  A    between atoms: C_3  and  N_6
REMARK    5  A    between atoms: C_7  and  C_9
REMARK    6  A    between atoms: C_12  and  O_13
REMARK    7  A    between atoms: O_13  and  C_14
REMARK    8  A    between atoms: C_14  and  C_15
REMARK    9  A    between atoms: C_14  and  C_16
REMARK                            x       y       z     vdW  Elec       q    Type
REMARK                         _______ _______ _______ _____ _____    ______ ____
ROOT
ATOM      1  C   UNL     1       4.532   5.125  17.193  0.00  0.00    +0.000 A 
ATOM      2  C   UNL     1       4.719   4.041  18.029  0.00  0.00    +0.000 A 
ATOM      3  N   UNL     1       4.127   3.925  19.246  0.00  0.00    +0.000 NA
ATOM      4  C   UNL     1       3.330   4.941  19.668  0.00  0.00    +0.000 A 
ATOM      5  C   UNL     1       3.147   6.102  18.903  0.00  0.00    +0.000 A 
ATOM      6 CL   UNL     1       2.275   7.488  19.428  0.00  0.00    +0.000 Cl
ATOM      7  C   UNL     1       3.722   6.170  17.629  0.00  0.00    +0.000 A 
ENDROOT
BRANCH   1   9
ATOM      8  N   UNL     1       5.597   3.925  15.384  0.00  0.00    +0.000 N 
ATOM      9  C   UNL     1       5.167   5.142  15.859  0.00  0.00    +0.000 C 
ATOM     10  O   UNL     1       5.275   6.191  15.241  0.00  0.00    +0.000 OA
ATOM     11  H   UNL     1       5.345   3.068  15.865  0.00  0.00    +0.000 HD
BRANCH   8  12
ATOM     12  C   UNL     1       6.284   3.809  14.105  0.00  0.00    +0.000 C 
BRANCH  12  14
ATOM     13  C   UNL     1       5.494   2.903  11.833  0.00  0.00    +0.000 C 
ATOM     14  C   UNL     1       5.306   3.956  12.925  0.00  0.00    +0.000 C 
ENDBRANCH  12  14
BRANCH  12  15
ATOM     15  C   UNL     1       7.373   4.795  14.010  0.00  0.00    +0.000 C 
ATOM     16  N   UNL     1       8.196   5.619  13.908  0.00  0.00    +0.000 NA
ENDBRANCH  12  15
ENDBRANCH   8  12
ENDBRANCH   1   9
BRANCH   4  17
ATOM     17  O   UNL     1       2.720   4.771  20.894  0.00  0.00    +0.000 OA
BRANCH  17  18
ATOM     18  C   UNL     1       1.471   4.034  20.838  0.00  0.00    +0.000 C 
ATOM     19  C   UNL     1       1.041   3.657  19.413  0.00  0.00    +0.000 C 
ATOM     20  C   UNL     1       1.657   2.730  21.628  0.00  0.00    +0.000 C 
ENDBRANCH  17  18
ENDBRANCH   4  17
TORSDOF 6
ENDMDL
MODEL 8
REMARK VINA RESULT:      -6.3      4.592      7.328
REMARK  Name = 
REMARK  9 active torsions:
REMARK  status: ('A' for Active; 'I' for Inactive)
REMARK    1  A    between atoms: C_1  and  C_2
REMARK    2  A    between atoms: C_2  and  C_3
REMARK    3  A    between atoms: C_3  and  C_4
REMARK    4  A    between atoms: C_3  and  N_6
REMARK    5  A    between atoms: C_7  and  C_9
REMARK    6  A    between atoms: C_12  and  O_13
REMARK    7  A    between atoms: O_13  and  C_14
REMARK    8  A    between atoms: C_14  and  C_15
REMARK    9  A    between atoms: C_14  and  C_16
REMARK                            x       y       z     vdW  Elec       q    Type
REMARK                         _______ _______ _______ _____ _____    ______ ____
ROOT
ATOM      1  C   UNL     1       2.661   7.700  18.415  0.00  0.00    +0.000 A 
ATOM      2  C   UNL     1       2.454   6.894  19.517  0.00  0.00    +0.000 A 
ATOM      3  N   UNL     1       3.103   5.717  19.715  0.00  0.00    +0.000 NA
ATOM      4  C   UNL     1       3.984   5.306  18.766  0.00  0.00    +0.000 A 
ATOM      5  C   UNL     1       4.196   6.039  17.588  0.00  0.00    +0.000 A 
ATOM      6 CL   UNL     1       5.180   5.517  16.279  0.00  0.00    +0.000 Cl
ATOM      7  C   UNL     1       3.558   7.275  17.437  0.00  0.00    +0.000 A 
ENDROOT
BRANCH   1   9
ATOM      8  N   UNL     1       1.143   9.323  19.368  0.00  0.00    +0.000 N 
ATOM      9  C   UNL     1       1.956   8.994  18.308  0.00  0.00    +0.000 C 
ATOM     10  O   UNL     1       2.120   9.707  17.329  0.00  0.00    +0.000 OA
ATOM     11  H   UNL     1       1.163   8.773  20.220  0.00  0.00    +0.000 HD
BRANCH   8  12
ATOM     12  C   UNL     1       0.353  10.547  19.367  0.00  0.00    +0.000 C 
BRANCH  12  14
ATOM     13  C   UNL     1      -1.479  10.128  17.614  0.00  0.00    +0.000 C 
ATOM     14  C   UNL     1      -1.135  10.256  19.097  0.00  0.00    +0.000 C 
ENDBRANCH  12  14
BRANCH  12  15
ATOM     15  C   UNL     1       0.524  11.275  20.634  0.00  0.00    +0.000 C 
ATOM     16  N   UNL     1       0.649  11.909  21.609  0.00  0.00    +0.000 NA
ENDBRANCH  12  15
ENDBRANCH   8  12
ENDBRANCH   1   9
BRANCH   4  17
ATOM     17  O   UNL     1       4.649   4.124  19.018  0.00  0.00    +0.000 OA
BRANCH  17  18
ATOM     18  C   UNL     1       3.772   2.987  19.238  0.00  0.00    +0.000 C 
ATOM     19  C   UNL     1       3.470   2.186  17.963  0.00  0.00    +0.000 C 
ATOM     20  C   UNL     1       4.465   2.041  20.229  0.00  0.00    +0.000 C 
ENDBRANCH  17  18
ENDBRANCH   4  17
TORSDOF 6
ENDMDL
MODEL 9
REMARK VINA RESULT:      -6.3      1.931      7.065
REMARK  Name = 
REMARK  9 active torsions:
REMARK  status: ('A' for Active; 'I' for Inactive)
REMARK    1  A    between atoms: C_1  and  C_2
REMARK    2  A    between atoms: C_2  and  C_3
REMARK    3  A    between atoms: C_3  and  C_4
REMARK    4  A    between atoms: C_3  and  N_6
REMARK    5  A    between atoms: C_7  and  C_9
REMARK    6  A    between atoms: C_12  and  O_13
REMARK    7  A    between atoms: O_13  and  C_14
REMARK    8  A    between atoms: C_14  and  C_15
REMARK    9  A    between atoms: C_14  and  C_16
REMARK                            x       y       z     vdW  Elec       q    Type
REMARK                         _______ _______ _______ _____ _____    ______ ____
ROOT
ATOM      1  C   UNL     1       4.574   5.180  18.024  0.00  0.00    +0.000 A 
ATOM      2  C   UNL     1       4.588   4.154  17.100  0.00  0.00    +0.000 A 
ATOM      3  N   UNL     1       5.553   4.012  16.155  0.00  0.00    +0.000 NA
ATOM      4  C   UNL     1       6.540   4.943  16.105  0.00  0.00    +0.000 A 
ATOM      5  C   UNL     1       6.555   6.050  16.967  0.00  0.00    +0.000 A 
ATOM      6 CL   UNL     1       7.683   7.344  16.873  0.00  0.00    +0.000 Cl
ATOM      7  C   UNL     1       5.582   6.141  17.968  0.00  0.00    +0.000 A 
ENDROOT
BRANCH   1   9
ATOM      8  N   UNL     1       3.098   4.007  19.538  0.00  0.00    +0.000 N 
ATOM      9  C   UNL     1       3.518   5.225  19.057  0.00  0.00    +0.000 C 
ATOM     10  O   UNL     1       3.079   6.299  19.443  0.00  0.00    +0.000 OA
ATOM     11  H   UNL     1       3.601   3.159  19.299  0.00  0.00    +0.000 HD
BRANCH   8  12
ATOM     12  C   UNL     1       2.029   3.908  20.523  0.00  0.00    +0.000 C 
BRANCH  12  14
ATOM     13  C   UNL     1       0.691   2.501  18.839  0.00  0.00    +0.000 C 
ATOM     14  C   UNL     1       0.668   3.646  19.851  0.00  0.00    +0.000 C 
ENDBRANCH  12  14
BRANCH  12  15
ATOM     15  C   UNL     1       2.334   2.866  21.516  0.00  0.00    +0.000 C 
ATOM     16  N   UNL     1       2.536   1.998  22.274  0.00  0.00    +0.000 NA
ENDBRANCH  12  15
ENDBRANCH   8  12
ENDBRANCH   1   9
BRANCH   4  17
ATOM     17  O   UNL     1       7.520   4.747  15.154  0.00  0.00    +0.000 OA
BRANCH  17  18
ATOM     18  C   UNL     1       7.111   5.090  13.803  0.00  0.00    +0.000 C 
ATOM     19  C   UNL     1       8.266   5.565  12.911  0.00  0.00    +0.000 C 
ATOM     20  C   UNL     1       6.512   3.831  13.158  0.00  0.00    +0.000 C 
ENDBRANCH  17  18
ENDBRANCH   4  17
TORSDOF 6
ENDMDL
