MODEL 1
REMARK VINA RESULT:      -6.9      0.000      0.000
REMARK  Name = 
REMARK  10 active torsions:
REMARK  status: ('A' for Active; 'I' for Inactive)
REMARK    1  A    between atoms: C_1  and  C_2
REMARK    2  A    between atoms: C_2  and  O_4
REMARK    3  A    between atoms: O_4  and  C_5
REMARK    4  A    between atoms: C_5  and  C_6
REMARK    5  A    between atoms: CA_7  and  C_8
REMARK    6  A    between atoms: C_8  and  OXT_10
REMARK    7  A    between atoms: CA_14  and  N_15
REMARK    8  A    between atoms: C_16  and  C_18
REMARK    9  A    between atoms: C_18  and  C_19
REMARK   10  A    between atoms: C_18  and  C_20
REMARK                            x       y       z     vdW  Elec       q    Type
REMARK                         _______ _______ _______ _____ _____    ______ ____
ROOT
ATOM      1  C   UNL     1       4.218   4.521  17.471  0.00  0.00    +0.000 C 
ATOM      2  CA  UNL     1       3.626   4.034  18.597  0.00  0.00    +0.000 C 
ATOM      3  N   UNL     1       2.691   4.790  19.246  0.00  0.00    +0.000 N 
ATOM      4  C   UNL     1       2.364   5.024  20.536  0.00  0.00    +0.000 C 
ATOM      5  O   UNL     1       2.764   4.506  21.554  0.00  0.00    +0.000 OA
ATOM      6  CA  UNL     1       1.434   6.189  20.126  0.00  0.00    +0.000 C 
ATOM      7  C   UNL     1       2.086   6.012  18.720  0.00  0.00    +0.000 C 
ATOM      8  S   UNL     1       3.455   7.109  18.263  0.00  0.00    +0.000 S 
ATOM      9  C   UNL     1       4.053   5.959  16.990  0.00  0.00    +0.000 C 
ENDROOT
BRANCH   6  10
ATOM     10  N   UNL     1       1.613   7.464  20.856  0.00  0.00    +0.000 N 
ATOM     11  C   UNL     1       0.524   8.116  21.393  0.00  0.00    +0.000 C 
ATOM     12  O   UNL     1      -0.623   7.705  21.214  0.00  0.00    +0.000 OA
ATOM     13  H   UNL     1       2.534   7.739  21.179  0.00  0.00    +0.000 HD
BRANCH  11  14
ATOM     14  C   UNL     1       0.821   9.405  22.153  0.00  0.00    +0.000 C 
ATOM     15  C   UNL     1       0.140   9.370  23.524  0.00  0.00    +0.000 C 
BRANCH  14  16
ATOM     16  C   UNL     1       0.526  10.664  21.347  0.00  0.00    +0.000 A 
ATOM     17  C   UNL     1      -0.215  11.702  21.935  0.00  0.00    +0.000 A 
ATOM     18  C   UNL     1      -0.575  12.834  21.197  0.00  0.00    +0.000 A 
ATOM     19  C   UNL     1      -0.186  12.951  19.865  0.00  0.00    +0.000 A 
ATOM     20  C   UNL     1       0.577  11.948  19.276  0.00  0.00    +0.000 A 
ATOM     21  C   UNL     1       0.935  10.818  20.013  0.00  0.00    +0.000 A 
ENDBRANCH  14  16
ENDBRANCH  11  14
ENDBRANCH   6  10
BRANCH   2  22
ATOM     22  C   UNL     1       3.965   2.653  19.134  0.00  0.00    +0.000 C 
ATOM     23  O   UNL     1       3.347   1.640  18.846  0.00  0.00    +0.000 OA
BRANCH  22  24
ATOM     24  OXT UNL     1       5.004   2.568  19.987  0.00  0.00    +0.000 OA
ATOM     25  HXT UNL     1       5.437   1.694  20.094  0.00  0.00    +0.000 HD
ENDBRANCH  22  24
ENDBRANCH   2  22
BRANCH   1  26
ATOM     26  C   UNL     1       5.154   3.726  16.564  0.00  0.00    +0.000 C 
BRANCH  26  27
ATOM     27  O   UNL     1       6.516   4.191  16.686  0.00  0.00    +0.000 OA
BRANCH  27  29
ATOM     28  C   UNL     1       6.596   4.304  14.345  0.00  0.00    +0.000 C 
ATOM     29  C   UNL     1       6.967   4.946  15.645  0.00  0.00    +0.000 C 
ATOM     30  O   UNL     1       7.627   5.969  15.743  0.00  0.00    +0.000 OA
ENDBRANCH  27  29
ENDBRANCH  26  27
ENDBRANCH   1  26
TORSDOF 8
ENDMDL
MODEL 2
REMARK VINA RESULT:      -6.8      3.888      9.858
REMARK  Name = 
REMARK  10 active torsions:
REMARK  status: ('A' for Active; 'I' for Inactive)
REMARK    1  A    between atoms: C_1  and  C_2
REMARK    2  A    between atoms: C_2  and  O_4
REMARK    3  A    between atoms: O_4  and  C_5
REMARK    4  A    between atoms: C_5  and  C_6
REMARK    5  A    between atoms: CA_7  and  C_8
REMARK    6  A    between atoms: C_8  and  OXT_10
REMARK    7  A    between atoms: CA_14  and  N_15
REMARK    8  A    between atoms: C_16  and  C_18
REMARK    9  A    between atoms: C_18  and  C_19
REMARK   10  A    between atoms: C_18  and  C_20
REMARK                            x       y       z     vdW  Elec       q    Type
REMARK                         _______ _______ _______ _____ _____    ______ ____
ROOT
ATOM      1  C   UNL     1      -0.528  12.909  21.610  0.00  0.00    +0.000 C 
ATOM      2  CA  UNL     1       0.029  12.946  20.368  0.00  0.00    +0.000 C 
ATOM      3  N   UNL     1       0.204  11.780  19.675  0.00  0.00    +0.000 N 
ATOM      4  C   UNL     1       1.150  11.279  18.851  0.00  0.00    +0.000 C 
ATOM      5  O   UNL     1       2.130  11.802  18.370  0.00  0.00    +0.000 OA
ATOM      6  CA  UNL     1       0.505   9.875  18.906  0.00  0.00    +0.000 C 
ATOM      7  C   UNL     1      -0.359  10.486  20.052  0.00  0.00    +0.000 C 
ATOM      8  S   UNL     1       0.147  10.183  21.767  0.00  0.00    +0.000 S 
ATOM      9  C   UNL     1      -0.789  11.616  22.376  0.00  0.00    +0.000 C 
ENDROOT
BRANCH   6  10
ATOM     10  N   UNL     1       1.412   8.744  19.203  0.00  0.00    +0.000 N 
ATOM     11  C   UNL     1       2.171   8.180  18.200  0.00  0.00    +0.000 C 
ATOM     12  O   UNL     1       2.056   8.542  17.028  0.00  0.00    +0.000 OA
ATOM     13  H   UNL     1       1.670   8.538  20.162  0.00  0.00    +0.000 HD
BRANCH  11  14
ATOM     14  C   UNL     1       3.096   7.042  18.617  0.00  0.00    +0.000 C 
ATOM     15  C   UNL     1       4.211   6.870  17.581  0.00  0.00    +0.000 C 
BRANCH  14  16
ATOM     16  C   UNL     1       2.356   5.751  18.949  0.00  0.00    +0.000 A 
ATOM     17  C   UNL     1       2.047   5.457  20.287  0.00  0.00    +0.000 A 
ATOM     18  C   UNL     1       1.444   4.244  20.634  0.00  0.00    +0.000 A 
ATOM     19  C   UNL     1       1.129   3.314  19.646  0.00  0.00    +0.000 A 
ATOM     20  C   UNL     1       1.397   3.603  18.312  0.00  0.00    +0.000 A 
ATOM     21  C   UNL     1       2.000   4.814  17.967  0.00  0.00    +0.000 A 
ENDBRANCH  14  16
ENDBRANCH  11  14
ENDBRANCH   6  10
BRANCH   2  22
ATOM     22  C   UNL     1       0.437  14.260  19.722  0.00  0.00    +0.000 C 
ATOM     23  O   UNL     1       1.480  14.844  19.970  0.00  0.00    +0.000 OA
BRANCH  22  24
ATOM     24  OXT UNL     1      -0.425  14.799  18.839  0.00  0.00    +0.000 OA
ATOM     25  HXT UNL     1      -0.349  15.760  18.655  0.00  0.00    +0.000 HD
ENDBRANCH  22  24
ENDBRANCH   2  22
BRANCH   1  26
ATOM     26  C   UNL     1      -0.923  14.138  22.425  0.00  0.00    +0.000 C 
BRANCH  26  27
ATOM     27  O   UNL     1      -1.331  13.769  23.760  0.00  0.00    +0.000 OA
BRANCH  27  29
ATOM     28  C   UNL     1      -2.947  15.152  24.748  0.00  0.00    +0.000 C 
ATOM     29  C   UNL     1      -1.496  14.809  24.625  0.00  0.00    +0.000 C 
ATOM     30  O   UNL     1      -0.596  15.418  25.183  0.00  0.00    +0.000 OA
ENDBRANCH  27  29
ENDBRANCH  26  27
ENDBRANCH   1  26
TORSDOF 8
ENDMDL
MODEL 3
REMARK VINA RESULT:      -6.7      3.928      9.903
REMARK  Name = 
REMARK  10 active torsions:
REMARK  status: ('A' for Active; 'I' for Inactive)
REMARK    1  A    between atoms: C_1  and  C_2
REMARK    2  A    between atoms: C_2  and  O_4
REMARK    3  A    between atoms: O_4  and  C_5
REMARK    4  A    between atoms: C_5  and  C_6
REMARK    5  A    between atoms: CA_7  and  C_8
REMARK    6  A    between atoms: C_8  and  OXT_10
REMARK    7  A    between atoms: CA_14  and  N_15
REMARK    8  A    between atoms: C_16  and  C_18
REMARK    9  A    between atoms: C_18  and  C_19
REMARK   10  A    between atoms: C_18  and  C_20
REMARK                            x       y       z     vdW  Elec       q    Type
REMARK                         _______ _______ _______ _____ _____    ______ ____
ROOT
ATOM      1  C   UNL     1      -1.026  12.443  22.455  0.00  0.00    +0.000 C 
ATOM      2  CA  UNL     1      -0.377  12.769  21.303  0.00  0.00    +0.000 C 
ATOM      3  N   UNL     1      -0.041  11.782  20.418  0.00  0.00    +0.000 N 
ATOM      4  C   UNL     1       1.010  11.527  19.609  0.00  0.00    +0.000 C 
ATOM      5  O   UNL     1       1.973  12.206  19.336  0.00  0.00    +0.000 OA
ATOM      6  CA  UNL     1       0.493  10.097  19.329  0.00  0.00    +0.000 C 
ATOM      7  C   UNL     1      -0.513  10.401  20.482  0.00  0.00    +0.000 C 
ATOM      8  S   UNL     1      -0.120   9.798  22.147  0.00  0.00    +0.000 S 
ATOM      9  C   UNL     1      -1.229  11.007  22.928  0.00  0.00    +0.000 C 
ENDROOT
BRANCH   6  10
ATOM     10  N   UNL     1       1.473   8.999  19.489  0.00  0.00    +0.000 N 
ATOM     11  C   UNL     1       1.944   8.322  18.384  0.00  0.00    +0.000 C 
ATOM     12  O   UNL     1       1.508   8.554  17.256  0.00  0.00    +0.000 OA
ATOM     13  H   UNL     1       1.986   8.898  20.358  0.00  0.00    +0.000 HD
BRANCH  11  14
ATOM     14  C   UNL     1       2.974   7.231  18.655  0.00  0.00    +0.000 C 
ATOM     15  C   UNL     1       3.978   7.164  17.499  0.00  0.00    +0.000 C 
BRANCH  14  16
ATOM     16  C   UNL     1       2.351   5.886  19.011  0.00  0.00    +0.000 A 
ATOM     17  C   UNL     1       2.070   4.963  17.992  0.00  0.00    +0.000 A 
ATOM     18  C   UNL     1       1.424   3.756  18.274  0.00  0.00    +0.000 A 
ATOM     19  C   UNL     1       1.062   3.448  19.584  0.00  0.00    +0.000 A 
ATOM     20  C   UNL     1       1.363   4.336  20.611  0.00  0.00    +0.000 A 
ATOM     21  C   UNL     1       2.008   5.542  20.328  0.00  0.00    +0.000 A 
ENDBRANCH  14  16
ENDBRANCH  11  14
ENDBRANCH   6  10
BRANCH   2  22
ATOM     22  C   UNL     1      -0.040  14.212  20.966  0.00  0.00    +0.000 C 
ATOM     23  O   UNL     1      -0.782  14.957  20.346  0.00  0.00    +0.000 OA
BRANCH  22  24
ATOM     24  OXT UNL     1       1.159  14.670  21.376  0.00  0.00    +0.000 OA
ATOM     25  HXT UNL     1       1.798  14.955  20.687  0.00  0.00    +0.000 HD
ENDBRANCH  22  24
ENDBRANCH   2  22
BRANCH   1  26
ATOM     26  C   UNL     1      -1.596  13.451  23.450  0.00  0.00    +0.000 C 
BRANCH  26  27
ATOM     27  O   UNL     1      -0.544  14.211  24.083  0.00  0.00    +0.000 OA
BRANCH  27  29
ATOM     28  C   UNL     1      -2.289  15.777  24.053  0.00  0.00    +0.000 C 
ATOM     29  C   UNL     1      -0.845  15.514  24.344  0.00  0.00    +0.000 C 
ATOM     30  O   UNL     1      -0.050  16.367  24.708  0.00  0.00    +0.000 OA
ENDBRANCH  27  29
ENDBRANCH  26  27
ENDBRANCH   1  26
TORSDOF 8
ENDMDL
MODEL 4
REMARK VINA RESULT:      -6.6      3.856      9.985
REMARK  Name = 
REMARK  10 active torsions:
REMARK  status: ('A' for Active; 'I' for Inactive)
REMARK    1  A    between atoms: C_1  and  C_2
REMARK    2  A    between atoms: C_2  and  O_4
REMARK    3  A    between atoms: O_4  and  C_5
REMARK    4  A    between atoms: C_5  and  C_6
REMARK    5  A    between atoms: CA_7  and  C_8
REMARK    6  A    between atoms: C_8  and  OXT_10
REMARK    7  A    between atoms: CA_14  and  N_15
REMARK    8  A    between atoms: C_16  and  C_18
REMARK    9  A    between atoms: C_18  and  C_19
REMARK   10  A    between atoms: C_18  and  C_20
REMARK                            x       y       z     vdW  Elec       q    Type
REMARK                         _______ _______ _______ _____ _____    ______ ____
ROOT
ATOM      1  C   UNL     1      -0.728  12.647  22.225  0.00  0.00    +0.000 C 
ATOM      2  CA  UNL     1      -0.143  12.838  21.010  0.00  0.00    +0.000 C 
ATOM      3  N   UNL     1       0.071  11.765  20.190  0.00  0.00    +0.000 N 
ATOM      4  C   UNL     1       1.046  11.381  19.338  0.00  0.00    +0.000 C 
ATOM      5  O   UNL     1       2.026  11.973  18.947  0.00  0.00    +0.000 OA
ATOM      6  CA  UNL     1       0.427   9.970  19.212  0.00  0.00    +0.000 C 
ATOM      7  C   UNL     1      -0.476  10.427  20.399  0.00  0.00    +0.000 C 
ATOM      8  S   UNL     1      -0.004   9.933  22.078  0.00  0.00    +0.000 S 
ATOM      9  C   UNL     1      -0.982  11.268  22.828  0.00  0.00    +0.000 C 
ENDROOT
BRANCH   6  10
ATOM     10  N   UNL     1       1.349   8.827  19.397  0.00  0.00    +0.000 N 
ATOM     11  C   UNL     1       2.099   8.360  18.339  0.00  0.00    +0.000 C 
ATOM     12  O   UNL     1       1.965   8.822  17.205  0.00  0.00    +0.000 OA
ATOM     13  H   UNL     1       1.622   8.541  20.331  0.00  0.00    +0.000 HD
BRANCH  11  14
ATOM     14  C   UNL     1       3.041   7.200  18.643  0.00  0.00    +0.000 C 
ATOM     15  C   UNL     1       4.079   7.064  17.525  0.00  0.00    +0.000 C 
BRANCH  14  16
ATOM     16  C   UNL     1       2.315   5.901  18.974  0.00  0.00    +0.000 A 
ATOM     17  C   UNL     1       1.996   5.608  20.309  0.00  0.00    +0.000 A 
ATOM     18  C   UNL     1       1.405   4.389  20.655  0.00  0.00    +0.000 A 
ATOM     19  C   UNL     1       1.111   3.452  19.668  0.00  0.00    +0.000 A 
ATOM     20  C   UNL     1       1.388   3.739  18.336  0.00  0.00    +0.000 A 
ATOM     21  C   UNL     1       1.979   4.956  17.991  0.00  0.00    +0.000 A 
ENDBRANCH  14  16
ENDBRANCH  11  14
ENDBRANCH   6  10
BRANCH   2  22
ATOM     22  C   UNL     1       0.254  14.226  20.534  0.00  0.00    +0.000 C 
ATOM     23  O   UNL     1      -0.520  15.014  20.013  0.00  0.00    +0.000 OA
BRANCH  22  24
ATOM     24  OXT UNL     1       1.544  14.579  20.694  0.00  0.00    +0.000 OA
ATOM     25  HXT UNL     1       2.155  13.916  21.080  0.00  0.00    +0.000 HD
ENDBRANCH  22  24
ENDBRANCH   2  22
BRANCH   1  26
ATOM     26  C   UNL     1      -1.167  13.764  23.168  0.00  0.00    +0.000 C 
BRANCH  26  27
ATOM     27  O   UNL     1      -2.580  14.028  23.042  0.00  0.00    +0.000 OA
BRANCH  27  29
ATOM     28  C   UNL     1      -3.569  16.070  23.635  0.00  0.00    +0.000 C 
ATOM     29  C   UNL     1      -3.140  14.708  24.082  0.00  0.00    +0.000 C 
ATOM     30  O   UNL     1      -3.233  14.299  25.229  0.00  0.00    +0.000 OA
ENDBRANCH  27  29
ENDBRANCH  26  27
ENDBRANCH   1  26
TORSDOF 8
ENDMDL
MODEL 5
REMARK VINA RESULT:      -6.6      0.463      1.027
REMARK  Name = 
REMARK  10 active torsions:
REMARK  status: ('A' for Active; 'I' for Inactive)
REMARK    1  A    between atoms: C_1  and  C_2
REMARK    2  A    between atoms: C_2  and  O_4
REMARK    3  A    between atoms: O_4  and  C_5
REMARK    4  A    between atoms: C_5  and  C_6
REMARK    5  A    between atoms: CA_7  and  C_8
REMARK    6  A    between atoms: C_8  and  OXT_10
REMARK    7  A    between atoms: CA_14  and  N_15
REMARK    8  A    between atoms: C_16  and  C_18
REMARK    9  A    between atoms: C_18  and  C_19
REMARK   10  A    between atoms: C_18  and  C_20
REMARK                            x       y       z     vdW  Elec       q    Type
REMARK                         _______ _______ _______ _____ _____    ______ ____
ROOT
ATOM      1  C   UNL     1       4.298   4.397  17.612  0.00  0.00    +0.000 C 
ATOM      2  CA  UNL     1       3.641   3.938  18.713  0.00  0.00    +0.000 C 
ATOM      3  N   UNL     1       2.695   4.726  19.308  0.00  0.00    +0.000 N 
ATOM      4  C   UNL     1       2.312   4.983  20.578  0.00  0.00    +0.000 C 
ATOM      5  O   UNL     1       2.649   4.468  21.619  0.00  0.00    +0.000 OA
ATOM      6  CA  UNL     1       1.433   6.166  20.110  0.00  0.00    +0.000 C 
ATOM      7  C   UNL     1       2.148   5.956  18.740  0.00  0.00    +0.000 C 
ATOM      8  S   UNL     1       3.566   7.013  18.338  0.00  0.00    +0.000 S 
ATOM      9  C   UNL     1       4.194   5.833  17.108  0.00  0.00    +0.000 C 
ENDROOT
BRANCH   6  10
ATOM     10  N   UNL     1       1.610   7.445  20.835  0.00  0.00    +0.000 N 
ATOM     11  C   UNL     1       0.519   8.101  21.364  0.00  0.00    +0.000 C 
ATOM     12  O   UNL     1      -0.627   7.688  21.183  0.00  0.00    +0.000 OA
ATOM     13  H   UNL     1       2.530   7.722  21.160  0.00  0.00    +0.000 HD
BRANCH  11  14
ATOM     14  C   UNL     1       0.814   9.393  22.118  0.00  0.00    +0.000 C 
ATOM     15  C   UNL     1       0.145   9.356  23.496  0.00  0.00    +0.000 C 
BRANCH  14  16
ATOM     16  C   UNL     1       0.501  10.648  21.313  0.00  0.00    +0.000 A 
ATOM     17  C   UNL     1       0.900  10.724  19.968  0.00  0.00    +0.000 A 
ATOM     18  C   UNL     1       0.704  11.892  19.226  0.00  0.00    +0.000 A 
ATOM     19  C   UNL     1       0.091  12.997  19.813  0.00  0.00    +0.000 A 
ATOM     20  C   UNL     1      -0.341  12.928  21.133  0.00  0.00    +0.000 A 
ATOM     21  C   UNL     1      -0.143  11.762  21.874  0.00  0.00    +0.000 A 
ENDBRANCH  14  16
ENDBRANCH  11  14
ENDBRANCH   6  10
BRANCH   2  22
ATOM     22  C   UNL     1       3.917   2.556  19.281  0.00  0.00    +0.000 C 
ATOM     23  O   UNL     1       3.369   1.537  18.889  0.00  0.00    +0.000 OA
BRANCH  22  24
ATOM     24  OXT UNL     1       4.813   2.476  20.283  0.00  0.00    +0.000 OA
ATOM     25  HXT UNL     1       5.765   2.533  20.051  0.00  0.00    +0.000 HD
ENDBRANCH  22  24
ENDBRANCH   2  22
BRANCH   1  26
ATOM     26  C   UNL     1       5.257   3.568  16.761  0.00  0.00    +0.000 C 
BRANCH  26  27
ATOM     27  O   UNL     1       5.578   4.245  15.527  0.00  0.00    +0.000 OA
BRANCH  27  29
ATOM     28  C   UNL     1       7.163   4.874  13.917  0.00  0.00    +0.000 C 
ATOM     29  C   UNL     1       6.896   4.539  15.351  0.00  0.00    +0.000 C 
ATOM     30  O   UNL     1       7.757   4.486  16.216  0.00  0.00    +0.000 OA
ENDBRANCH  27  29
ENDBRANCH  26  27
ENDBRANCH   1  26
TORSDOF 8
ENDMDL
MODEL 6
REMARK VINA RESULT:      -6.6      0.778      1.406
REMARK  Name = 
REMARK  10 active torsions:
REMARK  status: ('A' for Active; 'I' for Inactive)
REMARK    1  A    between atoms: C_1  and  C_2
REMARK    2  A    between atoms: C_2  and  O_4
REMARK    3  A    between atoms: O_4  and  C_5
REMARK    4  A    between atoms: C_5  and  C_6
REMARK    5  A    between atoms: CA_7  and  C_8
REMARK    6  A    between atoms: C_8  and  OXT_10
REMARK    7  A    between atoms: CA_14  and  N_15
REMARK    8  A    between atoms: C_16  and  C_18
REMARK    9  A    between atoms: C_18  and  C_19
REMARK   10  A    between atoms: C_18  and  C_20
REMARK                            x       y       z     vdW  Elec       q    Type
REMARK                         _______ _______ _______ _____ _____    ______ ____
ROOT
ATOM      1  C   UNL     1       4.367   4.917  17.331  0.00  0.00    +0.000 C 
ATOM      2  CA  UNL     1       3.785   4.378  18.438  0.00  0.00    +0.000 C 
ATOM      3  N   UNL     1       2.819   5.083  19.101  0.00  0.00    +0.000 N 
ATOM      4  C   UNL     1       2.475   5.268  20.394  0.00  0.00    +0.000 C 
ATOM      5  O   UNL     1       2.885   4.737  21.400  0.00  0.00    +0.000 OA
ATOM      6  CA  UNL     1       1.506   6.411  20.008  0.00  0.00    +0.000 C 
ATOM      7  C   UNL     1       2.175   6.297  18.604  0.00  0.00    +0.000 C 
ATOM      8  S   UNL     1       3.507   7.454  18.188  0.00  0.00    +0.000 S 
ATOM      9  C   UNL     1       4.154   6.362  16.888  0.00  0.00    +0.000 C 
ENDROOT
BRANCH   6  10
ATOM     10  N   UNL     1       1.635   7.670  20.775  0.00  0.00    +0.000 N 
ATOM     11  C   UNL     1       0.520   8.266  21.326  0.00  0.00    +0.000 C 
ATOM     12  O   UNL     1      -0.610   7.816  21.131  0.00  0.00    +0.000 OA
ATOM     13  H   UNL     1       2.544   7.971  21.109  0.00  0.00    +0.000 HD
BRANCH  11  14
ATOM     14  C   UNL     1       0.766   9.542  22.123  0.00  0.00    +0.000 C 
ATOM     15  C   UNL     1       0.114   9.428  23.504  0.00  0.00    +0.000 C 
BRANCH  14  16
ATOM     16  C   UNL     1       0.390  10.810  21.365  0.00  0.00    +0.000 A 
ATOM     17  C   UNL     1       0.953  11.053  20.102  0.00  0.00    +0.000 A 
ATOM     18  C   UNL     1       0.695  12.244  19.418  0.00  0.00    +0.000 A 
ATOM     19  C   UNL     1      -0.142  13.205  19.981  0.00  0.00    +0.000 A 
ATOM     20  C   UNL     1      -0.736  12.966  21.216  0.00  0.00    +0.000 A 
ATOM     21  C   UNL     1      -0.476  11.777  21.899  0.00  0.00    +0.000 A 
ENDBRANCH  14  16
ENDBRANCH  11  14
ENDBRANCH   6  10
BRANCH   2  22
ATOM     22  C   UNL     1       4.169   2.996  18.939  0.00  0.00    +0.000 C 
ATOM     23  O   UNL     1       3.548   1.979  18.673  0.00  0.00    +0.000 OA
BRANCH  22  24
ATOM     24  OXT UNL     1       5.254   2.914  19.733  0.00  0.00    +0.000 OA
ATOM     25  HXT UNL     1       6.136   3.021  19.314  0.00  0.00    +0.000 HD
ENDBRANCH  22  24
ENDBRANCH   2  22
BRANCH   1  26
ATOM     26  C   UNL     1       5.338   4.182  16.410  0.00  0.00    +0.000 C 
BRANCH  26  27
ATOM     27  O   UNL     1       6.580   4.906  16.278  0.00  0.00    +0.000 OA
BRANCH  27  29
ATOM     28  C   UNL     1       7.603   6.579  17.564  0.00  0.00    +0.000 C 
ATOM     29  C   UNL     1       7.249   5.130  17.444  0.00  0.00    +0.000 C 
ATOM     30  O   UNL     1       7.569   4.274  18.255  0.00  0.00    +0.000 OA
ENDBRANCH  27  29
ENDBRANCH  26  27
ENDBRANCH   1  26
TORSDOF 8
ENDMDL
MODEL 7
REMARK VINA RESULT:      -6.6      3.799      9.860
REMARK  Name = 
REMARK  10 active torsions:
REMARK  status: ('A' for Active; 'I' for Inactive)
REMARK    1  A    between atoms: C_1  and  C_2
REMARK    2  A    between atoms: C_2  and  O_4
REMARK    3  A    between atoms: O_4  and  C_5
REMARK    4  A    between atoms: C_5  and  C_6
REMARK    5  A    between atoms: CA_7  and  C_8
REMARK    6  A    between atoms: C_8  and  OXT_10
REMARK    7  A    between atoms: CA_14  and  N_15
REMARK    8  A    between atoms: C_16  and  C_18
REMARK    9  A    between atoms: C_18  and  C_19
REMARK   10  A    between atoms: C_18  and  C_20
REMARK                            x       y       z     vdW  Elec       q    Type
REMARK                         _______ _______ _______ _____ _____    ______ ____
ROOT
ATOM      1  C   UNL     1      -0.640  12.717  21.910  0.00  0.00    +0.000 C 
ATOM      2  CA  UNL     1      -0.089  12.833  20.670  0.00  0.00    +0.000 C 
ATOM      3  N   UNL     1       0.113  11.710  19.916  0.00  0.00    +0.000 N 
ATOM      4  C   UNL     1       1.069  11.278  19.065  0.00  0.00    +0.000 C 
ATOM      5  O   UNL     1       2.033  11.850  18.610  0.00  0.00    +0.000 OA
ATOM      6  CA  UNL     1       0.460   9.857  19.048  0.00  0.00    +0.000 C 
ATOM      7  C   UNL     1      -0.415  10.384  20.227  0.00  0.00    +0.000 C 
ATOM      8  S   UNL     1       0.106  10.005  21.922  0.00  0.00    +0.000 S 
ATOM      9  C   UNL     1      -0.865  11.379  22.608  0.00  0.00    +0.000 C 
ENDROOT
BRANCH   6  10
ATOM     10  N   UNL     1       1.398   8.736  19.283  0.00  0.00    +0.000 N 
ATOM     11  C   UNL     1       2.207   8.281  18.263  0.00  0.00    +0.000 C 
ATOM     12  O   UNL     1       2.116   8.734  17.122  0.00  0.00    +0.000 OA
ATOM     13  H   UNL     1       1.634   8.460  20.230  0.00  0.00    +0.000 HD
BRANCH  11  14
ATOM     14  C   UNL     1       3.159   7.144  18.619  0.00  0.00    +0.000 C 
ATOM     15  C   UNL     1       4.215   6.986  17.520  0.00  0.00    +0.000 C 
BRANCH  14  16
ATOM     16  C   UNL     1       2.444   5.846  18.979  0.00  0.00    +0.000 A 
ATOM     17  C   UNL     1       2.062   4.962  17.958  0.00  0.00    +0.000 A 
ATOM     18  C   UNL     1       1.332   3.805  18.247  0.00  0.00    +0.000 A 
ATOM     19  C   UNL     1       0.987   3.508  19.564  0.00  0.00    +0.000 A 
ATOM     20  C   UNL     1       1.387   4.356  20.591  0.00  0.00    +0.000 A 
ATOM     21  C   UNL     1       2.115   5.511  20.302  0.00  0.00    +0.000 A 
ENDBRANCH  14  16
ENDBRANCH  11  14
ENDBRANCH   6  10
BRANCH   2  22
ATOM     22  C   UNL     1       0.282  14.189  20.093  0.00  0.00    +0.000 C 
ATOM     23  O   UNL     1       1.323  14.774  20.347  0.00  0.00    +0.000 OA
BRANCH  22  24
ATOM     24  OXT UNL     1      -0.612  14.766  19.268  0.00  0.00    +0.000 OA
ATOM     25  HXT UNL     1      -0.320  14.980  18.356  0.00  0.00    +0.000 HD
ENDBRANCH  22  24
ENDBRANCH   2  22
BRANCH   1  26
ATOM     26  C   UNL     1      -1.064  13.890  22.789  0.00  0.00    +0.000 C 
BRANCH  26  27
ATOM     27  O   UNL     1      -2.076  13.492  23.739  0.00  0.00    +0.000 OA
BRANCH  27  29
ATOM     28  C   UNL     1      -3.662  15.218  23.801  0.00  0.00    +0.000 C 
ATOM     29  C   UNL     1      -3.355  13.810  23.394  0.00  0.00    +0.000 C 
ATOM     30  O   UNL     1      -4.162  13.052  22.879  0.00  0.00    +0.000 OA
ENDBRANCH  27  29
ENDBRANCH  26  27
ENDBRANCH   1  26
TORSDOF 8
ENDMDL
MODEL 8
REMARK VINA RESULT:      -6.6      1.009      1.136
REMARK  Name = 
REMARK  10 active torsions:
REMARK  status: ('A' for Active; 'I' for Inactive)
REMARK    1  A    between atoms: C_1  and  C_2
REMARK    2  A    between atoms: C_2  and  O_4
REMARK    3  A    between atoms: O_4  and  C_5
REMARK    4  A    between atoms: C_5  and  C_6
REMARK    5  A    between atoms: CA_7  and  C_8
REMARK    6  A    between atoms: C_8  and  OXT_10
REMARK    7  A    between atoms: CA_14  and  N_15
REMARK    8  A    between atoms: C_16  and  C_18
REMARK    9  A    between atoms: C_18  and  C_19
REMARK   10  A    between atoms: C_18  and  C_20
REMARK                            x       y       z     vdW  Elec       q    Type
REMARK                         _______ _______ _______ _____ _____    ______ ____
ROOT
ATOM      1  C   UNL     1       4.914   4.924  17.180  0.00  0.00    +0.000 C 
ATOM      2  CA  UNL     1       4.115   4.463  18.182  0.00  0.00    +0.000 C 
ATOM      3  N   UNL     1       3.092   5.246  18.640  0.00  0.00    +0.000 N 
ATOM      4  C   UNL     1       2.538   5.502  19.846  0.00  0.00    +0.000 C 
ATOM      5  O   UNL     1       2.732   4.991  20.924  0.00  0.00    +0.000 OA
ATOM      6  CA  UNL     1       1.724   6.679  19.259  0.00  0.00    +0.000 C 
ATOM      7  C   UNL     1       2.621   6.472  18.000  0.00  0.00    +0.000 C 
ATOM      8  S   UNL     1       4.074   7.537  17.793  0.00  0.00    +0.000 S 
ATOM      9  C   UNL     1       4.871   6.359  16.663  0.00  0.00    +0.000 C 
ENDROOT
BRANCH   6  10
ATOM     10  N   UNL     1       1.793   7.960  19.999  0.00  0.00    +0.000 N 
ATOM     11  C   UNL     1       0.853   8.258  20.962  0.00  0.00    +0.000 C 
ATOM     12  O   UNL     1      -0.105   7.514  21.175  0.00  0.00    +0.000 OA
ATOM     13  H   UNL     1       2.646   8.508  19.987  0.00  0.00    +0.000 HD
BRANCH  11  14
ATOM     14  C   UNL     1       1.033   9.588  21.686  0.00  0.00    +0.000 C 
ATOM     15  C   UNL     1       0.387   9.517  23.074  0.00  0.00    +0.000 C 
BRANCH  14  16
ATOM     16  C   UNL     1       0.592  10.791  20.861  0.00  0.00    +0.000 A 
ATOM     17  C   UNL     1      -0.573  10.706  20.083  0.00  0.00    +0.000 A 
ATOM     18  C   UNL     1      -0.960  11.760  19.250  0.00  0.00    +0.000 A 
ATOM     19  C   UNL     1      -0.193  12.922  19.196  0.00  0.00    +0.000 A 
ATOM     20  C   UNL     1       0.945  13.038  19.986  0.00  0.00    +0.000 A 
ATOM     21  C   UNL     1       1.331  11.984  20.816  0.00  0.00    +0.000 A 
ENDBRANCH  14  16
ENDBRANCH  11  14
ENDBRANCH   6  10
BRANCH   2  22
ATOM     22  C   UNL     1       4.319   3.083  18.785  0.00  0.00    +0.000 C 
ATOM     23  O   UNL     1       3.625   2.114  18.518  0.00  0.00    +0.000 OA
BRANCH  22  24
ATOM     24  OXT UNL     1       5.323   2.948  19.673  0.00  0.00    +0.000 OA
ATOM     25  HXT UNL     1       6.242   2.945  19.327  0.00  0.00    +0.000 HD
ENDBRANCH  22  24
ENDBRANCH   2  22
BRANCH   1  26
ATOM     26  C   UNL     1       5.985   4.100  16.469  0.00  0.00    +0.000 C 
BRANCH  26  27
ATOM     27  O   UNL     1       5.684   3.955  15.064  0.00  0.00    +0.000 OA
BRANCH  27  29
ATOM     28  C   UNL     1       6.446   3.873  12.848  0.00  0.00    +0.000 C 
ATOM     29  C   UNL     1       6.623   4.457  14.215  0.00  0.00    +0.000 C 
ATOM     30  O   UNL     1       7.520   5.228  14.522  0.00  0.00    +0.000 OA
ENDBRANCH  27  29
ENDBRANCH  26  27
ENDBRANCH   1  26
TORSDOF 8
ENDMDL
MODEL 9
REMARK VINA RESULT:      -6.6      1.036      1.546
REMARK  Name = 
REMARK  10 active torsions:
REMARK  status: ('A' for Active; 'I' for Inactive)
REMARK    1  A    between atoms: C_1  and  C_2
REMARK    2  A    between atoms: C_2  and  O_4
REMARK    3  A    between atoms: O_4  and  C_5
REMARK    4  A    between atoms: C_5  and  C_6
REMARK    5  A    between atoms: CA_7  and  C_8
REMARK    6  A    between atoms: C_8  and  OXT_10
REMARK    7  A    between atoms: CA_14  and  N_15
REMARK    8  A    between atoms: C_16  and  C_18
REMARK    9  A    between atoms: C_18  and  C_19
REMARK   10  A    between atoms: C_18  and  C_20
REMARK                            x       y       z     vdW  Elec       q    Type
REMARK                         _______ _______ _______ _____ _____    ______ ____
ROOT
ATOM      1  C   UNL     1       4.565   4.764  17.134  0.00  0.00    +0.000 C 
ATOM      2  CA  UNL     1       3.856   4.243  18.174  0.00  0.00    +0.000 C 
ATOM      3  N   UNL     1       2.934   5.021  18.817  0.00  0.00    +0.000 N 
ATOM      4  C   UNL     1       2.531   5.182  20.096  0.00  0.00    +0.000 C 
ATOM      5  O   UNL     1       2.814   4.559  21.094  0.00  0.00    +0.000 OA
ATOM      6  CA  UNL     1       1.723   6.446  19.719  0.00  0.00    +0.000 C 
ATOM      7  C   UNL     1       2.464   6.324  18.352  0.00  0.00    +0.000 C 
ATOM      8  S   UNL     1       3.942   7.339  18.079  0.00  0.00    +0.000 S 
ATOM      9  C   UNL     1       4.544   6.243  16.761  0.00  0.00    +0.000 C 
ENDROOT
BRANCH   6  10
ATOM     10  N   UNL     1       1.943   7.644  20.560  0.00  0.00    +0.000 N 
ATOM     11  C   UNL     1       0.901   8.505  20.830  0.00  0.00    +0.000 C 
ATOM     12  O   UNL     1      -0.209   8.348  20.319  0.00  0.00    +0.000 OA
ATOM     13  H   UNL     1       2.773   7.713  21.139  0.00  0.00    +0.000 HD
BRANCH  11  14
ATOM     14  C   UNL     1       1.226   9.690  21.732  0.00  0.00    +0.000 C 
ATOM     15  C   UNL     1       1.848   9.194  23.041  0.00  0.00    +0.000 C 
BRANCH  14  16
ATOM     16  C   UNL     1       0.051  10.641  21.929  0.00  0.00    +0.000 A 
ATOM     17  C   UNL     1      -0.145  11.694  21.020  0.00  0.00    +0.000 A 
ATOM     18  C   UNL     1      -1.163  12.632  21.219  0.00  0.00    +0.000 A 
ATOM     19  C   UNL     1      -2.008  12.523  22.320  0.00  0.00    +0.000 A 
ATOM     20  C   UNL     1      -1.850  11.467  23.211  0.00  0.00    +0.000 A 
ATOM     21  C   UNL     1      -0.833  10.531  23.014  0.00  0.00    +0.000 A 
ENDBRANCH  14  16
ENDBRANCH  11  14
ENDBRANCH   6  10
BRANCH   2  22
ATOM     22  C   UNL     1       4.049   2.802  18.619  0.00  0.00    +0.000 C 
ATOM     23  O   UNL     1       3.429   1.858  18.157  0.00  0.00    +0.000 OA
BRANCH  22  24
ATOM     24  OXT UNL     1       4.954   2.581  19.592  0.00  0.00    +0.000 OA
ATOM     25  HXT UNL     1       5.895   2.485  19.328  0.00  0.00    +0.000 HD
ENDBRANCH  22  24
ENDBRANCH   2  22
BRANCH   1  26
ATOM     26  C   UNL     1       5.504   3.967  16.232  0.00  0.00    +0.000 C 
BRANCH  26  27
ATOM     27  O   UNL     1       5.344   4.346  14.848  0.00  0.00    +0.000 OA
BRANCH  27  29
ATOM     28  C   UNL     1       6.464   3.772  12.870  0.00  0.00    +0.000 C 
ATOM     29  C   UNL     1       6.505   4.531  14.159  0.00  0.00    +0.000 C 
ATOM     30  O   UNL     1       7.468   5.173  14.549  0.00  0.00    +0.000 OA
ENDBRANCH  27  29
ENDBRANCH  26  27
ENDBRANCH   1  26
TORSDOF 8
ENDMDL
