MODEL 1
REMARK VINA RESULT:      -7.9      0.000      0.000
REMARK  Name = 
REMARK  7 active torsions:
REMARK  status: ('A' for Active; 'I' for Inactive)
REMARK    1  A    between atoms: C_1  and  C_2
REMARK    2  A    between atoms: C_2  and  C_3
REMARK    3  A    between atoms: C_2  and  C_6
REMARK    4  A    between atoms: C_3  and  O_5
REMARK    5  A    between atoms: N_17  and  S_18
REMARK    6  A    between atoms: S_18  and  C_21
REMARK    7  A    between atoms: C_24  and  N_25
REMARK                            x       y       z     vdW  Elec       q    Type
REMARK                         _______ _______ _______ _____ _____    ______ ____
ROOT
ATOM      1  C   UNL     1       2.895   4.602  19.492  0.00  0.00    +0.000 A 
ATOM      2  C   UNL     1       2.139   4.222  18.380  0.00  0.00    +0.000 A 
ATOM      3  C   UNL     1       2.733   4.090  17.124  0.00  0.00    +0.000 A 
ATOM      4  C   UNL     1       4.112   4.337  16.966  0.00  0.00    +0.000 A 
ATOM      5  C   UNL     1       4.982   4.273  15.836  0.00  0.00    +0.000 A 
ATOM      6  C   UNL     1       4.760   3.948  14.477  0.00  0.00    +0.000 A 
ATOM      7  C   UNL     1       5.830   3.959  13.585  0.00  0.00    +0.000 A 
ATOM      8 CL   UNL     1       5.554   3.590  11.927  0.00  0.00    +0.000 Cl
ATOM      9  C   UNL     1       7.111   4.267  14.021  0.00  0.00    +0.000 A 
ATOM     10  C   UNL     1       7.357   4.588  15.362  0.00  0.00    +0.000 A 
ATOM     11  C   UNL     1       6.275   4.602  16.264  0.00  0.00    +0.000 A 
ATOM     12  N   UNL     1       6.166   4.917  17.612  0.00  0.00    +0.000 N 
ATOM     13  C   UNL     1       4.868   4.736  18.074  0.00  0.00    +0.000 A 
ATOM     14  C   UNL     1       4.260   4.896  19.335  0.00  0.00    +0.000 A 
ENDROOT
BRANCH  12  15
ATOM     15  S   UNL     1       7.511   5.265  18.625  0.00  0.00    +0.000 S 
ATOM     16  O   UNL     1       7.064   5.019  19.986  0.00  0.00    +0.000 OA
ATOM     17  O   UNL     1       8.664   4.577  18.083  0.00  0.00    +0.000 OA
BRANCH  15  18
ATOM     18  C   UNL     1       7.797   7.011  18.433  0.00  0.00    +0.000 A 
ATOM     19  C   UNL     1       7.090   7.725  17.457  0.00  0.00    +0.000 A 
ATOM     20  C   UNL     1       7.365   9.081  17.253  0.00  0.00    +0.000 A 
ATOM     21  C   UNL     1       8.341   9.716  18.034  0.00  0.00    +0.000 A 
ATOM     22  C   UNL     1       8.983   9.023  19.072  0.00  0.00    +0.000 A 
ATOM     23  C   UNL     1       8.705   7.668  19.275  0.00  0.00    +0.000 A 
BRANCH  21  24
ATOM     24  N   UNL     1       8.732  11.101  17.730  0.00  0.00    +0.000 N 
ATOM     25  O   UNL     1       7.858  11.860  17.287  0.00  0.00    +0.000 OA
ATOM     26  O   UNL     1       9.917  11.414  17.907  0.00  0.00    +0.000 OA
ENDBRANCH  21  24
ENDBRANCH  15  18
ENDBRANCH  12  15
BRANCH   1  28
ATOM     27  C   UNL     1       1.126   5.747  20.859  0.00  0.00    +0.000 C 
ATOM     28  C   UNL     1       2.262   4.725  20.873  0.00  0.00    +0.000 C 
BRANCH  28  29
ATOM     29  C   UNL     1       1.816   3.386  21.454  0.00  0.00    +0.000 C 
ATOM     30  O   UNL     1       2.456   2.716  22.252  0.00  0.00    +0.000 OA
BRANCH  29  31
ATOM     31  O   UNL     1       0.621   2.959  20.968  0.00  0.00    +0.000 OA
ATOM     32  H   UNL     1       0.684   2.129  20.454  0.00  0.00    +0.000 HD
ENDBRANCH  29  31
ENDBRANCH  28  29
ENDBRANCH   1  28
TORSDOF 6
ENDMDL
MODEL 2
REMARK VINA RESULT:      -7.7      0.548      1.040
REMARK  Name = 
REMARK  7 active torsions:
REMARK  status: ('A' for Active; 'I' for Inactive)
REMARK    1  A    between atoms: C_1  and  C_2
REMARK    2  A    between atoms: C_2  and  C_3
REMARK    3  A    between atoms: C_2  and  C_6
REMARK    4  A    between atoms: C_3  and  O_5
REMARK    5  A    between atoms: N_17  and  S_18
REMARK    6  A    between atoms: S_18  and  C_21
REMARK    7  A    between atoms: C_24  and  N_25
REMARK                            x       y       z     vdW  Elec       q    Type
REMARK                         _______ _______ _______ _____ _____    ______ ____
ROOT
ATOM      1  C   UNL     1       2.884   4.146  19.408  0.00  0.00    +0.000 A 
ATOM      2  C   UNL     1       2.207   3.747  18.252  0.00  0.00    +0.000 A 
ATOM      3  C   UNL     1       2.852   3.733  17.015  0.00  0.00    +0.000 A 
ATOM      4  C   UNL     1       4.205   4.119  16.920  0.00  0.00    +0.000 A 
ATOM      5  C   UNL     1       5.113   4.193  15.822  0.00  0.00    +0.000 A 
ATOM      6  C   UNL     1       4.970   3.912  14.442  0.00  0.00    +0.000 A 
ATOM      7  C   UNL     1       6.063   4.069  13.592  0.00  0.00    +0.000 A 
ATOM      8 CL   UNL     1       5.880   3.754  11.911  0.00  0.00    +0.000 Cl
ATOM      9  C   UNL     1       7.291   4.480  14.089  0.00  0.00    +0.000 A 
ATOM     10  C   UNL     1       7.460   4.759  15.451  0.00  0.00    +0.000 A 
ATOM     11  C   UNL     1       6.353   4.626  16.312  0.00  0.00    +0.000 A 
ATOM     12  N   UNL     1       6.168   4.865  17.667  0.00  0.00    +0.000 N 
ATOM     13  C   UNL     1       4.880   4.538  18.072  0.00  0.00    +0.000 A 
ATOM     14  C   UNL     1       4.218   4.578  19.315  0.00  0.00    +0.000 A 
ENDROOT
BRANCH  12  15
ATOM     15  S   UNL     1       7.438   5.294  18.745  0.00  0.00    +0.000 S 
ATOM     16  O   UNL     1       6.881   5.197  20.084  0.00  0.00    +0.000 OA
ATOM     17  O   UNL     1       8.613   4.536  18.369  0.00  0.00    +0.000 OA
BRANCH  15  18
ATOM     18  C   UNL     1       7.781   7.006  18.400  0.00  0.00    +0.000 A 
ATOM     19  C   UNL     1       8.735   7.689  19.165  0.00  0.00    +0.000 A 
ATOM     20  C   UNL     1       8.955   9.053  18.946  0.00  0.00    +0.000 A 
ATOM     21  C   UNL     1       8.223   9.723  17.956  0.00  0.00    +0.000 A 
ATOM     22  C   UNL     1       7.334   9.018  17.129  0.00  0.00    +0.000 A 
ATOM     23  C   UNL     1       7.118   7.655  17.349  0.00  0.00    +0.000 A 
BRANCH  21  24
ATOM     24  N   UNL     1       8.349  11.181  17.817  0.00  0.00    +0.000 N 
ATOM     25  O   UNL     1       7.505  11.767  17.123  0.00  0.00    +0.000 OA
ATOM     26  O   UNL     1       9.307  11.730  18.377  0.00  0.00    +0.000 OA
ENDBRANCH  21  24
ENDBRANCH  15  18
ENDBRANCH  12  15
BRANCH   1  28
ATOM     27  C   UNL     1       0.706   4.444  20.622  0.00  0.00    +0.000 C 
ATOM     28  C   UNL     1       2.196   4.141  20.768  0.00  0.00    +0.000 C 
BRANCH  28  29
ATOM     29  C   UNL     1       2.443   2.864  21.565  0.00  0.00    +0.000 C 
ATOM     30  O   UNL     1       3.471   2.203  21.537  0.00  0.00    +0.000 OA
BRANCH  29  31
ATOM     31  O   UNL     1       1.374   2.479  22.310  0.00  0.00    +0.000 OA
ATOM     32  H   UNL     1       0.621   2.157  21.774  0.00  0.00    +0.000 HD
ENDBRANCH  29  31
ENDBRANCH  28  29
ENDBRANCH   1  28
TORSDOF 6
ENDMDL
MODEL 3
REMARK VINA RESULT:      -7.5      8.683     11.050
REMARK  Name = 
REMARK  7 active torsions:
REMARK  status: ('A' for Active; 'I' for Inactive)
REMARK    1  A    between atoms: C_1  and  C_2
REMARK    2  A    between atoms: C_2  and  C_3
REMARK    3  A    between atoms: C_2  and  C_6
REMARK    4  A    between atoms: C_3  and  O_5
REMARK    5  A    between atoms: N_17  and  S_18
REMARK    6  A    between atoms: S_18  and  C_21
REMARK    7  A    between atoms: C_24  and  N_25
REMARK                            x       y       z     vdW  Elec       q    Type
REMARK                         _______ _______ _______ _____ _____    ______ ____
ROOT
ATOM      1  C   UNL     1      -5.726  12.708  21.765  0.00  0.00    +0.000 A 
ATOM      2  C   UNL     1      -6.647  12.176  20.860  0.00  0.00    +0.000 A 
ATOM      3  C   UNL     1      -6.240  11.744  19.597  0.00  0.00    +0.000 A 
ATOM      4  C   UNL     1      -4.884  11.837  19.222  0.00  0.00    +0.000 A 
ATOM      5  C   UNL     1      -4.183  11.472  18.034  0.00  0.00    +0.000 A 
ATOM      6  C   UNL     1      -4.608  10.899  16.812  0.00  0.00    +0.000 A 
ATOM      7  C   UNL     1      -3.672  10.640  15.813  0.00  0.00    +0.000 A 
ATOM      8 CL   UNL     1      -4.194   9.968  14.317  0.00  0.00    +0.000 Cl
ATOM      9  C   UNL     1      -2.328  10.921  16.013  0.00  0.00    +0.000 A 
ATOM     10  C   UNL     1      -1.882  11.484  17.215  0.00  0.00    +0.000 A 
ATOM     11  C   UNL     1      -2.827  11.772  18.220  0.00  0.00    +0.000 A 
ATOM     12  N   UNL     1      -2.732  12.361  19.474  0.00  0.00    +0.000 N 
ATOM     13  C   UNL     1      -3.962  12.387  20.119  0.00  0.00    +0.000 A 
ATOM     14  C   UNL     1      -4.380  12.848  21.383  0.00  0.00    +0.000 A 
ENDROOT
BRANCH  12  15
ATOM     15  S   UNL     1      -1.243  12.793  20.217  0.00  0.00    +0.000 S 
ATOM     16  O   UNL     1      -0.610  13.751  19.326  0.00  0.00    +0.000 OA
ATOM     17  O   UNL     1      -1.519  13.129  21.599  0.00  0.00    +0.000 OA
BRANCH  15  18
ATOM     18  C   UNL     1      -0.274  11.300  20.219  0.00  0.00    +0.000 A 
ATOM     19  C   UNL     1       0.773  11.152  19.301  0.00  0.00    +0.000 A 
ATOM     20  C   UNL     1       1.489   9.952  19.250  0.00  0.00    +0.000 A 
ATOM     21  C   UNL     1       1.157   8.909  20.126  0.00  0.00    +0.000 A 
ATOM     22  C   UNL     1       0.169   9.090  21.106  0.00  0.00    +0.000 A 
ATOM     23  C   UNL     1      -0.544  10.292  21.156  0.00  0.00    +0.000 A 
BRANCH  21  24
ATOM     24  N   UNL     1       1.811   7.600  19.982  0.00  0.00    +0.000 N 
ATOM     25  O   UNL     1       2.545   7.429  18.999  0.00  0.00    +0.000 OA
ATOM     26  O   UNL     1       1.564   6.739  20.838  0.00  0.00    +0.000 OA
ENDBRANCH  21  24
ENDBRANCH  15  18
ENDBRANCH  12  15
BRANCH   1  28
ATOM     27  C   UNL     1      -7.471  12.498  23.557  0.00  0.00    +0.000 C 
ATOM     28  C   UNL     1      -6.155  13.160  23.156  0.00  0.00    +0.000 C 
BRANCH  28  29
ATOM     29  C   UNL     1      -5.073  12.966  24.214  0.00  0.00    +0.000 C 
ATOM     30  O   UNL     1      -4.258  13.813  24.553  0.00  0.00    +0.000 OA
BRANCH  29  31
ATOM     31  O   UNL     1      -5.059  11.716  24.747  0.00  0.00    +0.000 OA
ATOM     32  H   UNL     1      -4.160  11.392  24.958  0.00  0.00    +0.000 HD
ENDBRANCH  29  31
ENDBRANCH  28  29
ENDBRANCH   1  28
TORSDOF 6
ENDMDL
MODEL 4
REMARK VINA RESULT:      -7.3      7.719      9.309
REMARK  Name = 
REMARK  7 active torsions:
REMARK  status: ('A' for Active; 'I' for Inactive)
REMARK    1  A    between atoms: C_1  and  C_2
REMARK    2  A    between atoms: C_2  and  C_3
REMARK    3  A    between atoms: C_2  and  C_6
REMARK    4  A    between atoms: C_3  and  O_5
REMARK    5  A    between atoms: N_17  and  S_18
REMARK    6  A    between atoms: S_18  and  C_21
REMARK    7  A    between atoms: C_24  and  N_25
REMARK                            x       y       z     vdW  Elec       q    Type
REMARK                         _______ _______ _______ _____ _____    ______ ____
ROOT
ATOM      1  C   UNL     1      -1.164  11.599  22.779  0.00  0.00    +0.000 A 
ATOM      2  C   UNL     1      -0.964  10.272  23.167  0.00  0.00    +0.000 A 
ATOM      3  C   UNL     1      -0.245   9.391  22.357  0.00  0.00    +0.000 A 
ATOM      4  C   UNL     1       0.294   9.839  21.133  0.00  0.00    +0.000 A 
ATOM      5  C   UNL     1       1.067   9.190  20.124  0.00  0.00    +0.000 A 
ATOM      6  C   UNL     1       1.554   7.868  19.995  0.00  0.00    +0.000 A 
ATOM      7  C   UNL     1       2.310   7.520  18.877  0.00  0.00    +0.000 A 
ATOM      8 CL   UNL     1       2.879   5.904  18.709  0.00  0.00    +0.000 Cl
ATOM      9  C   UNL     1       2.603   8.461  17.901  0.00  0.00    +0.000 A 
ATOM     10  C   UNL     1       2.136   9.777  18.008  0.00  0.00    +0.000 A 
ATOM     11  C   UNL     1       1.351  10.129  19.123  0.00  0.00    +0.000 A 
ATOM     12  N   UNL     1       0.706  11.300  19.501  0.00  0.00    +0.000 N 
ATOM     13  C   UNL     1       0.079  11.162  20.733  0.00  0.00    +0.000 A 
ATOM     14  C   UNL     1      -0.671  12.041  21.539  0.00  0.00    +0.000 A 
ENDROOT
BRANCH  12  15
ATOM     15  S   UNL     1       0.857  12.790  18.657  0.00  0.00    +0.000 S 
ATOM     16  O   UNL     1       1.987  12.631  17.756  0.00  0.00    +0.000 OA
ATOM     17  O   UNL     1      -0.453  13.149  18.154  0.00  0.00    +0.000 OA
BRANCH  15  18
ATOM     18  C   UNL     1       1.292  13.986  19.901  0.00  0.00    +0.000 A 
ATOM     19  C   UNL     1       2.498  13.850  20.600  0.00  0.00    +0.000 A 
ATOM     20  C   UNL     1       2.810  14.746  21.628  0.00  0.00    +0.000 A 
ATOM     21  C   UNL     1       1.915  15.777  21.944  0.00  0.00    +0.000 A 
ATOM     22  C   UNL     1       0.751  15.967  21.184  0.00  0.00    +0.000 A 
ATOM     23  C   UNL     1       0.443  15.072  20.155  0.00  0.00    +0.000 A 
BRANCH  21  24
ATOM     24  N   UNL     1       2.171  16.633  23.113  0.00  0.00    +0.000 N 
ATOM     25  O   UNL     1       1.289  16.697  23.981  0.00  0.00    +0.000 OA
ATOM     26  O   UNL     1       3.239  17.259  23.143  0.00  0.00    +0.000 OA
ENDBRANCH  21  24
ENDBRANCH  15  18
ENDBRANCH  12  15
BRANCH   1  28
ATOM     27  C   UNL     1      -1.319  13.974  23.578  0.00  0.00    +0.000 C 
ATOM     28  C   UNL     1      -1.926  12.575  23.667  0.00  0.00    +0.000 C 
BRANCH  28  29
ATOM     29  C   UNL     1      -3.428  12.588  23.400  0.00  0.00    +0.000 C 
ATOM     30  O   UNL     1      -3.974  13.163  22.469  0.00  0.00    +0.000 OA
BRANCH  29  31
ATOM     31  O   UNL     1      -4.147  11.917  24.337  0.00  0.00    +0.000 OA
ATOM     32  H   UNL     1      -5.115  11.982  24.207  0.00  0.00    +0.000 HD
ENDBRANCH  29  31
ENDBRANCH  28  29
ENDBRANCH   1  28
TORSDOF 6
ENDMDL
MODEL 5
REMARK VINA RESULT:      -7.3      9.202     11.046
REMARK  Name = 
REMARK  7 active torsions:
REMARK  status: ('A' for Active; 'I' for Inactive)
REMARK    1  A    between atoms: C_1  and  C_2
REMARK    2  A    between atoms: C_2  and  C_3
REMARK    3  A    between atoms: C_2  and  C_6
REMARK    4  A    between atoms: C_3  and  O_5
REMARK    5  A    between atoms: N_17  and  S_18
REMARK    6  A    between atoms: S_18  and  C_21
REMARK    7  A    between atoms: C_24  and  N_25
REMARK                            x       y       z     vdW  Elec       q    Type
REMARK                         _______ _______ _______ _____ _____    ______ ____
ROOT
ATOM      1  C   UNL     1      -5.465  13.262  21.709  0.00  0.00    +0.000 A 
ATOM      2  C   UNL     1      -6.382  13.063  20.674  0.00  0.00    +0.000 A 
ATOM      3  C   UNL     1      -5.977  12.505  19.460  0.00  0.00    +0.000 A 
ATOM      4  C   UNL     1      -4.632  12.131  19.268  0.00  0.00    +0.000 A 
ATOM      5  C   UNL     1      -3.941  11.539  18.168  0.00  0.00    +0.000 A 
ATOM      6  C   UNL     1      -4.365  11.131  16.881  0.00  0.00    +0.000 A 
ATOM      7  C   UNL     1      -3.445  10.560  16.004  0.00  0.00    +0.000 A 
ATOM      8 CL   UNL     1      -3.957  10.089  14.430  0.00  0.00    +0.000 Cl
ATOM      9  C   UNL     1      -2.125  10.373  16.387  0.00  0.00    +0.000 A 
ATOM     10  C   UNL     1      -1.682  10.765  17.657  0.00  0.00    +0.000 A 
ATOM     11  C   UNL     1      -2.601  11.365  18.540  0.00  0.00    +0.000 A 
ATOM     12  N   UNL     1      -2.483  11.900  19.816  0.00  0.00    +0.000 N 
ATOM     13  C   UNL     1      -3.708  12.347  20.296  0.00  0.00    +0.000 A 
ATOM     14  C   UNL     1      -4.113  12.935  21.511  0.00  0.00    +0.000 A 
ENDROOT
BRANCH  12  15
ATOM     15  S   UNL     1      -1.050  11.811  20.762  0.00  0.00    +0.000 S 
ATOM     16  O   UNL     1      -1.385  12.380  22.056  0.00  0.00    +0.000 OA
ATOM     17  O   UNL     1      -0.530  10.463  20.652  0.00  0.00    +0.000 OA
BRANCH  15  18
ATOM     18  C   UNL     1       0.108  12.892  19.953  0.00  0.00    +0.000 A 
ATOM     19  C   UNL     1       1.471  12.566  19.944  0.00  0.00    +0.000 A 
ATOM     20  C   UNL     1       2.393  13.449  19.373  0.00  0.00    +0.000 A 
ATOM     21  C   UNL     1       1.944  14.650  18.807  0.00  0.00    +0.000 A 
ATOM     22  C   UNL     1       0.572  14.934  18.735  0.00  0.00    +0.000 A 
ATOM     23  C   UNL     1      -0.348  14.048  19.305  0.00  0.00    +0.000 A 
BRANCH  21  24
ATOM     24  N   UNL     1       2.920  15.643  18.333  0.00  0.00    +0.000 N 
ATOM     25  O   UNL     1       2.495  16.766  18.028  0.00  0.00    +0.000 OA
ATOM     26  O   UNL     1       4.102  15.286  18.240  0.00  0.00    +0.000 OA
ENDBRANCH  21  24
ENDBRANCH  15  18
ENDBRANCH  12  15
BRANCH   1  28
ATOM     27  C   UNL     1      -6.903  14.980  22.843  0.00  0.00    +0.000 C 
ATOM     28  C   UNL     1      -5.900  13.846  23.048  0.00  0.00    +0.000 C 
BRANCH  28  29
ATOM     29  C   UNL     1      -6.420  12.796  24.025  0.00  0.00    +0.000 C 
ATOM     30  O   UNL     1      -7.596  12.507  24.189  0.00  0.00    +0.000 OA
BRANCH  29  31
ATOM     31  O   UNL     1      -5.437  12.209  24.758  0.00  0.00    +0.000 OA
ATOM     32  H   UNL     1      -4.958  11.505  24.275  0.00  0.00    +0.000 HD
ENDBRANCH  29  31
ENDBRANCH  28  29
ENDBRANCH   1  28
TORSDOF 6
ENDMDL
MODEL 6
REMARK VINA RESULT:      -7.3      8.642     10.386
REMARK  Name = 
REMARK  7 active torsions:
REMARK  status: ('A' for Active; 'I' for Inactive)
REMARK    1  A    between atoms: C_1  and  C_2
REMARK    2  A    between atoms: C_2  and  C_3
REMARK    3  A    between atoms: C_2  and  C_6
REMARK    4  A    between atoms: C_3  and  O_5
REMARK    5  A    between atoms: N_17  and  S_18
REMARK    6  A    between atoms: S_18  and  C_21
REMARK    7  A    between atoms: C_24  and  N_25
REMARK                            x       y       z     vdW  Elec       q    Type
REMARK                         _______ _______ _______ _____ _____    ______ ____
ROOT
ATOM      1  C   UNL     1      -4.272  13.371  21.690  0.00  0.00    +0.000 A 
ATOM      2  C   UNL     1      -5.305  13.376  20.749  0.00  0.00    +0.000 A 
ATOM      3  C   UNL     1      -5.141  12.762  19.506  0.00  0.00    +0.000 A 
ATOM      4  C   UNL     1      -3.924  12.123  19.190  0.00  0.00    +0.000 A 
ATOM      5  C   UNL     1      -3.478  11.416  18.034  0.00  0.00    +0.000 A 
ATOM      6  C   UNL     1      -4.097  11.118  16.797  0.00  0.00    +0.000 A 
ATOM      7  C   UNL     1      -3.401  10.382  15.840  0.00  0.00    +0.000 A 
ATOM      8 CL   UNL     1      -4.146  10.043  14.326  0.00  0.00    +0.000 Cl
ATOM      9  C   UNL     1      -2.117   9.924  16.096  0.00  0.00    +0.000 A 
ATOM     10  C   UNL     1      -1.483  10.202  17.314  0.00  0.00    +0.000 A 
ATOM     11  C   UNL     1      -2.172  10.967  18.276  0.00  0.00    +0.000 A 
ATOM     12  N   UNL     1      -1.826  11.451  19.531  0.00  0.00    +0.000 N 
ATOM     13  C   UNL     1      -2.882  12.133  20.123  0.00  0.00    +0.000 A 
ATOM     14  C   UNL     1      -3.040  12.778  21.366  0.00  0.00    +0.000 A 
ENDROOT
BRANCH  12  15
ATOM     15  S   UNL     1      -0.358  11.061  20.336  0.00  0.00    +0.000 S 
ATOM     16  O   UNL     1      -0.578  11.356  21.742  0.00  0.00    +0.000 OA
ATOM     17  O   UNL     1       0.044   9.737  19.906  0.00  0.00    +0.000 OA
BRANCH  15  18
ATOM     18  C   UNL     1       0.841  12.211  19.699  0.00  0.00    +0.000 A 
ATOM     19  C   UNL     1       0.877  13.520  20.197  0.00  0.00    +0.000 A 
ATOM     20  C   UNL     1       1.768  14.448  19.648  0.00  0.00    +0.000 A 
ATOM     21  C   UNL     1       2.625  14.056  18.610  0.00  0.00    +0.000 A 
ATOM     22  C   UNL     1       2.652  12.722  18.175  0.00  0.00    +0.000 A 
ATOM     23  C   UNL     1       1.761  11.796  18.727  0.00  0.00    +0.000 A 
BRANCH  21  24
ATOM     24  N   UNL     1       3.462  15.060  17.936  0.00  0.00    +0.000 N 
ATOM     25  O   UNL     1       2.929  16.133  17.621  0.00  0.00    +0.000 OA
ATOM     26  O   UNL     1       4.640  14.759  17.700  0.00  0.00    +0.000 OA
ENDBRANCH  21  24
ENDBRANCH  15  18
ENDBRANCH  12  15
BRANCH   1  28
ATOM     27  C   UNL     1      -5.221  15.329  22.944  0.00  0.00    +0.000 C 
ATOM     28  C   UNL     1      -4.449  14.017  23.060  0.00  0.00    +0.000 C 
BRANCH  28  29
ATOM     29  C   UNL     1      -5.069  13.081  24.093  0.00  0.00    +0.000 C 
ATOM     30  O   UNL     1      -4.567  12.040  24.492  0.00  0.00    +0.000 OA
BRANCH  29  31
ATOM     31  O   UNL     1      -6.290  13.490  24.527  0.00  0.00    +0.000 OA
ATOM     32  H   UNL     1      -6.354  13.563  25.500  0.00  0.00    +0.000 HD
ENDBRANCH  29  31
ENDBRANCH  28  29
ENDBRANCH   1  28
TORSDOF 6
ENDMDL
MODEL 7
REMARK VINA RESULT:      -7.3     10.157     12.924
REMARK  Name = 
REMARK  7 active torsions:
REMARK  status: ('A' for Active; 'I' for Inactive)
REMARK    1  A    between atoms: C_1  and  C_2
REMARK    2  A    between atoms: C_2  and  C_3
REMARK    3  A    between atoms: C_2  and  C_6
REMARK    4  A    between atoms: C_3  and  O_5
REMARK    5  A    between atoms: N_17  and  S_18
REMARK    6  A    between atoms: S_18  and  C_21
REMARK    7  A    between atoms: C_24  and  N_25
REMARK                            x       y       z     vdW  Elec       q    Type
REMARK                         _______ _______ _______ _____ _____    ______ ____
ROOT
ATOM      1  C   UNL     1      -5.472  11.816  18.674  0.00  0.00    +0.000 A 
ATOM      2  C   UNL     1      -5.020  10.779  17.855  0.00  0.00    +0.000 A 
ATOM      3  C   UNL     1      -3.664  10.452  17.799  0.00  0.00    +0.000 A 
ATOM      4  C   UNL     1      -2.732  11.169  18.578  0.00  0.00    +0.000 A 
ATOM      5  C   UNL     1      -1.319  11.058  18.737  0.00  0.00    +0.000 A 
ATOM      6  C   UNL     1      -0.357  10.196  18.160  0.00  0.00    +0.000 A 
ATOM      7  C   UNL     1       0.983  10.319  18.525  0.00  0.00    +0.000 A 
ATOM      8 CL   UNL     1       2.155   9.287  17.802  0.00  0.00    +0.000 Cl
ATOM      9  C   UNL     1       1.376  11.264  19.460  0.00  0.00    +0.000 A 
ATOM     10  C   UNL     1       0.443  12.126  20.049  0.00  0.00    +0.000 A 
ATOM     11  C   UNL     1      -0.909  12.024  19.666  0.00  0.00    +0.000 A 
ATOM     12  N   UNL     1      -2.051  12.737  20.008  0.00  0.00    +0.000 N 
ATOM     13  C   UNL     1      -3.180  12.221  19.384  0.00  0.00    +0.000 A 
ATOM     14  C   UNL     1      -4.545  12.567  19.418  0.00  0.00    +0.000 A 
ENDROOT
BRANCH  12  15
ATOM     15  S   UNL     1      -2.090  13.955  21.221  0.00  0.00    +0.000 S 
ATOM     16  O   UNL     1      -0.943  13.709  22.078  0.00  0.00    +0.000 OA
ATOM     17  O   UNL     1      -2.268  15.232  20.560  0.00  0.00    +0.000 OA
BRANCH  15  18
ATOM     18  C   UNL     1      -3.571  13.633  22.155  0.00  0.00    +0.000 A 
ATOM     19  C   UNL     1      -3.593  12.577  23.075  0.00  0.00    +0.000 A 
ATOM     20  C   UNL     1      -4.775  12.274  23.757  0.00  0.00    +0.000 A 
ATOM     21  C   UNL     1      -5.927  13.037  23.519  0.00  0.00    +0.000 A 
ATOM     22  C   UNL     1      -5.880  14.150  22.666  0.00  0.00    +0.000 A 
ATOM     23  C   UNL     1      -4.696  14.451  21.987  0.00  0.00    +0.000 A 
BRANCH  21  24
ATOM     24  N   UNL     1      -7.206  12.636  24.126  0.00  0.00    +0.000 N 
ATOM     25  O   UNL     1      -7.916  13.528  24.610  0.00  0.00    +0.000 OA
ATOM     26  O   UNL     1      -7.479  11.428  24.143  0.00  0.00    +0.000 OA
ENDBRANCH  21  24
ENDBRANCH  15  18
ENDBRANCH  12  15
BRANCH   1  28
ATOM     27  C   UNL     1      -7.496  11.872  20.159  0.00  0.00    +0.000 C 
ATOM     28  C   UNL     1      -6.953  12.165  18.761  0.00  0.00    +0.000 C 
BRANCH  28  29
ATOM     29  C   UNL     1      -7.265  13.591  18.317  0.00  0.00    +0.000 C 
ATOM     30  O   UNL     1      -7.881  14.416  18.976  0.00  0.00    +0.000 OA
BRANCH  29  31
ATOM     31  O   UNL     1      -6.820  13.874  17.064  0.00  0.00    +0.000 OA
ATOM     32  H   UNL     1      -7.337  14.573  16.615  0.00  0.00    +0.000 HD
ENDBRANCH  29  31
ENDBRANCH  28  29
ENDBRANCH   1  28
TORSDOF 6
ENDMDL
MODEL 8
REMARK VINA RESULT:      -7.2      9.770     12.478
REMARK  Name = 
REMARK  7 active torsions:
REMARK  status: ('A' for Active; 'I' for Inactive)
REMARK    1  A    between atoms: C_1  and  C_2
REMARK    2  A    between atoms: C_2  and  C_3
REMARK    3  A    between atoms: C_2  and  C_6
REMARK    4  A    between atoms: C_3  and  O_5
REMARK    5  A    between atoms: N_17  and  S_18
REMARK    6  A    between atoms: S_18  and  C_21
REMARK    7  A    between atoms: C_24  and  N_25
REMARK                            x       y       z     vdW  Elec       q    Type
REMARK                         _______ _______ _______ _____ _____    ______ ____
ROOT
ATOM      1  C   UNL     1      -5.159  12.092  18.753  0.00  0.00    +0.000 A 
ATOM      2  C   UNL     1      -4.824  11.067  17.864  0.00  0.00    +0.000 A 
ATOM      3  C   UNL     1      -3.512  10.597  17.777  0.00  0.00    +0.000 A 
ATOM      4  C   UNL     1      -2.507  11.155  18.594  0.00  0.00    +0.000 A 
ATOM      5  C   UNL     1      -1.114  10.879  18.734  0.00  0.00    +0.000 A 
ATOM      6  C   UNL     1      -0.253   9.956  18.094  0.00  0.00    +0.000 A 
ATOM      7  C   UNL     1       1.092   9.907  18.456  0.00  0.00    +0.000 A 
ATOM      8 CL   UNL     1       2.143   8.803  17.658  0.00  0.00    +0.000 Cl
ATOM      9  C   UNL     1       1.588  10.739  19.448  0.00  0.00    +0.000 A 
ATOM     10  C   UNL     1       0.755  11.658  20.100  0.00  0.00    +0.000 A 
ATOM     11  C   UNL     1      -0.600  11.730  19.721  0.00  0.00    +0.000 A 
ATOM     12  N   UNL     1      -1.656  12.541  20.118  0.00  0.00    +0.000 N 
ATOM     13  C   UNL     1      -2.835  12.194  19.471  0.00  0.00    +0.000 A 
ATOM     14  C   UNL     1      -4.154  12.685  19.537  0.00  0.00    +0.000 A 
ENDROOT
BRANCH  12  15
ATOM     15  S   UNL     1      -1.561  13.673  21.408  0.00  0.00    +0.000 S 
ATOM     16  O   UNL     1      -0.479  13.218  22.266  0.00  0.00    +0.000 OA
ATOM     17  O   UNL     1      -1.545  15.002  20.831  0.00  0.00    +0.000 OA
BRANCH  15  18
ATOM     18  C   UNL     1      -3.094  13.499  22.294  0.00  0.00    +0.000 A 
ATOM     19  C   UNL     1      -3.255  12.441  23.199  0.00  0.00    +0.000 A 
ATOM     20  C   UNL     1      -4.483  12.257  23.842  0.00  0.00    +0.000 A 
ATOM     21  C   UNL     1      -5.541  13.139  23.581  0.00  0.00    +0.000 A 
ATOM     22  C   UNL     1      -5.351  14.250  22.745  0.00  0.00    +0.000 A 
ATOM     23  C   UNL     1      -4.122  14.433  22.105  0.00  0.00    +0.000 A 
BRANCH  21  24
ATOM     24  N   UNL     1      -6.872  12.869  24.145  0.00  0.00    +0.000 N 
ATOM     25  O   UNL     1      -7.526  13.835  24.562  0.00  0.00    +0.000 OA
ATOM     26  O   UNL     1      -7.245  11.689  24.195  0.00  0.00    +0.000 OA
ENDBRANCH  21  24
ENDBRANCH  15  18
ENDBRANCH  12  15
BRANCH   1  28
ATOM     27  C   UNL     1      -7.277  12.612  17.510  0.00  0.00    +0.000 C 
ATOM     28  C   UNL     1      -6.592  12.595  18.875  0.00  0.00    +0.000 C 
BRANCH  28  29
ATOM     29  C   UNL     1      -7.412  11.836  19.915  0.00  0.00    +0.000 C 
ATOM     30  O   UNL     1      -7.831  12.307  20.962  0.00  0.00    +0.000 OA
BRANCH  29  31
ATOM     31  O   UNL     1      -7.616  10.532  19.592  0.00  0.00    +0.000 OA
ATOM     32  H   UNL     1      -7.757   9.955  20.370  0.00  0.00    +0.000 HD
ENDBRANCH  29  31
ENDBRANCH  28  29
ENDBRANCH   1  28
TORSDOF 6
ENDMDL
MODEL 9
REMARK VINA RESULT:      -7.2      7.756      9.317
REMARK  Name = 
REMARK  7 active torsions:
REMARK  status: ('A' for Active; 'I' for Inactive)
REMARK    1  A    between atoms: C_1  and  C_2
REMARK    2  A    between atoms: C_2  and  C_3
REMARK    3  A    between atoms: C_2  and  C_6
REMARK    4  A    between atoms: C_3  and  O_5
REMARK    5  A    between atoms: N_17  and  S_18
REMARK    6  A    between atoms: S_18  and  C_21
REMARK    7  A    between atoms: C_24  and  N_25
REMARK                            x       y       z     vdW  Elec       q    Type
REMARK                         _______ _______ _______ _____ _____    ______ ____
ROOT
ATOM      1  C   UNL     1      -1.175  11.621  22.779  0.00  0.00    +0.000 A 
ATOM      2  C   UNL     1      -0.989  10.286  23.147  0.00  0.00    +0.000 A 
ATOM      3  C   UNL     1      -0.274   9.411  22.326  0.00  0.00    +0.000 A 
ATOM      4  C   UNL     1       0.274   9.873  21.112  0.00  0.00    +0.000 A 
ATOM      5  C   UNL     1       1.046   9.233  20.096  0.00  0.00    +0.000 A 
ATOM      6  C   UNL     1       1.521   7.908  19.949  0.00  0.00    +0.000 A 
ATOM      7  C   UNL     1       2.278   7.571  18.828  0.00  0.00    +0.000 A 
ATOM      8 CL   UNL     1       2.832   5.953  18.637  0.00  0.00    +0.000 Cl
ATOM      9  C   UNL     1       2.583   8.524  17.868  0.00  0.00    +0.000 A 
ATOM     10  C   UNL     1       2.129   9.843  17.993  0.00  0.00    +0.000 A 
ATOM     11  C   UNL     1       1.342  10.185  19.111  0.00  0.00    +0.000 A 
ATOM     12  N   UNL     1       0.707  11.355  19.504  0.00  0.00    +0.000 N 
ATOM     13  C   UNL     1       0.073  11.204  20.732  0.00  0.00    +0.000 A 
ATOM     14  C   UNL     1      -0.672  12.077  21.549  0.00  0.00    +0.000 A 
ENDROOT
BRANCH  12  15
ATOM     15  S   UNL     1       0.875  12.857  18.684  0.00  0.00    +0.000 S 
ATOM     16  O   UNL     1       2.050  12.726  17.839  0.00  0.00    +0.000 OA
ATOM     17  O   UNL     1      -0.414  13.201  18.121  0.00  0.00    +0.000 OA
BRANCH  15  18
ATOM     18  C   UNL     1       1.230  14.046  19.961  0.00  0.00    +0.000 A 
ATOM     19  C   UNL     1       0.365  15.131  20.156  0.00  0.00    +0.000 A 
ATOM     20  C   UNL     1       0.678  16.106  21.108  0.00  0.00    +0.000 A 
ATOM     21  C   UNL     1       1.851  15.984  21.865  0.00  0.00    +0.000 A 
ATOM     22  C   UNL     1       2.669  14.852  21.733  0.00  0.00    +0.000 A 
ATOM     23  C   UNL     1       2.353  13.877  20.782  0.00  0.00    +0.000 A 
BRANCH  21  24
ATOM     24  N   UNL     1       2.255  17.075  22.765  0.00  0.00    +0.000 N 
ATOM     25  O   UNL     1       2.224  18.230  22.318  0.00  0.00    +0.000 OA
ATOM     26  O   UNL     1       2.631  16.769  23.905  0.00  0.00    +0.000 OA
ENDBRANCH  21  24
ENDBRANCH  15  18
ENDBRANCH  12  15
BRANCH   1  28
ATOM     27  C   UNL     1      -1.320  13.988  23.603  0.00  0.00    +0.000 C 
ATOM     28  C   UNL     1      -1.931  12.590  23.679  0.00  0.00    +0.000 C 
BRANCH  28  29
ATOM     29  C   UNL     1      -3.434  12.611  23.416  0.00  0.00    +0.000 C 
ATOM     30  O   UNL     1      -3.987  13.254  22.536  0.00  0.00    +0.000 OA
BRANCH  29  31
ATOM     31  O   UNL     1      -4.145  11.857  24.296  0.00  0.00    +0.000 OA
ATOM     32  H   UNL     1      -4.598  11.096  23.881  0.00  0.00    +0.000 HD
ENDBRANCH  29  31
ENDBRANCH  28  29
ENDBRANCH   1  28
TORSDOF 6
ENDMDL
