MODEL 1
REMARK VINA RESULT:      -6.3      0.000      0.000
REMARK  Name = 
REMARK  12 active torsions:
REMARK  status: ('A' for Active; 'I' for Inactive)
REMARK    1  A    between atoms: C_1  and  O_2
REMARK    2  A    between atoms: O_2  and  C_3
REMARK    3  A    between atoms: C_3  and  C_5
REMARK    4  A    between atoms: C_5  and  C_6
REMARK    5  A    between atoms: C_5  and  N_11
REMARK    6  A    between atoms: C_6  and  C_7
REMARK    7  A    between atoms: C_7  and  C_8
REMARK    8  A    between atoms: C_8  and  C_9
REMARK    9  A    between atoms: C_9  and  N_10
REMARK   10  A    between atoms: C_12  and  C_14
REMARK   11  A    between atoms: C_16  and  N_17
REMARK   12  A    between atoms: C_20  and  C_21
REMARK                            x       y       z     vdW  Elec       q    Type
REMARK                         _______ _______ _______ _____ _____    ______ ____
ROOT
ATOM      1  N   UNL     1       4.579   6.356  17.231  0.00  0.00    +0.000 N 
ATOM      2  C   UNL     1       3.821   6.192  18.357  0.00  0.00    +0.000 C 
ATOM      3  O   UNL     1       3.920   5.170  19.020  0.00  0.00    +0.000 OA
ATOM      4  H   UNL     1       4.473   7.216  16.675  0.00  0.00    +0.000 HD
ENDROOT
BRANCH   2   5
ATOM      5  C   UNL     1       2.837   7.224  18.789  0.00  0.00    +0.000 A 
ATOM      6  C   UNL     1       2.256   7.360  20.047  0.00  0.00    +0.000 A 
ATOM      7  C   UNL     1       1.382   8.462  20.171  0.00  0.00    +0.000 A 
ATOM      8  C   UNL     1       1.278   9.209  18.979  0.00  0.00    +0.000 A 
ATOM      9  C   UNL     1       0.478  10.448  18.671  0.00  0.00    +0.000 C 
ATOM     10  S   UNL     1       2.261   8.474  17.822  0.00  0.00    +0.000 S 
BRANCH   7  11
ATOM     11  N   UNL     1       0.710   8.742  21.402  0.00  0.00    +0.000 N 
ATOM     12  O   UNL     1      -0.413   8.366  21.564  0.00  0.00    +0.000 OA
ATOM     13  O   UNL     1       1.293   9.411  22.370  0.00  0.00    +0.000 OA
ENDBRANCH   7  11
ENDBRANCH   2   5
BRANCH   1  14
ATOM     14  C   UNL     1       5.486   5.328  16.729  0.00  0.00    +0.000 C 
BRANCH  14  15
ATOM     15  C   UNL     1       6.927   5.657  17.038  0.00  0.00    +0.000 C 
ATOM     16  O   UNL     1       7.561   6.393  16.294  0.00  0.00    +0.000 OA
BRANCH  15  18
ATOM     17  C   UNL     1       7.789   5.735  19.293  0.00  0.00    +0.000 C 
ATOM     18  O   UNL     1       7.517   5.076  18.114  0.00  0.00    +0.000 OA
ENDBRANCH  15  18
ENDBRANCH  14  15
BRANCH  14  19
ATOM     19  C   UNL     1       5.311   5.139  15.198  0.00  0.00    +0.000 C 
BRANCH  19  20
ATOM     20  C   UNL     1       5.885   3.811  14.648  0.00  0.00    +0.000 C 
BRANCH  20  21
ATOM     21  C   UNL     1       6.413   3.954  13.212  0.00  0.00    +0.000 C 
BRANCH  21  22
ATOM     22  C   UNL     1       5.497   3.289  12.183  0.00  0.00    +0.000 C 
BRANCH  22  23
ATOM     23  N   UNL     1       6.059   1.999  11.792  0.00  0.00    +0.000 NA
ATOM     24  H   UNL     1       6.958   2.155  11.277  0.00  0.00    +0.000 HD
ATOM     25  H   UNL     1       5.396   1.528  11.136  0.00  0.00    +0.000 HD
ENDBRANCH  22  23
ENDBRANCH  21  22
ENDBRANCH  20  21
ENDBRANCH  19  20
ENDBRANCH  14  19
ENDBRANCH   1  14
TORSDOF 10
ENDMDL
MODEL 2
REMARK VINA RESULT:      -6.3      2.891      3.951
REMARK  Name = 
REMARK  12 active torsions:
REMARK  status: ('A' for Active; 'I' for Inactive)
REMARK    1  A    between atoms: C_1  and  O_2
REMARK    2  A    between atoms: O_2  and  C_3
REMARK    3  A    between atoms: C_3  and  C_5
REMARK    4  A    between atoms: C_5  and  C_6
REMARK    5  A    between atoms: C_5  and  N_11
REMARK    6  A    between atoms: C_6  and  C_7
REMARK    7  A    between atoms: C_7  and  C_8
REMARK    8  A    between atoms: C_8  and  C_9
REMARK    9  A    between atoms: C_9  and  N_10
REMARK   10  A    between atoms: C_12  and  C_14
REMARK   11  A    between atoms: C_16  and  N_17
REMARK   12  A    between atoms: C_20  and  C_21
REMARK                            x       y       z     vdW  Elec       q    Type
REMARK                         _______ _______ _______ _____ _____    ______ ____
ROOT
ATOM      1  N   UNL     1       2.959   5.386  18.501  0.00  0.00    +0.000 N 
ATOM      2  C   UNL     1       3.078   6.709  18.181  0.00  0.00    +0.000 C 
ATOM      3  O   UNL     1       3.890   7.065  17.339  0.00  0.00    +0.000 OA
ATOM      4  H   UNL     1       2.281   5.103  19.223  0.00  0.00    +0.000 HD
ENDROOT
BRANCH   2   5
ATOM      5  C   UNL     1       2.260   7.751  18.862  0.00  0.00    +0.000 A 
ATOM      6  C   UNL     1       1.871   7.777  20.199  0.00  0.00    +0.000 A 
ATOM      7  C   UNL     1       1.126   8.918  20.569  0.00  0.00    +0.000 A 
ATOM      8  C   UNL     1       0.927   9.808  19.494  0.00  0.00    +0.000 A 
ATOM      9  C   UNL     1       0.207  11.130  19.442  0.00  0.00    +0.000 C 
ATOM     10  S   UNL     1       1.671   9.148  18.132  0.00  0.00    +0.000 S 
BRANCH   7  11
ATOM     11  N   UNL     1       0.658   9.096  21.908  0.00  0.00    +0.000 N 
ATOM     12  O   UNL     1       1.405   9.495  22.751  0.00  0.00    +0.000 OA
ATOM     13  O   UNL     1      -0.582   8.826  22.247  0.00  0.00    +0.000 OA
ENDBRANCH   7  11
ENDBRANCH   2   5
BRANCH   1  14
ATOM     14  C   UNL     1       3.807   4.349  17.920  0.00  0.00    +0.000 C 
BRANCH  14  15
ATOM     15  C   UNL     1       3.090   3.023  17.841  0.00  0.00    +0.000 C 
ATOM     16  O   UNL     1       3.731   1.980  17.798  0.00  0.00    +0.000 OA
BRANCH  15  18
ATOM     17  C   UNL     1       0.910   2.420  18.689  0.00  0.00    +0.000 C 
ATOM     18  O   UNL     1       1.735   3.012  17.757  0.00  0.00    +0.000 OA
ENDBRANCH  15  18
ENDBRANCH  14  15
BRANCH  14  19
ATOM     19  C   UNL     1       5.117   4.187  18.738  0.00  0.00    +0.000 C 
BRANCH  19  20
ATOM     20  C   UNL     1       6.400   4.601  17.977  0.00  0.00    +0.000 C 
BRANCH  20  21
ATOM     21  C   UNL     1       7.213   5.659  18.739  0.00  0.00    +0.000 C 
BRANCH  21  22
ATOM     22  C   UNL     1       7.521   6.888  17.884  0.00  0.00    +0.000 C 
BRANCH  22  23
ATOM     23  N   UNL     1       6.780   6.807  16.628  0.00  0.00    +0.000 NA
ATOM     24  H   UNL     1       6.154   7.643  16.541  0.00  0.00    +0.000 HD
ATOM     25  H   UNL     1       6.173   5.957  16.649  0.00  0.00    +0.000 HD
ENDBRANCH  22  23
ENDBRANCH  21  22
ENDBRANCH  20  21
ENDBRANCH  19  20
ENDBRANCH  14  19
ENDBRANCH   1  14
TORSDOF 10
ENDMDL
MODEL 3
REMARK VINA RESULT:      -6.3      2.209      3.698
REMARK  Name = 
REMARK  12 active torsions:
REMARK  status: ('A' for Active; 'I' for Inactive)
REMARK    1  A    between atoms: C_1  and  O_2
REMARK    2  A    between atoms: O_2  and  C_3
REMARK    3  A    between atoms: C_3  and  C_5
REMARK    4  A    between atoms: C_5  and  C_6
REMARK    5  A    between atoms: C_5  and  N_11
REMARK    6  A    between atoms: C_6  and  C_7
REMARK    7  A    between atoms: C_7  and  C_8
REMARK    8  A    between atoms: C_8  and  C_9
REMARK    9  A    between atoms: C_9  and  N_10
REMARK   10  A    between atoms: C_12  and  C_14
REMARK   11  A    between atoms: C_16  and  N_17
REMARK   12  A    between atoms: C_20  and  C_21
REMARK                            x       y       z     vdW  Elec       q    Type
REMARK                         _______ _______ _______ _____ _____    ______ ____
ROOT
ATOM      1  N   UNL     1       3.603   6.018  17.561  0.00  0.00    +0.000 N 
ATOM      2  C   UNL     1       3.268   6.294  18.858  0.00  0.00    +0.000 C 
ATOM      3  O   UNL     1       3.670   5.576  19.761  0.00  0.00    +0.000 OA
ATOM      4  H   UNL     1       3.243   6.624  16.810  0.00  0.00    +0.000 HD
ENDROOT
BRANCH   2   5
ATOM      5  C   UNL     1       2.386   7.443  19.205  0.00  0.00    +0.000 A 
ATOM      6  C   UNL     1       1.824   7.729  20.447  0.00  0.00    +0.000 A 
ATOM      7  C   UNL     1       1.057   8.914  20.483  0.00  0.00    +0.000 A 
ATOM      8  C   UNL     1       1.018   9.573  19.237  0.00  0.00    +0.000 A 
ATOM      9  C   UNL     1       0.336  10.853  18.831  0.00  0.00    +0.000 C 
ATOM     10  S   UNL     1       1.925   8.664  18.143  0.00  0.00    +0.000 S 
BRANCH   7  11
ATOM     11  N   UNL     1       0.418   9.348  21.686  0.00  0.00    +0.000 N 
ATOM     12  O   UNL     1       0.851  10.289  22.283  0.00  0.00    +0.000 OA
ATOM     13  O   UNL     1      -0.640   8.736  22.166  0.00  0.00    +0.000 OA
ENDBRANCH   7  11
ENDBRANCH   2   5
BRANCH   1  14
ATOM     14  C   UNL     1       4.389   4.850  17.176  0.00  0.00    +0.000 C 
BRANCH  14  15
ATOM     15  C   UNL     1       5.203   5.113  15.932  0.00  0.00    +0.000 C 
ATOM     16  O   UNL     1       5.542   6.254  15.649  0.00  0.00    +0.000 OA
BRANCH  15  18
ATOM     17  C   UNL     1       6.427   4.135  14.094  0.00  0.00    +0.000 C 
ATOM     18  O   UNL     1       5.494   4.075  15.107  0.00  0.00    +0.000 OA
ENDBRANCH  15  18
ENDBRANCH  14  15
BRANCH  14  19
ATOM     19  C   UNL     1       3.471   3.618  16.950  0.00  0.00    +0.000 C 
BRANCH  19  20
ATOM     20  C   UNL     1       3.639   2.495  18.001  0.00  0.00    +0.000 C 
BRANCH  20  21
ATOM     21  C   UNL     1       2.306   2.117  18.668  0.00  0.00    +0.000 C 
BRANCH  21  22
ATOM     22  C   UNL     1       1.259   3.225  18.552  0.00  0.00    +0.000 C 
BRANCH  22  23
ATOM     23  N   UNL     1       0.999   3.792  19.872  0.00  0.00    +0.000 NA
ATOM     24  H   UNL     1       0.006   4.124  19.917  0.00  0.00    +0.000 HD
ATOM     25  H   UNL     1       1.617   4.623  20.009  0.00  0.00    +0.000 HD
ENDBRANCH  22  23
ENDBRANCH  21  22
ENDBRANCH  20  21
ENDBRANCH  19  20
ENDBRANCH  14  19
ENDBRANCH   1  14
TORSDOF 10
ENDMDL
MODEL 4
REMARK VINA RESULT:      -6.3      1.375      1.593
REMARK  Name = 
REMARK  12 active torsions:
REMARK  status: ('A' for Active; 'I' for Inactive)
REMARK    1  A    between atoms: C_1  and  O_2
REMARK    2  A    between atoms: O_2  and  C_3
REMARK    3  A    between atoms: C_3  and  C_5
REMARK    4  A    between atoms: C_5  and  C_6
REMARK    5  A    between atoms: C_5  and  N_11
REMARK    6  A    between atoms: C_6  and  C_7
REMARK    7  A    between atoms: C_7  and  C_8
REMARK    8  A    between atoms: C_8  and  C_9
REMARK    9  A    between atoms: C_9  and  N_10
REMARK   10  A    between atoms: C_12  and  C_14
REMARK   11  A    between atoms: C_16  and  N_17
REMARK   12  A    between atoms: C_20  and  C_21
REMARK                            x       y       z     vdW  Elec       q    Type
REMARK                         _______ _______ _______ _____ _____    ______ ____
ROOT
ATOM      1  N   UNL     1       4.502   5.977  18.257  0.00  0.00    +0.000 N 
ATOM      2  C   UNL     1       3.357   5.892  18.998  0.00  0.00    +0.000 C 
ATOM      3  O   UNL     1       2.991   4.811  19.438  0.00  0.00    +0.000 OA
ATOM      4  H   UNL     1       4.790   6.892  17.880  0.00  0.00    +0.000 HD
ENDROOT
BRANCH   2   5
ATOM      5  C   UNL     1       2.511   7.089  19.263  0.00  0.00    +0.000 A 
ATOM      6  C   UNL     1       1.875   7.425  20.456  0.00  0.00    +0.000 A 
ATOM      7  C   UNL     1       1.168   8.647  20.417  0.00  0.00    +0.000 A 
ATOM      8  C   UNL     1       1.254   9.283  19.162  0.00  0.00    +0.000 A 
ATOM      9  C   UNL     1       0.667  10.587  18.687  0.00  0.00    +0.000 C 
ATOM     10  S   UNL     1       2.190   8.310  18.152  0.00  0.00    +0.000 S 
BRANCH   7  11
ATOM     11  N   UNL     1       0.466   9.134  21.564  0.00  0.00    +0.000 N 
ATOM     12  O   UNL     1      -0.535   8.590  21.923  0.00  0.00    +0.000 OA
ATOM     13  O   UNL     1       0.890  10.177  22.240  0.00  0.00    +0.000 OA
ENDBRANCH   7  11
ENDBRANCH   2   5
BRANCH   1  14
ATOM     14  C   UNL     1       5.307   4.812  17.902  0.00  0.00    +0.000 C 
BRANCH  14  15
ATOM     15  C   UNL     1       6.770   5.163  17.775  0.00  0.00    +0.000 C 
ATOM     16  O   UNL     1       7.614   4.497  18.360  0.00  0.00    +0.000 OA
BRANCH  15  18
ATOM     17  C   UNL     1       7.631   7.414  17.612  0.00  0.00    +0.000 C 
ATOM     18  O   UNL     1       7.122   6.260  17.056  0.00  0.00    +0.000 OA
ENDBRANCH  15  18
ENDBRANCH  14  15
BRANCH  14  19
ATOM     19  C   UNL     1       4.805   4.179  16.576  0.00  0.00    +0.000 C 
BRANCH  19  20
ATOM     20  C   UNL     1       5.933   3.722  15.619  0.00  0.00    +0.000 C 
BRANCH  20  21
ATOM     21  C   UNL     1       5.663   4.131  14.163  0.00  0.00    +0.000 C 
BRANCH  21  22
ATOM     22  C   UNL     1       6.932   4.579  13.436  0.00  0.00    +0.000 C 
BRANCH  22  23
ATOM     23  N   UNL     1       7.718   5.442  14.313  0.00  0.00    +0.000 NA
ATOM     24  H   UNL     1       8.613   5.700  13.834  0.00  0.00    +0.000 HD
ATOM     25  H   UNL     1       7.963   4.911  15.178  0.00  0.00    +0.000 HD
ENDBRANCH  22  23
ENDBRANCH  21  22
ENDBRANCH  20  21
ENDBRANCH  19  20
ENDBRANCH  14  19
ENDBRANCH   1  14
TORSDOF 10
ENDMDL
MODEL 5
REMARK VINA RESULT:      -6.2      2.371      3.441
REMARK  Name = 
REMARK  12 active torsions:
REMARK  status: ('A' for Active; 'I' for Inactive)
REMARK    1  A    between atoms: C_1  and  O_2
REMARK    2  A    between atoms: O_2  and  C_3
REMARK    3  A    between atoms: C_3  and  C_5
REMARK    4  A    between atoms: C_5  and  C_6
REMARK    5  A    between atoms: C_5  and  N_11
REMARK    6  A    between atoms: C_6  and  C_7
REMARK    7  A    between atoms: C_7  and  C_8
REMARK    8  A    between atoms: C_8  and  C_9
REMARK    9  A    between atoms: C_9  and  N_10
REMARK   10  A    between atoms: C_12  and  C_14
REMARK   11  A    between atoms: C_16  and  N_17
REMARK   12  A    between atoms: C_20  and  C_21
REMARK                            x       y       z     vdW  Elec       q    Type
REMARK                         _______ _______ _______ _____ _____    ______ ____
ROOT
ATOM      1  N   UNL     1       3.548   5.754  19.755  0.00  0.00    +0.000 N 
ATOM      2  C   UNL     1       2.674   6.513  19.028  0.00  0.00    +0.000 C 
ATOM      3  O   UNL     1       2.486   6.267  17.845  0.00  0.00    +0.000 OA
ATOM      4  H   UNL     1       3.708   5.983  20.746  0.00  0.00    +0.000 HD
ENDROOT
BRANCH   2   5
ATOM      5  C   UNL     1       1.960   7.671  19.633  0.00  0.00    +0.000 A 
ATOM      6  C   UNL     1       1.544   7.807  20.955  0.00  0.00    +0.000 A 
ATOM      7  C   UNL     1       0.921   9.041  21.248  0.00  0.00    +0.000 A 
ATOM      8  C   UNL     1       0.849   9.892  20.126  0.00  0.00    +0.000 A 
ATOM      9  C   UNL     1       0.283  11.281  19.990  0.00  0.00    +0.000 C 
ATOM     10  S   UNL     1       1.550   9.086  18.821  0.00  0.00    +0.000 S 
BRANCH   7  11
ATOM     11  N   UNL     1       0.441   9.336  22.562  0.00  0.00    +0.000 N 
ATOM     12  O   UNL     1       1.214   9.640  23.422  0.00  0.00    +0.000 OA
ATOM     13  O   UNL     1      -0.836   9.278  22.860  0.00  0.00    +0.000 OA
ENDBRANCH   7  11
ENDBRANCH   2   5
BRANCH   1  14
ATOM     14  C   UNL     1       4.332   4.669  19.172  0.00  0.00    +0.000 C 
BRANCH  14  15
ATOM     15  C   UNL     1       4.058   3.353  19.858  0.00  0.00    +0.000 C 
ATOM     16  O   UNL     1       4.951   2.523  19.975  0.00  0.00    +0.000 OA
BRANCH  15  18
ATOM     17  C   UNL     1       1.870   2.378  19.548  0.00  0.00    +0.000 C 
ATOM     18  O   UNL     1       2.797   3.084  20.284  0.00  0.00    +0.000 OA
ENDBRANCH  15  18
ENDBRANCH  14  15
BRANCH  14  19
ATOM     19  C   UNL     1       5.850   4.988  19.242  0.00  0.00    +0.000 C 
BRANCH  19  20
ATOM     20  C   UNL     1       6.584   4.904  17.881  0.00  0.00    +0.000 C 
BRANCH  20  21
ATOM     21  C   UNL     1       5.627   4.580  16.723  0.00  0.00    +0.000 C 
BRANCH  21  22
ATOM     22  C   UNL     1       6.368   4.293  15.416  0.00  0.00    +0.000 C 
BRANCH  22  23
ATOM     23  N   UNL     1       7.426   5.281  15.227  0.00  0.00    +0.000 NA
ATOM     24  H   UNL     1       7.852   5.514  16.155  0.00  0.00    +0.000 HD
ATOM     25  H   UNL     1       7.005   6.156  14.842  0.00  0.00    +0.000 HD
ENDBRANCH  22  23
ENDBRANCH  21  22
ENDBRANCH  20  21
ENDBRANCH  19  20
ENDBRANCH  14  19
ENDBRANCH   1  14
TORSDOF 10
ENDMDL
MODEL 6
REMARK VINA RESULT:      -6.1      2.359      3.774
REMARK  Name = 
REMARK  12 active torsions:
REMARK  status: ('A' for Active; 'I' for Inactive)
REMARK    1  A    between atoms: C_1  and  O_2
REMARK    2  A    between atoms: O_2  and  C_3
REMARK    3  A    between atoms: C_3  and  C_5
REMARK    4  A    between atoms: C_5  and  C_6
REMARK    5  A    between atoms: C_5  and  N_11
REMARK    6  A    between atoms: C_6  and  C_7
REMARK    7  A    between atoms: C_7  and  C_8
REMARK    8  A    between atoms: C_8  and  C_9
REMARK    9  A    between atoms: C_9  and  N_10
REMARK   10  A    between atoms: C_12  and  C_14
REMARK   11  A    between atoms: C_16  and  N_17
REMARK   12  A    between atoms: C_20  and  C_21
REMARK                            x       y       z     vdW  Elec       q    Type
REMARK                         _______ _______ _______ _____ _____    ______ ____
ROOT
ATOM      1  N   UNL     1       3.255   5.373  17.744  0.00  0.00    +0.000 N 
ATOM      2  C   UNL     1       3.356   6.006  18.952  0.00  0.00    +0.000 C 
ATOM      3  O   UNL     1       4.155   5.610  19.787  0.00  0.00    +0.000 OA
ATOM      4  H   UNL     1       2.566   5.709  17.057  0.00  0.00    +0.000 HD
ENDROOT
BRANCH   2   5
ATOM      5  C   UNL     1       2.483   7.162  19.299  0.00  0.00    +0.000 A 
ATOM      6  C   UNL     1       1.899   7.437  20.533  0.00  0.00    +0.000 A 
ATOM      7  C   UNL     1       1.148   8.633  20.572  0.00  0.00    +0.000 A 
ATOM      8  C   UNL     1       1.146   9.311  19.336  0.00  0.00    +0.000 A 
ATOM      9  C   UNL     1       0.491  10.608  18.936  0.00  0.00    +0.000 C 
ATOM     10  S   UNL     1       2.062   8.406  18.247  0.00  0.00    +0.000 S 
BRANCH   7  11
ATOM     11  N   UNL     1       0.490   9.057  21.768  0.00  0.00    +0.000 N 
ATOM     12  O   UNL     1      -0.617   8.674  22.005  0.00  0.00    +0.000 OA
ATOM     13  O   UNL     1       1.069   9.869  22.623  0.00  0.00    +0.000 OA
ENDBRANCH   7  11
ENDBRANCH   2   5
BRANCH   1  14
ATOM     14  C   UNL     1       4.029   4.183  17.405  0.00  0.00    +0.000 C 
BRANCH  14  15
ATOM     15  C   UNL     1       5.127   4.496  16.418  0.00  0.00    +0.000 C 
ATOM     16  O   UNL     1       5.056   4.081  15.268  0.00  0.00    +0.000 OA
BRANCH  15  18
ATOM     17  C   UNL     1       7.312   4.607  17.443  0.00  0.00    +0.000 C 
ATOM     18  O   UNL     1       6.215   5.188  16.842  0.00  0.00    +0.000 OA
ENDBRANCH  15  18
ENDBRANCH  14  15
BRANCH  14  19
ATOM     19  C   UNL     1       3.109   3.073  16.828  0.00  0.00    +0.000 C 
BRANCH  19  20
ATOM     20  C   UNL     1       2.652   2.020  17.866  0.00  0.00    +0.000 C 
BRANCH  20  21
ATOM     21  C   UNL     1       1.363   2.437  18.591  0.00  0.00    +0.000 C 
BRANCH  21  22
ATOM     22  C   UNL     1       1.615   2.849  20.042  0.00  0.00    +0.000 C 
BRANCH  22  23
ATOM     23  N   UNL     1       0.669   3.892  20.425  0.00  0.00    +0.000 NA
ATOM     24  H   UNL     1      -0.142   3.886  19.761  0.00  0.00    +0.000 HD
ATOM     25  H   UNL     1       1.139   4.821  20.342  0.00  0.00    +0.000 HD
ENDBRANCH  22  23
ENDBRANCH  21  22
ENDBRANCH  20  21
ENDBRANCH  19  20
ENDBRANCH  14  19
ENDBRANCH   1  14
TORSDOF 10
ENDMDL
MODEL 7
REMARK VINA RESULT:      -6.1      4.419      8.025
REMARK  Name = 
REMARK  12 active torsions:
REMARK  status: ('A' for Active; 'I' for Inactive)
REMARK    1  A    between atoms: C_1  and  O_2
REMARK    2  A    between atoms: O_2  and  C_3
REMARK    3  A    between atoms: C_3  and  C_5
REMARK    4  A    between atoms: C_5  and  C_6
REMARK    5  A    between atoms: C_5  and  N_11
REMARK    6  A    between atoms: C_6  and  C_7
REMARK    7  A    between atoms: C_7  and  C_8
REMARK    8  A    between atoms: C_8  and  C_9
REMARK    9  A    between atoms: C_9  and  N_10
REMARK   10  A    between atoms: C_12  and  C_14
REMARK   11  A    between atoms: C_16  and  N_17
REMARK   12  A    between atoms: C_20  and  C_21
REMARK                            x       y       z     vdW  Elec       q    Type
REMARK                         _______ _______ _______ _____ _____    ______ ____
ROOT
ATOM      1  N   UNL     1       1.240   8.686  20.248  0.00  0.00    +0.000 N 
ATOM      2  C   UNL     1       2.055   8.032  19.366  0.00  0.00    +0.000 C 
ATOM      3  O   UNL     1       2.456   8.604  18.363  0.00  0.00    +0.000 OA
ATOM      4  H   UNL     1       0.898   8.186  21.081  0.00  0.00    +0.000 HD
ENDROOT
BRANCH   2   5
ATOM      5  C   UNL     1       2.447   6.611  19.576  0.00  0.00    +0.000 A 
ATOM      6  C   UNL     1       1.833   5.682  20.413  0.00  0.00    +0.000 A 
ATOM      7  C   UNL     1       2.408   4.392  20.376  0.00  0.00    +0.000 A 
ATOM      8  C   UNL     1       3.499   4.311  19.487  0.00  0.00    +0.000 A 
ATOM      9  C   UNL     1       4.386   3.144  19.136  0.00  0.00    +0.000 C 
ATOM     10  S   UNL     1       3.713   5.831  18.791  0.00  0.00    +0.000 S 
BRANCH   7  11
ATOM     11  N   UNL     1       1.889   3.326  21.174  0.00  0.00    +0.000 N 
ATOM     12  O   UNL     1       2.228   3.218  22.315  0.00  0.00    +0.000 OA
ATOM     13  O   UNL     1       1.044   2.447  20.686  0.00  0.00    +0.000 OA
ENDBRANCH   7  11
ENDBRANCH   2   5
BRANCH   1  14
ATOM     14  C   UNL     1       0.763  10.048  20.028  0.00  0.00    +0.000 C 
BRANCH  14  15
ATOM     15  C   UNL     1       0.778  10.856  21.304  0.00  0.00    +0.000 C 
ATOM     16  O   UNL     1       1.025  12.054  21.268  0.00  0.00    +0.000 OA
BRANCH  15  18
ATOM     17  C   UNL     1      -0.646  10.142  23.120  0.00  0.00    +0.000 C 
ATOM     18  O   UNL     1       0.576  10.220  22.486  0.00  0.00    +0.000 OA
ENDBRANCH  15  18
ENDBRANCH  14  15
BRANCH  14  19
ATOM     19  C   UNL     1      -0.671  10.039  19.433  0.00  0.00    +0.000 C 
BRANCH  19  20
ATOM     20  C   UNL     1      -0.722   9.912  17.891  0.00  0.00    +0.000 C 
BRANCH  20  21
ATOM     21  C   UNL     1      -2.142  10.105  17.336  0.00  0.00    +0.000 C 
BRANCH  21  22
ATOM     22  C   UNL     1      -2.847  11.319  17.943  0.00  0.00    +0.000 C 
BRANCH  22  23
ATOM     23  N   UNL     1      -3.826  11.840  16.994  0.00  0.00    +0.000 NA
ATOM     24  H   UNL     1      -3.779  12.887  16.988  0.00  0.00    +0.000 HD
ATOM     25  H   UNL     1      -4.783  11.567  17.313  0.00  0.00    +0.000 HD
ENDBRANCH  22  23
ENDBRANCH  21  22
ENDBRANCH  20  21
ENDBRANCH  19  20
ENDBRANCH  14  19
ENDBRANCH   1  14
TORSDOF 10
ENDMDL
MODEL 8
REMARK VINA RESULT:      -6.1      2.878      3.807
REMARK  Name = 
REMARK  12 active torsions:
REMARK  status: ('A' for Active; 'I' for Inactive)
REMARK    1  A    between atoms: C_1  and  O_2
REMARK    2  A    between atoms: O_2  and  C_3
REMARK    3  A    between atoms: C_3  and  C_5
REMARK    4  A    between atoms: C_5  and  C_6
REMARK    5  A    between atoms: C_5  and  N_11
REMARK    6  A    between atoms: C_6  and  C_7
REMARK    7  A    between atoms: C_7  and  C_8
REMARK    8  A    between atoms: C_8  and  C_9
REMARK    9  A    between atoms: C_9  and  N_10
REMARK   10  A    between atoms: C_12  and  C_14
REMARK   11  A    between atoms: C_16  and  N_17
REMARK   12  A    between atoms: C_20  and  C_21
REMARK                            x       y       z     vdW  Elec       q    Type
REMARK                         _______ _______ _______ _____ _____    ______ ____
ROOT
ATOM      1  N   UNL     1       3.326   5.159  19.264  0.00  0.00    +0.000 N 
ATOM      2  C   UNL     1       3.185   6.331  18.575  0.00  0.00    +0.000 C 
ATOM      3  O   UNL     1       3.772   6.493  17.515  0.00  0.00    +0.000 OA
ATOM      4  H   UNL     1       2.838   5.043  20.163  0.00  0.00    +0.000 HD
ENDROOT
BRANCH   2   5
ATOM      5  C   UNL     1       2.351   7.447  19.101  0.00  0.00    +0.000 A 
ATOM      6  C   UNL     1       1.878   7.605  20.402  0.00  0.00    +0.000 A 
ATOM      7  C   UNL     1       1.139   8.790  20.615  0.00  0.00    +0.000 A 
ATOM      8  C   UNL     1       1.034   9.580  19.452  0.00  0.00    +0.000 A 
ATOM      9  C   UNL     1       0.353  10.906  19.232  0.00  0.00    +0.000 C 
ATOM     10  S   UNL     1       1.848   8.782  18.210  0.00  0.00    +0.000 S 
BRANCH   7  11
ATOM     11  N   UNL     1       0.589   9.100  21.898  0.00  0.00    +0.000 N 
ATOM     12  O   UNL     1       1.266   9.647  22.718  0.00  0.00    +0.000 OA
ATOM     13  O   UNL     1      -0.649   8.795  22.210  0.00  0.00    +0.000 OA
ENDBRANCH   7  11
ENDBRANCH   2   5
BRANCH   1  14
ATOM     14  C   UNL     1       4.206   4.081  18.824  0.00  0.00    +0.000 C 
BRANCH  14  15
ATOM     15  C   UNL     1       5.650   4.521  18.784  0.00  0.00    +0.000 C 
ATOM     16  O   UNL     1       6.154   5.059  19.761  0.00  0.00    +0.000 OA
BRANCH  15  18
ATOM     17  C   UNL     1       7.699   4.631  17.510  0.00  0.00    +0.000 C 
ATOM     18  O   UNL     1       6.352   4.367  17.632  0.00  0.00    +0.000 OA
ENDBRANCH  15  18
ENDBRANCH  14  15
BRANCH  14  19
ATOM     19  C   UNL     1       3.780   3.560  17.424  0.00  0.00    +0.000 C 
BRANCH  19  20
ATOM     20  C   UNL     1       2.355   2.960  17.372  0.00  0.00    +0.000 C 
BRANCH  20  21
ATOM     21  C   UNL     1       2.001   2.186  18.652  0.00  0.00    +0.000 C 
BRANCH  21  22
ATOM     22  C   UNL     1       0.620   2.554  19.195  0.00  0.00    +0.000 C 
BRANCH  22  23
ATOM     23  N   UNL     1       0.764   3.509  20.291  0.00  0.00    +0.000 NA
ATOM     24  H   UNL     1       1.699   3.976  20.221  0.00  0.00    +0.000 HD
ATOM     25  H   UNL     1       0.736   2.990  21.196  0.00  0.00    +0.000 HD
ENDBRANCH  22  23
ENDBRANCH  21  22
ENDBRANCH  20  21
ENDBRANCH  19  20
ENDBRANCH  14  19
ENDBRANCH   1  14
TORSDOF 10
ENDMDL
MODEL 9
REMARK VINA RESULT:      -6.1      2.990      3.806
REMARK  Name = 
REMARK  12 active torsions:
REMARK  status: ('A' for Active; 'I' for Inactive)
REMARK    1  A    between atoms: C_1  and  O_2
REMARK    2  A    between atoms: O_2  and  C_3
REMARK    3  A    between atoms: C_3  and  C_5
REMARK    4  A    between atoms: C_5  and  C_6
REMARK    5  A    between atoms: C_5  and  N_11
REMARK    6  A    between atoms: C_6  and  C_7
REMARK    7  A    between atoms: C_7  and  C_8
REMARK    8  A    between atoms: C_8  and  C_9
REMARK    9  A    between atoms: C_9  and  N_10
REMARK   10  A    between atoms: C_12  and  C_14
REMARK   11  A    between atoms: C_16  and  N_17
REMARK   12  A    between atoms: C_20  and  C_21
REMARK                            x       y       z     vdW  Elec       q    Type
REMARK                         _______ _______ _______ _____ _____    ______ ____
ROOT
ATOM      1  N   UNL     1       2.456   6.731  18.719  0.00  0.00    +0.000 N 
ATOM      2  C   UNL     1       2.177   8.022  18.364  0.00  0.00    +0.000 C 
ATOM      3  O   UNL     1       2.498   8.437  17.259  0.00  0.00    +0.000 OA
ATOM      4  H   UNL     1       2.193   6.401  19.658  0.00  0.00    +0.000 HD
ENDROOT
BRANCH   2   5
ATOM      5  C   UNL     1       1.513   8.962  19.309  0.00  0.00    +0.000 A 
ATOM      6  C   UNL     1       1.216   8.739  20.651  0.00  0.00    +0.000 A 
ATOM      7  C   UNL     1       0.615   9.835  21.307  0.00  0.00    +0.000 A 
ATOM      8  C   UNL     1       0.437  10.945  20.456  0.00  0.00    +0.000 A 
ATOM      9  C   UNL     1      -0.148  12.305  20.736  0.00  0.00    +0.000 C 
ATOM     10  S   UNL     1       1.022  10.526  18.931  0.00  0.00    +0.000 S 
BRANCH   7  11
ATOM     11  N   UNL     1       0.254   9.766  22.689  0.00  0.00    +0.000 N 
ATOM     12  O   UNL     1       1.093   9.545  23.511  0.00  0.00    +0.000 OA
ATOM     13  O   UNL     1      -0.985   9.935  23.088  0.00  0.00    +0.000 OA
ENDBRANCH   7  11
ENDBRANCH   2   5
BRANCH   1  14
ATOM     14  C   UNL     1       3.185   5.810  17.853  0.00  0.00    +0.000 C 
BRANCH  14  15
ATOM     15  C   UNL     1       2.660   4.399  17.973  0.00  0.00    +0.000 C 
ATOM     16  O   UNL     1       1.682   4.051  17.325  0.00  0.00    +0.000 OA
BRANCH  15  18
ATOM     17  C   UNL     1       2.557   2.766  19.749  0.00  0.00    +0.000 C 
ATOM     18  O   UNL     1       3.251   3.552  18.855  0.00  0.00    +0.000 OA
ENDBRANCH  15  18
ENDBRANCH  14  15
BRANCH  14  19
ATOM     19  C   UNL     1       4.703   5.832  18.179  0.00  0.00    +0.000 C 
BRANCH  19  20
ATOM     20  C   UNL     1       5.543   6.742  17.251  0.00  0.00    +0.000 C 
BRANCH  20  21
ATOM     21  C   UNL     1       6.881   6.097  16.857  0.00  0.00    +0.000 C 
BRANCH  21  22
ATOM     22  C   UNL     1       6.876   4.580  17.043  0.00  0.00    +0.000 C 
BRANCH  22  23
ATOM     23  N   UNL     1       8.108   4.166  17.709  0.00  0.00    +0.000 NA
ATOM     24  H   UNL     1       8.920   4.322  17.065  0.00  0.00    +0.000 HD
ATOM     25  H   UNL     1       8.055   3.142  17.910  0.00  0.00    +0.000 HD
ENDBRANCH  22  23
ENDBRANCH  21  22
ENDBRANCH  20  21
ENDBRANCH  19  20
ENDBRANCH  14  19
ENDBRANCH   1  14
TORSDOF 10
ENDMDL
