MODEL 1
REMARK VINA RESULT:      -9.4      0.000      0.000
REMARK  Name = 
REMARK  5 active torsions:
REMARK  status: ('A' for Active; 'I' for Inactive)
REMARK    1  A    between atoms: C_6  and  N_7
REMARK    2  A    between atoms: C_12  and  N_13
REMARK    3  A    between atoms: C_15  and  C_16
REMARK    4  A    between atoms: N_18  and  C_19
REMARK    5  A    between atoms: C_19  and  C_20
REMARK                            x       y       z     vdW  Elec       q    Type
REMARK                         _______ _______ _______ _____ _____    ______ ____
ROOT
ATOM      1  N   UNL     1       9.066   8.932  19.171  0.00  0.00    +0.000 N 
ATOM      2  C   UNL     1       8.256   8.394  18.201  0.00  0.00    +0.000 C 
ATOM      3  O   UNL     1       7.724   9.045  17.297  0.00  0.00    +0.000 OA
ATOM      4  N   UNL     1       7.962   7.058  18.304  0.00  0.00    +0.000 N 
ATOM      5  C   UNL     1       8.521   6.070  19.218  0.00  0.00    +0.000 C 
ATOM      6  C   UNL     1       7.642   4.829  19.000  0.00  0.00    +0.000 C 
ATOM      7  C   UNL     1       7.389   4.897  17.491  0.00  0.00    +0.000 C 
ATOM      8  C   UNL     1       7.243   6.396  17.198  0.00  0.00    +0.000 C 
ATOM      9  H   UNL     1       9.739   8.329  19.626  0.00  0.00    +0.000 HD
ENDROOT
BRANCH   1  15
ATOM     10  N   UNL     1       9.840  13.685  16.889  0.00  0.00    +0.000 N 
ATOM     11  C   UNL     1      10.485  13.483  18.075  0.00  0.00    +0.000 C 
ATOM     12  O   UNL     1      11.368  14.176  18.548  0.00  0.00    +0.000 OA
ATOM     13  N   UNL     1       9.936  12.402  18.783  0.00  0.00    +0.000 N 
ATOM     14  C   UNL     1       9.693  11.143  18.274  0.00  0.00    +0.000 A 
ATOM     15  C   UNL     1       9.284  10.309  19.288  0.00  0.00    +0.000 A 
ATOM     16  C   UNL     1       9.098  11.127  20.442  0.00  0.00    +0.000 A 
ATOM     17  C   UNL     1       8.622  10.903  21.754  0.00  0.00    +0.000 A 
ATOM     18  C   UNL     1       8.557  11.971  22.662  0.00  0.00    +0.000 A 
ATOM     19  C   UNL     1       8.970  13.247  22.293  0.00  0.00    +0.000 A 
ATOM     20  C   UNL     1       9.477  13.490  21.017  0.00  0.00    +0.000 A 
ATOM     21  C   UNL     1       9.534  12.417  20.110  0.00  0.00    +0.000 A 
ATOM     22  H   UNL     1      10.084  14.528  16.385  0.00  0.00    +0.000 HD
ATOM     23  H   UNL     1       8.905  13.322  16.742  0.00  0.00    +0.000 HD
ENDBRANCH   1  15
BRANCH   8  24
ATOM     24  C   UNL     1       5.745   6.748  16.974  0.00  0.00    +0.000 C 
ATOM     25  O   UNL     1       5.386   7.428  16.011  0.00  0.00    +0.000 OA
ATOM     26  N   UNL     1       4.851   6.253  17.898  0.00  0.00    +0.000 N 
ATOM     27  H   UNL     1       5.233   5.991  18.798  0.00  0.00    +0.000 HD
BRANCH  26  28
ATOM     28  C   UNL     1       3.446   6.588  17.850  0.00  0.00    +0.000 C 
BRANCH  28  29
ATOM     29  C   UNL     1       2.589   5.687  18.694  0.00  0.00    +0.000 A 
ATOM     30  C   UNL     1       2.268   6.025  20.021  0.00  0.00    +0.000 A 
ATOM     31  C   UNL     1       1.411   5.216  20.781  0.00  0.00    +0.000 A 
ATOM     32  C   UNL     1       0.875   4.053  20.229  0.00  0.00    +0.000 A 
ATOM     33  C   UNL     1       1.218   3.697  18.928  0.00  0.00    +0.000 A 
ATOM     34  F   UNL     1       0.705   2.575  18.401  0.00  0.00    +0.000 F 
ATOM     35  C   UNL     1       2.068   4.502  18.170  0.00  0.00    +0.000 A 
ATOM     36  F   UNL     1       2.362   4.141  16.911  0.00  0.00    +0.000 F 
ENDBRANCH  28  29
ENDBRANCH  26  28
ENDBRANCH   8  24
BRANCH   6  37
ATOM     37  N   UNL     1       6.379   4.912  19.742  0.00  0.00    +0.000 NA
ATOM     38  H   UNL     1       6.503   4.532  20.683  0.00  0.00    +0.000 HD
ATOM     39  H   UNL     1       5.673   4.325  19.299  0.00  0.00    +0.000 HD
ENDBRANCH   6  37
TORSDOF 5
ENDMDL
MODEL 2
REMARK VINA RESULT:      -9.4      1.951      2.274
REMARK  Name = 
REMARK  5 active torsions:
REMARK  status: ('A' for Active; 'I' for Inactive)
REMARK    1  A    between atoms: C_6  and  N_7
REMARK    2  A    between atoms: C_12  and  N_13
REMARK    3  A    between atoms: C_15  and  C_16
REMARK    4  A    between atoms: N_18  and  C_19
REMARK    5  A    between atoms: C_19  and  C_20
REMARK                            x       y       z     vdW  Elec       q    Type
REMARK                         _______ _______ _______ _____ _____    ______ ____
ROOT
ATOM      1  N   UNL     1       8.940   8.834  19.209  0.00  0.00    +0.000 N 
ATOM      2  C   UNL     1       8.232   8.297  18.162  0.00  0.00    +0.000 C 
ATOM      3  O   UNL     1       7.902   8.920  17.150  0.00  0.00    +0.000 OA
ATOM      4  N   UNL     1       7.800   7.001  18.301  0.00  0.00    +0.000 N 
ATOM      5  C   UNL     1       8.124   6.041  19.349  0.00  0.00    +0.000 C 
ATOM      6  C   UNL     1       7.171   4.867  19.077  0.00  0.00    +0.000 C 
ATOM      7  C   UNL     1       7.148   4.842  17.546  0.00  0.00    +0.000 C 
ATOM      8  C   UNL     1       7.190   6.322  17.142  0.00  0.00    +0.000 C 
ATOM      9  H   UNL     1       9.479   8.213  19.796  0.00  0.00    +0.000 HD
ENDROOT
BRANCH   1  15
ATOM     10  N   UNL     1      10.122  13.410  16.745  0.00  0.00    +0.000 N 
ATOM     11  C   UNL     1      10.738  13.205  17.946  0.00  0.00    +0.000 C 
ATOM     12  O   UNL     1      11.671  13.843  18.401  0.00  0.00    +0.000 OA
ATOM     13  N   UNL     1      10.096  12.203  18.690  0.00  0.00    +0.000 N 
ATOM     14  C   UNL     1       9.754  10.948  18.230  0.00  0.00    +0.000 A 
ATOM     15  C   UNL     1       9.270  10.193  19.272  0.00  0.00    +0.000 A 
ATOM     16  C   UNL     1       9.141  11.071  20.390  0.00  0.00    +0.000 A 
ATOM     17  C   UNL     1       8.636  10.941  21.703  0.00  0.00    +0.000 A 
ATOM     18  C   UNL     1       8.650  12.047  22.566  0.00  0.00    +0.000 A 
ATOM     19  C   UNL     1       9.170  13.269  22.151  0.00  0.00    +0.000 A 
ATOM     20  C   UNL     1       9.707  13.417  20.872  0.00  0.00    +0.000 A 
ATOM     21  C   UNL     1       9.684  12.306  20.011  0.00  0.00    +0.000 A 
ATOM     22  H   UNL     1      10.439  14.208  16.210  0.00  0.00    +0.000 HD
ATOM     23  H   UNL     1       9.162  13.119  16.601  0.00  0.00    +0.000 HD
ENDBRANCH   1  15
BRANCH   8  24
ATOM     24  C   UNL     1       5.780   6.782  16.673  0.00  0.00    +0.000 C 
ATOM     25  O   UNL     1       5.502   6.863  15.475  0.00  0.00    +0.000 OA
ATOM     26  N   UNL     1       4.869   7.082  17.661  0.00  0.00    +0.000 N 
ATOM     27  H   UNL     1       5.250   7.298  18.574  0.00  0.00    +0.000 HD
BRANCH  26  28
ATOM     28  C   UNL     1       3.559   7.608  17.351  0.00  0.00    +0.000 C 
BRANCH  28  29
ATOM     29  C   UNL     1       2.664   7.724  18.553  0.00  0.00    +0.000 A 
ATOM     30  C   UNL     1       2.614   6.705  19.522  0.00  0.00    +0.000 A 
ATOM     31  C   UNL     1       1.831   6.850  20.676  0.00  0.00    +0.000 A 
ATOM     32  C   UNL     1       1.078   8.007  20.870  0.00  0.00    +0.000 A 
ATOM     33  C   UNL     1       1.098   9.003  19.897  0.00  0.00    +0.000 A 
ATOM     34  F   UNL     1       0.369  10.114  20.085  0.00  0.00    +0.000 F 
ATOM     35  C   UNL     1       1.878   8.862  18.751  0.00  0.00    +0.000 A 
ATOM     36  F   UNL     1       1.892   9.850  17.842  0.00  0.00    +0.000 F 
ENDBRANCH  28  29
ENDBRANCH  26  28
ENDBRANCH   8  24
BRANCH   6  37
ATOM     37  N   UNL     1       5.827   5.112  19.613  0.00  0.00    +0.000 NA
ATOM     38  H   UNL     1       5.171   4.426  19.234  0.00  0.00    +0.000 HD
ATOM     39  H   UNL     1       5.486   6.021  19.302  0.00  0.00    +0.000 HD
ENDBRANCH   6  37
TORSDOF 5
ENDMDL
MODEL 3
REMARK VINA RESULT:      -9.2      1.230      2.308
REMARK  Name = 
REMARK  5 active torsions:
REMARK  status: ('A' for Active; 'I' for Inactive)
REMARK    1  A    between atoms: C_6  and  N_7
REMARK    2  A    between atoms: C_12  and  N_13
REMARK    3  A    between atoms: C_15  and  C_16
REMARK    4  A    between atoms: N_18  and  C_19
REMARK    5  A    between atoms: C_19  and  C_20
REMARK                            x       y       z     vdW  Elec       q    Type
REMARK                         _______ _______ _______ _____ _____    ______ ____
ROOT
ATOM      1  N   UNL     1       8.969   8.813  19.314  0.00  0.00    +0.000 N 
ATOM      2  C   UNL     1       8.153   8.395  18.292  0.00  0.00    +0.000 C 
ATOM      3  O   UNL     1       7.577   9.151  17.505  0.00  0.00    +0.000 OA
ATOM      4  N   UNL     1       7.907   7.048  18.202  0.00  0.00    +0.000 N 
ATOM      5  C   UNL     1       8.523   5.958  18.948  0.00  0.00    +0.000 C 
ATOM      6  C   UNL     1       7.681   4.731  18.567  0.00  0.00    +0.000 C 
ATOM      7  C   UNL     1       7.386   5.010  17.090  0.00  0.00    +0.000 C 
ATOM      8  C   UNL     1       7.183   6.530  17.025  0.00  0.00    +0.000 C 
ATOM      9  H   UNL     1       9.674   8.176  19.660  0.00  0.00    +0.000 HD
ENDROOT
BRANCH   1  15
ATOM     10  N   UNL     1       8.881  12.760  22.895  0.00  0.00    +0.000 N 
ATOM     11  C   UNL     1       8.526  13.104  21.622  0.00  0.00    +0.000 C 
ATOM     12  O   UNL     1       7.995  14.143  21.273  0.00  0.00    +0.000 OA
ATOM     13  N   UNL     1       8.941  12.138  20.692  0.00  0.00    +0.000 N 
ATOM     14  C   UNL     1       8.720  10.779  20.784  0.00  0.00    +0.000 A 
ATOM     15  C   UNL     1       9.144  10.165  19.629  0.00  0.00    +0.000 A 
ATOM     16  C   UNL     1       9.816  11.161  18.859  0.00  0.00    +0.000 A 
ATOM     17  C   UNL     1      10.534  11.159  17.642  0.00  0.00    +0.000 A 
ATOM     18  C   UNL     1      11.095  12.353  17.164  0.00  0.00    +0.000 A 
ATOM     19  C   UNL     1      10.941  13.545  17.865  0.00  0.00    +0.000 A 
ATOM     20  C   UNL     1      10.208  13.583  19.052  0.00  0.00    +0.000 A 
ATOM     21  C   UNL     1       9.654  12.382  19.528  0.00  0.00    +0.000 A 
ATOM     22  H   UNL     1       8.741  13.467  23.605  0.00  0.00    +0.000 HD
ATOM     23  H   UNL     1       9.625  12.091  23.060  0.00  0.00    +0.000 HD
ENDBRANCH   1  15
BRANCH   8  24
ATOM     24  C   UNL     1       5.668   6.855  16.887  0.00  0.00    +0.000 C 
ATOM     25  O   UNL     1       5.220   7.390  15.871  0.00  0.00    +0.000 OA
ATOM     26  N   UNL     1       4.863   6.505  17.949  0.00  0.00    +0.000 N 
ATOM     27  H   UNL     1       5.325   6.373  18.840  0.00  0.00    +0.000 HD
BRANCH  26  28
ATOM     28  C   UNL     1       3.457   6.838  17.978  0.00  0.00    +0.000 C 
BRANCH  28  29
ATOM     29  C   UNL     1       2.629   5.858  18.761  0.00  0.00    +0.000 A 
ATOM     30  C   UNL     1       2.208   6.147  20.072  0.00  0.00    +0.000 A 
ATOM     31  C   UNL     1       1.377   5.261  20.771  0.00  0.00    +0.000 A 
ATOM     32  C   UNL     1       0.967   4.069  20.175  0.00  0.00    +0.000 A 
ATOM     33  C   UNL     1       1.409   3.763  18.891  0.00  0.00    +0.000 A 
ATOM     34  F   UNL     1       1.016   2.614  18.322  0.00  0.00    +0.000 F 
ATOM     35  C   UNL     1       2.233   4.645  18.194  0.00  0.00    +0.000 A 
ATOM     36  F   UNL     1       2.625   4.329  16.948  0.00  0.00    +0.000 F 
ENDBRANCH  28  29
ENDBRANCH  26  28
ENDBRANCH   8  24
BRANCH   6  37
ATOM     37  N   UNL     1       6.435   4.656  19.339  0.00  0.00    +0.000 NA
ATOM     38  H   UNL     1       5.751   4.082  18.841  0.00  0.00    +0.000 HD
ATOM     39  H   UNL     1       6.015   5.580  19.417  0.00  0.00    +0.000 HD
ENDBRANCH   6  37
TORSDOF 5
ENDMDL
MODEL 4
REMARK VINA RESULT:      -9.0      6.088      9.871
REMARK  Name = 
REMARK  5 active torsions:
REMARK  status: ('A' for Active; 'I' for Inactive)
REMARK    1  A    between atoms: C_6  and  N_7
REMARK    2  A    between atoms: C_12  and  N_13
REMARK    3  A    between atoms: C_15  and  C_16
REMARK    4  A    between atoms: N_18  and  C_19
REMARK    5  A    between atoms: C_19  and  C_20
REMARK                            x       y       z     vdW  Elec       q    Type
REMARK                         _______ _______ _______ _____ _____    ______ ____
ROOT
ATOM      1  N   UNL     1       1.913   7.693  18.881  0.00  0.00    +0.000 N 
ATOM      2  C   UNL     1       1.683   8.987  18.483  0.00  0.00    +0.000 C 
ATOM      3  O   UNL     1       2.185   9.509  17.484  0.00  0.00    +0.000 OA
ATOM      4  N   UNL     1       0.902   9.763  19.303  0.00  0.00    +0.000 N 
ATOM      5  C   UNL     1       0.137   9.362  20.477  0.00  0.00    +0.000 C 
ATOM      6  C   UNL     1      -0.329  10.695  21.083  0.00  0.00    +0.000 C 
ATOM      7  C   UNL     1      -0.617  11.518  19.823  0.00  0.00    +0.000 C 
ATOM      8  C   UNL     1       0.482  11.098  18.837  0.00  0.00    +0.000 C 
ATOM      9  H   UNL     1       1.217   7.233  19.452  0.00  0.00    +0.000 HD
ENDROOT
BRANCH   1  15
ATOM     10  N   UNL     1       6.802   6.898  16.915  0.00  0.00    +0.000 N 
ATOM     11  C   UNL     1       5.785   6.278  16.248  0.00  0.00    +0.000 C 
ATOM     12  O   UNL     1       5.852   5.752  15.151  0.00  0.00    +0.000 OA
ATOM     13  N   UNL     1       4.621   6.214  17.028  0.00  0.00    +0.000 N 
ATOM     14  C   UNL     1       4.036   7.269  17.698  0.00  0.00    +0.000 A 
ATOM     15  C   UNL     1       2.839   6.863  18.238  0.00  0.00    +0.000 A 
ATOM     16  C   UNL     1       2.759   5.452  18.046  0.00  0.00    +0.000 A 
ATOM     17  C   UNL     1       1.846   4.445  18.434  0.00  0.00    +0.000 A 
ATOM     18  C   UNL     1       2.088   3.111  18.075  0.00  0.00    +0.000 A 
ATOM     19  C   UNL     1       3.210   2.765  17.328  0.00  0.00    +0.000 A 
ATOM     20  C   UNL     1       4.110   3.742  16.903  0.00  0.00    +0.000 A 
ATOM     21  C   UNL     1       3.864   5.076  17.270  0.00  0.00    +0.000 A 
ATOM     22  H   UNL     1       7.713   6.861  16.475  0.00  0.00    +0.000 HD
ATOM     23  H   UNL     1       6.788   6.968  17.926  0.00  0.00    +0.000 HD
ENDBRANCH   1  15
BRANCH   8  24
ATOM     24  C   UNL     1       1.556  12.218  18.735  0.00  0.00    +0.000 C 
ATOM     25  O   UNL     1       2.370  12.238  17.810  0.00  0.00    +0.000 OA
ATOM     26  N   UNL     1       1.539  13.181  19.720  0.00  0.00    +0.000 N 
ATOM     27  H   UNL     1       1.075  12.931  20.585  0.00  0.00    +0.000 HD
BRANCH  26  28
ATOM     28  C   UNL     1       2.543  14.218  19.786  0.00  0.00    +0.000 C 
BRANCH  28  29
ATOM     29  C   UNL     1       2.094  15.521  19.184  0.00  0.00    +0.000 A 
ATOM     30  C   UNL     1       1.187  16.358  19.859  0.00  0.00    +0.000 A 
ATOM     31  C   UNL     1       0.827  17.603  19.326  0.00  0.00    +0.000 A 
ATOM     32  C   UNL     1       1.357  18.022  18.106  0.00  0.00    +0.000 A 
ATOM     33  C   UNL     1       2.227  17.181  17.418  0.00  0.00    +0.000 A 
ATOM     34  F   UNL     1       2.732  17.585  16.243  0.00  0.00    +0.000 F 
ATOM     35  C   UNL     1       2.589  15.944  17.948  0.00  0.00    +0.000 A 
ATOM     36  F   UNL     1       3.448  15.166  17.270  0.00  0.00    +0.000 F 
ENDBRANCH  28  29
ENDBRANCH  26  28
ENDBRANCH   8  24
BRANCH   6  37
ATOM     37  N   UNL     1       0.719  11.331  21.889  0.00  0.00    +0.000 NA
ATOM     38  H   UNL     1       1.067  12.165  21.412  0.00  0.00    +0.000 HD
ATOM     39  H   UNL     1       1.521  10.708  21.976  0.00  0.00    +0.000 HD
ENDBRANCH   6  37
TORSDOF 5
ENDMDL
MODEL 5
REMARK VINA RESULT:      -9.0      1.004      1.317
REMARK  Name = 
REMARK  5 active torsions:
REMARK  status: ('A' for Active; 'I' for Inactive)
REMARK    1  A    between atoms: C_6  and  N_7
REMARK    2  A    between atoms: C_12  and  N_13
REMARK    3  A    between atoms: C_15  and  C_16
REMARK    4  A    between atoms: N_18  and  C_19
REMARK    5  A    between atoms: C_19  and  C_20
REMARK                            x       y       z     vdW  Elec       q    Type
REMARK                         _______ _______ _______ _____ _____    ______ ____
ROOT
ATOM      1  N   UNL     1       9.038   8.902  19.104  0.00  0.00    +0.000 N 
ATOM      2  C   UNL     1       8.197   8.374  18.155  0.00  0.00    +0.000 C 
ATOM      3  O   UNL     1       7.628   9.035  17.282  0.00  0.00    +0.000 OA
ATOM      4  N   UNL     1       7.917   7.034  18.246  0.00  0.00    +0.000 N 
ATOM      5  C   UNL     1       8.517   6.036  19.123  0.00  0.00    +0.000 C 
ATOM      6  C   UNL     1       7.639   4.792  18.917  0.00  0.00    +0.000 C 
ATOM      7  C   UNL     1       7.330   4.882  17.419  0.00  0.00    +0.000 C 
ATOM      8  C   UNL     1       7.163   6.384  17.156  0.00  0.00    +0.000 C 
ATOM      9  H   UNL     1       9.732   8.297  19.523  0.00  0.00    +0.000 HD
ENDROOT
BRANCH   1  15
ATOM     10  N   UNL     1       9.712  13.695  16.873  0.00  0.00    +0.000 N 
ATOM     11  C   UNL     1      10.393  13.480  18.037  0.00  0.00    +0.000 C 
ATOM     12  O   UNL     1      11.286  14.172  18.493  0.00  0.00    +0.000 OA
ATOM     13  N   UNL     1       9.873  12.384  18.743  0.00  0.00    +0.000 N 
ATOM     14  C   UNL     1       9.623  11.131  18.223  0.00  0.00    +0.000 A 
ATOM     15  C   UNL     1       9.251  10.278  19.236  0.00  0.00    +0.000 A 
ATOM     16  C   UNL     1       9.094  11.077  20.407  0.00  0.00    +0.000 A 
ATOM     17  C   UNL     1       8.658  10.830  21.729  0.00  0.00    +0.000 A 
ATOM     18  C   UNL     1       8.613  11.883  22.654  0.00  0.00    +0.000 A 
ATOM     19  C   UNL     1       9.007  13.168  22.294  0.00  0.00    +0.000 A 
ATOM     20  C   UNL     1       9.473  13.434  21.007  0.00  0.00    +0.000 A 
ATOM     21  C   UNL     1       9.511  12.376  20.082  0.00  0.00    +0.000 A 
ATOM     22  H   UNL     1       9.935  14.547  16.376  0.00  0.00    +0.000 HD
ATOM     23  H   UNL     1       8.775  13.328  16.749  0.00  0.00    +0.000 HD
ENDBRANCH   1  15
BRANCH   8  24
ATOM     24  C   UNL     1       5.655   6.728  16.994  0.00  0.00    +0.000 C 
ATOM     25  O   UNL     1       5.245   7.353  16.014  0.00  0.00    +0.000 OA
ATOM     26  N   UNL     1       4.812   6.290  17.991  0.00  0.00    +0.000 N 
ATOM     27  H   UNL     1       5.241   6.079  18.883  0.00  0.00    +0.000 HD
BRANCH  26  28
ATOM     28  C   UNL     1       3.406   6.627  17.999  0.00  0.00    +0.000 C 
BRANCH  28  29
ATOM     29  C   UNL     1       2.521   5.482  18.406  0.00  0.00    +0.000 A 
ATOM     30  C   UNL     1       2.075   4.539  17.462  0.00  0.00    +0.000 A 
ATOM     31  C   UNL     1       1.309   3.434  17.859  0.00  0.00    +0.000 A 
ATOM     32  C   UNL     1       0.968   3.264  19.200  0.00  0.00    +0.000 A 
ATOM     33  C   UNL     1       1.378   4.214  20.132  0.00  0.00    +0.000 A 
ATOM     34  F   UNL     1       1.044   4.050  21.421  0.00  0.00    +0.000 F 
ATOM     35  C   UNL     1       2.143   5.311  19.739  0.00  0.00    +0.000 A 
ATOM     36  F   UNL     1       2.540   6.198  20.666  0.00  0.00    +0.000 F 
ENDBRANCH  28  29
ENDBRANCH  26  28
ENDBRANCH   8  24
BRANCH   6  37
ATOM     37  N   UNL     1       6.404   4.852  19.706  0.00  0.00    +0.000 NA
ATOM     38  H   UNL     1       6.098   5.823  19.800  0.00  0.00    +0.000 HD
ATOM     39  H   UNL     1       6.578   4.525  20.655  0.00  0.00    +0.000 HD
ENDBRANCH   6  37
TORSDOF 5
ENDMDL
MODEL 6
REMARK VINA RESULT:      -8.9      5.886      9.826
REMARK  Name = 
REMARK  5 active torsions:
REMARK  status: ('A' for Active; 'I' for Inactive)
REMARK    1  A    between atoms: C_6  and  N_7
REMARK    2  A    between atoms: C_12  and  N_13
REMARK    3  A    between atoms: C_15  and  C_16
REMARK    4  A    between atoms: N_18  and  C_19
REMARK    5  A    between atoms: C_19  and  C_20
REMARK                            x       y       z     vdW  Elec       q    Type
REMARK                         _______ _______ _______ _____ _____    ______ ____
ROOT
ATOM      1  N   UNL     1       2.040   6.974  19.744  0.00  0.00    +0.000 N 
ATOM      2  C   UNL     1       1.823   8.136  19.045  0.00  0.00    +0.000 C 
ATOM      3  O   UNL     1       2.331   8.397  17.950  0.00  0.00    +0.000 OA
ATOM      4  N   UNL     1       1.054   9.096  19.652  0.00  0.00    +0.000 N 
ATOM      5  C   UNL     1       0.286   9.000  20.888  0.00  0.00    +0.000 C 
ATOM      6  C   UNL     1      -0.164  10.445  21.153  0.00  0.00    +0.000 C 
ATOM      7  C   UNL     1      -0.444  10.943  19.732  0.00  0.00    +0.000 C 
ATOM      8  C   UNL     1       0.648  10.285  18.878  0.00  0.00    +0.000 C 
ATOM      9  H   UNL     1       1.338   6.674  20.408  0.00  0.00    +0.000 HD
ENDROOT
BRANCH   1  15
ATOM     10  N   UNL     1       7.045   5.166  19.472  0.00  0.00    +0.000 N 
ATOM     11  C   UNL     1       6.253   4.887  18.396  0.00  0.00    +0.000 C 
ATOM     12  O   UNL     1       6.622   4.466  17.314  0.00  0.00    +0.000 OA
ATOM     13  N   UNL     1       4.893   5.044  18.703  0.00  0.00    +0.000 N 
ATOM     14  C   UNL     1       4.322   6.144  19.308  0.00  0.00    +0.000 A 
ATOM     15  C   UNL     1       2.954   6.003  19.321  0.00  0.00    +0.000 A 
ATOM     16  C   UNL     1       2.674   4.681  18.864  0.00  0.00    +0.000 A 
ATOM     17  C   UNL     1       1.501   3.904  18.727  0.00  0.00    +0.000 A 
ATOM     18  C   UNL     1       1.590   2.591  18.241  0.00  0.00    +0.000 A 
ATOM     19  C   UNL     1       2.818   2.046  17.877  0.00  0.00    +0.000 A 
ATOM     20  C   UNL     1       3.986   2.802  17.969  0.00  0.00    +0.000 A 
ATOM     21  C   UNL     1       3.891   4.115  18.462  0.00  0.00    +0.000 A 
ATOM     22  H   UNL     1       8.028   4.944  19.374  0.00  0.00    +0.000 HD
ATOM     23  H   UNL     1       6.666   5.143  20.412  0.00  0.00    +0.000 HD
ENDBRANCH   1  15
BRANCH   8  24
ATOM     24  C   UNL     1       1.736  11.334  18.510  0.00  0.00    +0.000 C 
ATOM     25  O   UNL     1       2.491  11.161  17.552  0.00  0.00    +0.000 OA
ATOM     26  N   UNL     1       1.799  12.460  19.301  0.00  0.00    +0.000 N 
ATOM     27  H   UNL     1       1.385  12.387  20.222  0.00  0.00    +0.000 HD
BRANCH  26  28
ATOM     28  C   UNL     1       2.825  13.461  19.117  0.00  0.00    +0.000 C 
BRANCH  28  29
ATOM     29  C   UNL     1       2.279  14.815  18.760  0.00  0.00    +0.000 A 
ATOM     30  C   UNL     1       1.154  15.342  19.421  0.00  0.00    +0.000 A 
ATOM     31  C   UNL     1       0.693  16.635  19.134  0.00  0.00    +0.000 A 
ATOM     32  C   UNL     1       1.339  17.411  18.173  0.00  0.00    +0.000 A 
ATOM     33  C   UNL     1       2.431  16.880  17.492  0.00  0.00    +0.000 A 
ATOM     34  F   UNL     1       3.048  17.628  16.565  0.00  0.00    +0.000 F 
ATOM     35  C   UNL     1       2.893  15.597  17.779  0.00  0.00    +0.000 A 
ATOM     36  F   UNL     1       3.962  15.122  17.118  0.00  0.00    +0.000 F 
ENDBRANCH  28  29
ENDBRANCH  26  28
ENDBRANCH   8  24
BRANCH   6  37
ATOM     37  N   UNL     1       0.893  11.244  21.784  0.00  0.00    +0.000 NA
ATOM     38  H   UNL     1       1.422  10.665  22.440  0.00  0.00    +0.000 HD
ATOM     39  H   UNL     1       0.482  11.990  22.343  0.00  0.00    +0.000 HD
ENDBRANCH   6  37
TORSDOF 5
ENDMDL
MODEL 7
REMARK VINA RESULT:      -8.9      6.210      9.951
REMARK  Name = 
REMARK  5 active torsions:
REMARK  status: ('A' for Active; 'I' for Inactive)
REMARK    1  A    between atoms: C_6  and  N_7
REMARK    2  A    between atoms: C_12  and  N_13
REMARK    3  A    between atoms: C_15  and  C_16
REMARK    4  A    between atoms: N_18  and  C_19
REMARK    5  A    between atoms: C_19  and  C_20
REMARK                            x       y       z     vdW  Elec       q    Type
REMARK                         _______ _______ _______ _____ _____    ______ ____
ROOT
ATOM      1  N   UNL     1       1.910   7.771  18.831  0.00  0.00    +0.000 N 
ATOM      2  C   UNL     1       1.720   9.071  18.429  0.00  0.00    +0.000 C 
ATOM      3  O   UNL     1       2.255   9.580  17.440  0.00  0.00    +0.000 OA
ATOM      4  N   UNL     1       0.945   9.866  19.234  0.00  0.00    +0.000 N 
ATOM      5  C   UNL     1       0.149   9.486  20.394  0.00  0.00    +0.000 C 
ATOM      6  C   UNL     1      -0.294  10.831  20.992  0.00  0.00    +0.000 C 
ATOM      7  C   UNL     1      -0.537  11.661  19.727  0.00  0.00    +0.000 C 
ATOM      8  C   UNL     1       0.569  11.213  18.762  0.00  0.00    +0.000 C 
ATOM      9  H   UNL     1       1.191   7.329  19.387  0.00  0.00    +0.000 HD
ENDROOT
BRANCH   1  15
ATOM     10  N   UNL     1       6.783   6.884  16.865  0.00  0.00    +0.000 N 
ATOM     11  C   UNL     1       5.758   6.258  16.217  0.00  0.00    +0.000 C 
ATOM     12  O   UNL     1       5.815   5.705  15.133  0.00  0.00    +0.000 OA
ATOM     13  N   UNL     1       4.596   6.223  17.003  0.00  0.00    +0.000 N 
ATOM     14  C   UNL     1       4.024   7.299  17.649  0.00  0.00    +0.000 A 
ATOM     15  C   UNL     1       2.825   6.918  18.204  0.00  0.00    +0.000 A 
ATOM     16  C   UNL     1       2.732   5.503  18.047  0.00  0.00    +0.000 A 
ATOM     17  C   UNL     1       1.811   4.515  18.462  0.00  0.00    +0.000 A 
ATOM     18  C   UNL     1       2.040   3.170  18.135  0.00  0.00    +0.000 A 
ATOM     19  C   UNL     1       3.155   2.796  17.392  0.00  0.00    +0.000 A 
ATOM     20  C   UNL     1       4.062   3.754  16.940  0.00  0.00    +0.000 A 
ATOM     21  C   UNL     1       3.830   5.099  17.276  0.00  0.00    +0.000 A 
ATOM     22  H   UNL     1       7.692   6.829  16.423  0.00  0.00    +0.000 HD
ATOM     23  H   UNL     1       6.774   6.979  17.875  0.00  0.00    +0.000 HD
ENDBRANCH   1  15
BRANCH   8  24
ATOM     24  C   UNL     1       1.674  12.304  18.681  0.00  0.00    +0.000 C 
ATOM     25  O   UNL     1       2.545  12.267  17.810  0.00  0.00    +0.000 OA
ATOM     26  N   UNL     1       1.618  13.310  19.621  0.00  0.00    +0.000 N 
ATOM     27  H   UNL     1       1.095  13.108  20.464  0.00  0.00    +0.000 HD
BRANCH  26  28
ATOM     28  C   UNL     1       2.640  14.328  19.706  0.00  0.00    +0.000 C 
BRANCH  28  29
ATOM     29  C   UNL     1       2.339  15.545  18.877  0.00  0.00    +0.000 A 
ATOM     30  C   UNL     1       3.144  15.890  17.776  0.00  0.00    +0.000 A 
ATOM     31  C   UNL     1       2.818  16.985  16.963  0.00  0.00    +0.000 A 
ATOM     32  C   UNL     1       1.693  17.757  17.249  0.00  0.00    +0.000 A 
ATOM     33  C   UNL     1       0.914  17.440  18.358  0.00  0.00    +0.000 A 
ATOM     34  F   UNL     1      -0.166  18.187  18.632  0.00  0.00    +0.000 F 
ATOM     35  C   UNL     1       1.234  16.349  19.164  0.00  0.00    +0.000 A 
ATOM     36  F   UNL     1       0.450  16.057  20.214  0.00  0.00    +0.000 F 
ENDBRANCH  28  29
ENDBRANCH  26  28
ENDBRANCH   8  24
BRANCH   6  37
ATOM     37  N   UNL     1       0.755  11.438  21.818  0.00  0.00    +0.000 NA
ATOM     38  H   UNL     1       0.468  12.374  22.112  0.00  0.00    +0.000 HD
ATOM     39  H   UNL     1       1.602  11.570  21.268  0.00  0.00    +0.000 HD
ENDBRANCH   6  37
TORSDOF 5
ENDMDL
MODEL 8
REMARK VINA RESULT:      -8.9      5.558      9.578
REMARK  Name = 
REMARK  5 active torsions:
REMARK  status: ('A' for Active; 'I' for Inactive)
REMARK    1  A    between atoms: C_6  and  N_7
REMARK    2  A    between atoms: C_12  and  N_13
REMARK    3  A    between atoms: C_15  and  C_16
REMARK    4  A    between atoms: N_18  and  C_19
REMARK    5  A    between atoms: C_19  and  C_20
REMARK                            x       y       z     vdW  Elec       q    Type
REMARK                         _______ _______ _______ _____ _____    ______ ____
ROOT
ATOM      1  N   UNL     1       1.884   7.797  19.363  0.00  0.00    +0.000 N 
ATOM      2  C   UNL     1       1.189   8.857  18.835  0.00  0.00    +0.000 C 
ATOM      3  O   UNL     1       1.191   9.168  17.641  0.00  0.00    +0.000 OA
ATOM      4  N   UNL     1       0.516   9.663  19.718  0.00  0.00    +0.000 N 
ATOM      5  C   UNL     1       0.295   9.465  21.145  0.00  0.00    +0.000 C 
ATOM      6  C   UNL     1      -0.315  10.796  21.610  0.00  0.00    +0.000 C 
ATOM      7  C   UNL     1      -1.196  11.163  20.412  0.00  0.00    +0.000 C 
ATOM      8  C   UNL     1      -0.384  10.707  19.192  0.00  0.00    +0.000 C 
ATOM      9  H   UNL     1       1.556   7.387  20.227  0.00  0.00    +0.000 HD
ENDROOT
BRANCH   1  15
ATOM     10  N   UNL     1       6.587   7.190  16.931  0.00  0.00    +0.000 N 
ATOM     11  C   UNL     1       5.523   6.587  16.325  0.00  0.00    +0.000 C 
ATOM     12  O   UNL     1       5.497   6.119  15.200  0.00  0.00    +0.000 OA
ATOM     13  N   UNL     1       4.434   6.462  17.201  0.00  0.00    +0.000 N 
ATOM     14  C   UNL     1       3.898   7.471  17.974  0.00  0.00    +0.000 A 
ATOM     15  C   UNL     1       2.759   7.018  18.598  0.00  0.00    +0.000 A 
ATOM     16  C   UNL     1       2.681   5.616  18.339  0.00  0.00    +0.000 A 
ATOM     17  C   UNL     1       1.820   4.575  18.754  0.00  0.00    +0.000 A 
ATOM     18  C   UNL     1       2.047   3.266  18.305  0.00  0.00    +0.000 A 
ATOM     19  C   UNL     1       3.101   2.978  17.445  0.00  0.00    +0.000 A 
ATOM     20  C   UNL     1       3.947   3.992  16.993  0.00  0.00    +0.000 A 
ATOM     21  C   UNL     1       3.717   5.301  17.450  0.00  0.00    +0.000 A 
ATOM     22  H   UNL     1       7.455   7.193  16.411  0.00  0.00    +0.000 HD
ATOM     23  H   UNL     1       6.663   7.209  17.941  0.00  0.00    +0.000 HD
ENDBRANCH   1  15
BRANCH   8  24
ATOM     24  C   UNL     1       0.247  11.942  18.487  0.00  0.00    +0.000 C 
ATOM     25  O   UNL     1      -0.456  12.789  17.934  0.00  0.00    +0.000 OA
ATOM     26  N   UNL     1       1.621  12.036  18.523  0.00  0.00    +0.000 N 
ATOM     27  H   UNL     1       2.127  11.178  18.702  0.00  0.00    +0.000 HD
BRANCH  26  28
ATOM     28  C   UNL     1       2.328  13.086  17.826  0.00  0.00    +0.000 C 
BRANCH  28  29
ATOM     29  C   UNL     1       2.984  14.077  18.747  0.00  0.00    +0.000 A 
ATOM     30  C   UNL     1       2.966  13.893  20.142  0.00  0.00    +0.000 A 
ATOM     31  C   UNL     1       3.639  14.783  20.991  0.00  0.00    +0.000 A 
ATOM     32  C   UNL     1       4.326  15.873  20.460  0.00  0.00    +0.000 A 
ATOM     33  C   UNL     1       4.317  16.078  19.083  0.00  0.00    +0.000 A 
ATOM     34  F   UNL     1       4.975  17.131  18.575  0.00  0.00    +0.000 F 
ATOM     35  C   UNL     1       3.651  15.193  18.237  0.00  0.00    +0.000 A 
ATOM     36  F   UNL     1       3.678  15.407  16.911  0.00  0.00    +0.000 F 
ENDBRANCH  28  29
ENDBRANCH  26  28
ENDBRANCH   8  24
BRANCH   6  37
ATOM     37  N   UNL     1       0.708  11.823  21.835  0.00  0.00    +0.000 NA
ATOM     38  H   UNL     1       1.445  11.454  22.440  0.00  0.00    +0.000 HD
ATOM     39  H   UNL     1       0.308  12.613  22.339  0.00  0.00    +0.000 HD
ENDBRANCH   6  37
TORSDOF 5
ENDMDL
MODEL 9
REMARK VINA RESULT:      -8.9      7.193     10.437
REMARK  Name = 
REMARK  5 active torsions:
REMARK  status: ('A' for Active; 'I' for Inactive)
REMARK    1  A    between atoms: C_6  and  N_7
REMARK    2  A    between atoms: C_12  and  N_13
REMARK    3  A    between atoms: C_15  and  C_16
REMARK    4  A    between atoms: N_18  and  C_19
REMARK    5  A    between atoms: C_19  and  C_20
REMARK                            x       y       z     vdW  Elec       q    Type
REMARK                         _______ _______ _______ _____ _____    ______ ____
ROOT
ATOM      1  N   UNL     1       1.852   7.845  19.400  0.00  0.00    +0.000 N 
ATOM      2  C   UNL     1       1.536   8.706  20.423  0.00  0.00    +0.000 C 
ATOM      3  O   UNL     1       1.660   8.440  21.622  0.00  0.00    +0.000 OA
ATOM      4  N   UNL     1       0.970   9.907  20.075  0.00  0.00    +0.000 N 
ATOM      5  C   UNL     1       0.798  10.481  18.747  0.00  0.00    +0.000 C 
ATOM      6  C   UNL     1      -0.088  11.712  18.992  0.00  0.00    +0.000 C 
ATOM      7  C   UNL     1       0.454  12.214  20.334  0.00  0.00    +0.000 C 
ATOM      8  C   UNL     1       0.773  10.933  21.117  0.00  0.00    +0.000 C 
ATOM      9  H   UNL     1       2.079   8.235  18.495  0.00  0.00    +0.000 HD
ENDROOT
BRANCH   1  15
ATOM     10  N   UNL     1       0.728   2.906  21.056  0.00  0.00    +0.000 N 
ATOM     11  C   UNL     1       2.005   3.333  21.283  0.00  0.00    +0.000 C 
ATOM     12  O   UNL     1       2.833   2.797  21.999  0.00  0.00    +0.000 OA
ATOM     13  N   UNL     1       2.323   4.449  20.494  0.00  0.00    +0.000 N 
ATOM     14  C   UNL     1       1.566   5.595  20.371  0.00  0.00    +0.000 A 
ATOM     15  C   UNL     1       2.255   6.525  19.628  0.00  0.00    +0.000 A 
ATOM     16  C   UNL     1       3.414   5.866  19.120  0.00  0.00    +0.000 A 
ATOM     17  C   UNL     1       4.461   6.230  18.243  0.00  0.00    +0.000 A 
ATOM     18  C   UNL     1       5.467   5.301  17.939  0.00  0.00    +0.000 A 
ATOM     19  C   UNL     1       5.457   4.028  18.500  0.00  0.00    +0.000 A 
ATOM     20  C   UNL     1       4.455   3.653  19.395  0.00  0.00    +0.000 A 
ATOM     21  C   UNL     1       3.447   4.586  19.692  0.00  0.00    +0.000 A 
ATOM     22  H   UNL     1       0.469   2.026  21.483  0.00  0.00    +0.000 HD
ATOM     23  H   UNL     1       0.245   3.157  20.202  0.00  0.00    +0.000 HD
ENDBRANCH   1  15
BRANCH   8  24
ATOM     24  C   UNL     1      -0.317  10.689  22.199  0.00  0.00    +0.000 C 
ATOM     25  O   UNL     1      -0.415   9.603  22.772  0.00  0.00    +0.000 OA
ATOM     26  N   UNL     1      -1.150  11.749  22.485  0.00  0.00    +0.000 N 
ATOM     27  H   UNL     1      -1.219  12.470  21.778  0.00  0.00    +0.000 HD
BRANCH  26  28
ATOM     28  C   UNL     1      -2.258  11.616  23.403  0.00  0.00    +0.000 C 
BRANCH  28  29
ATOM     29  C   UNL     1      -3.473  12.398  22.987  0.00  0.00    +0.000 A 
ATOM     30  C   UNL     1      -3.624  12.856  21.666  0.00  0.00    +0.000 A 
ATOM     31  C   UNL     1      -4.791  13.522  21.266  0.00  0.00    +0.000 A 
ATOM     32  C   UNL     1      -5.815  13.752  22.184  0.00  0.00    +0.000 A 
ATOM     33  C   UNL     1      -5.654  13.331  23.502  0.00  0.00    +0.000 A 
ATOM     34  F   UNL     1      -6.639  13.557  24.384  0.00  0.00    +0.000 F 
ATOM     35  C   UNL     1      -4.496  12.665  23.899  0.00  0.00    +0.000 A 
ATOM     36  F   UNL     1      -4.381  12.253  25.173  0.00  0.00    +0.000 F 
ENDBRANCH  28  29
ENDBRANCH  26  28
ENDBRANCH   8  24
BRANCH   6  37
ATOM     37  N   UNL     1      -1.507  11.357  19.105  0.00  0.00    +0.000 NA
ATOM     38  H   UNL     1      -1.889  11.724  19.979  0.00  0.00    +0.000 HD
ATOM     39  H   UNL     1      -1.612  10.345  19.162  0.00  0.00    +0.000 HD
ENDBRANCH   6  37
TORSDOF 5
ENDMDL
