MODEL 1
REMARK VINA RESULT:      -8.1      0.000      0.000
REMARK  Name = 
REMARK  8 active torsions:
REMARK  status: ('A' for Active; 'I' for Inactive)
REMARK    1  A    between atoms: C_1  and  C_2
REMARK    2  A    between atoms: C_2  and  C_3
REMARK    3  A    between atoms: C_2  and  C_4
REMARK    4  A    between atoms: C_2  and  N_5
REMARK    5  A    between atoms: C_9  and  C_10
REMARK    6  A    between atoms: C_10  and  C_11
REMARK    7  A    between atoms: C_10  and  N_17
REMARK    8  A    between atoms: N_20  and  C_21
REMARK                            x       y       z     vdW  Elec       q    Type
REMARK                         _______ _______ _______ _____ _____    ______ ____
ROOT
ATOM      1  C   UNL     1       4.271   5.033  17.528  0.00  0.00    +0.000 C 
ENDROOT
BRANCH   1   2
ATOM      2  C   UNL     1       3.315   3.871  17.880  0.00  0.00    +0.000 A 
ATOM      3  C   UNL     1       3.668   2.771  18.686  0.00  0.00    +0.000 A 
ATOM      4  C   UNL     1       2.681   1.931  19.215  0.00  0.00    +0.000 A 
ATOM      5  C   UNL     1       1.365   2.169  18.883  0.00  0.00    +0.000 A 
ATOM      6  N   UNL     1       0.984   3.144  18.033  0.00  0.00    +0.000 NA
ATOM      7  C   UNL     1       1.962   3.957  17.555  0.00  0.00    +0.000 A 
ENDBRANCH   1   2
BRANCH   1   8
ATOM      8  N   UNL     1       4.140   6.159  18.475  0.00  0.00    +0.000 NA
ATOM      9  C   UNL     1       3.657   7.429  17.912  0.00  0.00    +0.000 C 
ATOM     10  C   UNL     1       2.177   7.823  18.159  0.00  0.00    +0.000 C 
ATOM     11  N   UNL     1       1.821   7.652  19.578  0.00  0.00    +0.000 N 
ATOM     12  C   UNL     1       2.052   6.276  20.036  0.00  0.00    +0.000 C 
ATOM     13  C   UNL     1       3.523   5.850  19.785  0.00  0.00    +0.000 C 
BRANCH  11  14
ATOM     14  C   UNL     1       1.287   8.640  20.386  0.00  0.00    +0.000 A 
ATOM     15  C   UNL     1       1.147   8.491  21.776  0.00  0.00    +0.000 A 
ATOM     16  C   UNL     1       0.509   9.449  22.581  0.00  0.00    +0.000 A 
ATOM     17  C   UNL     1      -0.001  10.610  22.021  0.00  0.00    +0.000 A 
ATOM     18  C   UNL     1       0.168  10.826  20.663  0.00  0.00    +0.000 A 
ATOM     19  C   UNL     1       0.810   9.861  19.872  0.00  0.00    +0.000 A 
ENDBRANCH  11  14
ENDBRANCH   1   8
BRANCH   1  24
ATOM     20  N   UNL     1       6.587   4.833  16.287  0.00  0.00    +0.000 N 
ATOM     21  N   UNL     1       7.862   4.771  16.752  0.00  0.00    +0.000 NA
ATOM     22  N   UNL     1       7.793   4.389  18.008  0.00  0.00    +0.000 NA
ATOM     23  N   UNL     1       6.502   4.309  18.413  0.00  0.00    +0.000 NA
ATOM     24  C   UNL     1       5.742   4.671  17.391  0.00  0.00    +0.000 A 
BRANCH  20  26
ATOM     25  C   UNL     1       5.911   3.475  14.303  0.00  0.00    +0.000 C 
ATOM     26  C   UNL     1       6.423   4.866  14.816  0.00  0.00    +0.000 C 
ATOM     27  C   UNL     1       7.718   5.135  14.020  0.00  0.00    +0.000 C 
ATOM     28  C   UNL     1       5.369   5.903  14.380  0.00  0.00    +0.000 C 
ENDBRANCH  20  26
ENDBRANCH   1  24
TORSDOF 5
ENDMDL
MODEL 2
REMARK VINA RESULT:      -7.9      0.185      1.222
REMARK  Name = 
REMARK  8 active torsions:
REMARK  status: ('A' for Active; 'I' for Inactive)
REMARK    1  A    between atoms: C_1  and  C_2
REMARK    2  A    between atoms: C_2  and  C_3
REMARK    3  A    between atoms: C_2  and  C_4
REMARK    4  A    between atoms: C_2  and  N_5
REMARK    5  A    between atoms: C_9  and  C_10
REMARK    6  A    between atoms: C_10  and  C_11
REMARK    7  A    between atoms: C_10  and  N_17
REMARK    8  A    between atoms: N_20  and  C_21
REMARK                            x       y       z     vdW  Elec       q    Type
REMARK                         _______ _______ _______ _____ _____    ______ ____
ROOT
ATOM      1  C   UNL     1       4.216   5.044  17.624  0.00  0.00    +0.000 C 
ENDROOT
BRANCH   1   2
ATOM      2  C   UNL     1       3.272   3.881  18.005  0.00  0.00    +0.000 A 
ATOM      3  C   UNL     1       3.581   2.890  18.956  0.00  0.00    +0.000 A 
ATOM      4  C   UNL     1       2.576   2.064  19.474  0.00  0.00    +0.000 A 
ATOM      5  C   UNL     1       1.293   2.202  18.989  0.00  0.00    +0.000 A 
ATOM      6  N   UNL     1       0.967   3.063  18.004  0.00  0.00    +0.000 NA
ATOM      7  C   UNL     1       1.958   3.867  17.540  0.00  0.00    +0.000 A 
ENDBRANCH   1   2
BRANCH   1   8
ATOM      8  N   UNL     1       4.062   6.198  18.534  0.00  0.00    +0.000 NA
ATOM      9  C   UNL     1       3.590   7.450  17.922  0.00  0.00    +0.000 C 
ATOM     10  C   UNL     1       2.105   7.848  18.122  0.00  0.00    +0.000 C 
ATOM     11  N   UNL     1       1.715   7.719  19.537  0.00  0.00    +0.000 N 
ATOM     12  C   UNL     1       1.937   6.357  20.041  0.00  0.00    +0.000 C 
ATOM     13  C   UNL     1       3.414   5.927  19.837  0.00  0.00    +0.000 C 
BRANCH  11  14
ATOM     14  C   UNL     1       1.162   8.729  20.303  0.00  0.00    +0.000 A 
ATOM     15  C   UNL     1       0.859   9.998  19.782  0.00  0.00    +0.000 A 
ATOM     16  C   UNL     1       0.395  11.056  20.582  0.00  0.00    +0.000 A 
ATOM     17  C   UNL     1       0.202  10.874  21.942  0.00  0.00    +0.000 A 
ATOM     18  C   UNL     1       0.432   9.623  22.489  0.00  0.00    +0.000 A 
ATOM     19  C   UNL     1       0.891   8.575  21.677  0.00  0.00    +0.000 A 
ENDBRANCH  11  14
ENDBRANCH   1   8
BRANCH   1  24
ATOM     20  N   UNL     1       6.550   4.854  16.415  0.00  0.00    +0.000 N 
ATOM     21  N   UNL     1       7.819   4.814  16.897  0.00  0.00    +0.000 NA
ATOM     22  N   UNL     1       7.739   4.451  18.158  0.00  0.00    +0.000 NA
ATOM     23  N   UNL     1       6.444   4.361  18.548  0.00  0.00    +0.000 NA
ATOM     24  C   UNL     1       5.693   4.698  17.510  0.00  0.00    +0.000 A 
BRANCH  20  26
ATOM     25  C   UNL     1       5.361   5.954  14.514  0.00  0.00    +0.000 C 
ATOM     26  C   UNL     1       6.404   4.862  14.941  0.00  0.00    +0.000 C 
ATOM     27  C   UNL     1       5.882   3.546  14.329  0.00  0.00    +0.000 C 
ATOM     28  C   UNL     1       7.725   5.228  14.237  0.00  0.00    +0.000 C 
ENDBRANCH  20  26
ENDBRANCH   1  24
TORSDOF 5
ENDMDL
MODEL 3
REMARK VINA RESULT:      -7.5      0.645      1.249
REMARK  Name = 
REMARK  8 active torsions:
REMARK  status: ('A' for Active; 'I' for Inactive)
REMARK    1  A    between atoms: C_1  and  C_2
REMARK    2  A    between atoms: C_2  and  C_3
REMARK    3  A    between atoms: C_2  and  C_4
REMARK    4  A    between atoms: C_2  and  N_5
REMARK    5  A    between atoms: C_9  and  C_10
REMARK    6  A    between atoms: C_10  and  C_11
REMARK    7  A    between atoms: C_10  and  N_17
REMARK    8  A    between atoms: N_20  and  C_21
REMARK                            x       y       z     vdW  Elec       q    Type
REMARK                         _______ _______ _______ _____ _____    ______ ____
ROOT
ATOM      1  C   UNL     1       4.137   5.080  17.715  0.00  0.00    +0.000 C 
ENDROOT
BRANCH   1   2
ATOM      2  C   UNL     1       3.217   3.952  18.232  0.00  0.00    +0.000 A 
ATOM      3  C   UNL     1       1.814   3.957  18.116  0.00  0.00    +0.000 A 
ATOM      4  C   UNL     1       1.079   2.783  18.317  0.00  0.00    +0.000 A 
ATOM      5  C   UNL     1       1.751   1.639  18.688  0.00  0.00    +0.000 A 
ATOM      6  N   UNL     1       3.080   1.607  18.915  0.00  0.00    +0.000 NA
ATOM      7  C   UNL     1       3.769   2.756  18.688  0.00  0.00    +0.000 A 
ENDBRANCH   1   2
BRANCH   1   8
ATOM      8  N   UNL     1       4.017   6.305  18.533  0.00  0.00    +0.000 NA
ATOM      9  C   UNL     1       3.454   7.485  17.857  0.00  0.00    +0.000 C 
ATOM     10  C   UNL     1       1.977   7.858  18.146  0.00  0.00    +0.000 C 
ATOM     11  N   UNL     1       1.708   7.843  19.594  0.00  0.00    +0.000 N 
ATOM     12  C   UNL     1       2.017   6.538  20.193  0.00  0.00    +0.000 C 
ATOM     13  C   UNL     1       3.487   6.133  19.904  0.00  0.00    +0.000 C 
BRANCH  11  14
ATOM     14  C   UNL     1       1.183   8.901  20.314  0.00  0.00    +0.000 A 
ATOM     15  C   UNL     1       0.890   8.817  21.685  0.00  0.00    +0.000 A 
ATOM     16  C   UNL     1       0.259   9.854  22.392  0.00  0.00    +0.000 A 
ATOM     17  C   UNL     1      -0.088  11.032  21.748  0.00  0.00    +0.000 A 
ATOM     18  C   UNL     1       0.236  11.183  20.410  0.00  0.00    +0.000 A 
ATOM     19  C   UNL     1       0.868  10.139  19.719  0.00  0.00    +0.000 A 
ENDBRANCH  11  14
ENDBRANCH   1   8
BRANCH   1  24
ATOM     20  N   UNL     1       6.442   4.882  16.452  0.00  0.00    +0.000 N 
ATOM     21  N   UNL     1       7.722   4.836  16.903  0.00  0.00    +0.000 NA
ATOM     22  N   UNL     1       7.669   4.472  18.165  0.00  0.00    +0.000 NA
ATOM     23  N   UNL     1       6.384   4.387  18.586  0.00  0.00    +0.000 NA
ATOM     24  C   UNL     1       5.610   4.729  17.567  0.00  0.00    +0.000 A 
BRANCH  20  26
ATOM     25  C   UNL     1       7.632   5.186  14.277  0.00  0.00    +0.000 C 
ATOM     26  C   UNL     1       6.261   4.894  14.982  0.00  0.00    +0.000 C 
ATOM     27  C   UNL     1       5.297   5.976  14.451  0.00  0.00    +0.000 C 
ATOM     28  C   UNL     1       5.786   3.527  14.452  0.00  0.00    +0.000 C 
ENDBRANCH  20  26
ENDBRANCH   1  24
TORSDOF 5
ENDMDL
MODEL 4
REMARK VINA RESULT:      -7.4      0.786      1.409
REMARK  Name = 
REMARK  8 active torsions:
REMARK  status: ('A' for Active; 'I' for Inactive)
REMARK    1  A    between atoms: C_1  and  C_2
REMARK    2  A    between atoms: C_2  and  C_3
REMARK    3  A    between atoms: C_2  and  C_4
REMARK    4  A    between atoms: C_2  and  N_5
REMARK    5  A    between atoms: C_9  and  C_10
REMARK    6  A    between atoms: C_10  and  C_11
REMARK    7  A    between atoms: C_10  and  N_17
REMARK    8  A    between atoms: N_20  and  C_21
REMARK                            x       y       z     vdW  Elec       q    Type
REMARK                         _______ _______ _______ _____ _____    ______ ____
ROOT
ATOM      1  C   UNL     1       4.093   5.161  17.749  0.00  0.00    +0.000 C 
ENDROOT
BRANCH   1   2
ATOM      2  C   UNL     1       3.158   4.085  18.344  0.00  0.00    +0.000 A 
ATOM      3  C   UNL     1       1.779   3.995  18.073  0.00  0.00    +0.000 A 
ATOM      4  C   UNL     1       1.067   2.831  18.388  0.00  0.00    +0.000 A 
ATOM      5  C   UNL     1       1.730   1.802  19.020  0.00  0.00    +0.000 A 
ATOM      6  N   UNL     1       3.023   1.880  19.396  0.00  0.00    +0.000 NA
ATOM      7  C   UNL     1       3.693   3.012  19.055  0.00  0.00    +0.000 A 
ENDBRANCH   1   2
BRANCH   1   8
ATOM      8  N   UNL     1       3.976   6.448  18.466  0.00  0.00    +0.000 NA
ATOM      9  C   UNL     1       3.506   7.594  17.673  0.00  0.00    +0.000 C 
ATOM     10  C   UNL     1       2.031   8.043  17.841  0.00  0.00    +0.000 C 
ATOM     11  N   UNL     1       1.676   8.148  19.267  0.00  0.00    +0.000 N 
ATOM     12  C   UNL     1       1.893   6.881  19.977  0.00  0.00    +0.000 C 
ATOM     13  C   UNL     1       3.359   6.400  19.810  0.00  0.00    +0.000 C 
BRANCH  11  14
ATOM     14  C   UNL     1       1.155   9.277  19.874  0.00  0.00    +0.000 A 
ATOM     15  C   UNL     1       1.104  10.527  19.236  0.00  0.00    +0.000 A 
ATOM     16  C   UNL     1       0.673  11.695  19.888  0.00  0.00    +0.000 A 
ATOM     17  C   UNL     1       0.258  11.648  21.210  0.00  0.00    +0.000 A 
ATOM     18  C   UNL     1       0.235  10.426  21.860  0.00  0.00    +0.000 A 
ATOM     19  C   UNL     1       0.666   9.268  21.195  0.00  0.00    +0.000 A 
ENDBRANCH  11  14
ENDBRANCH   1   8
BRANCH   1  24
ATOM     20  N   UNL     1       6.428   4.924  16.551  0.00  0.00    +0.000 N 
ATOM     21  N   UNL     1       7.694   4.860  17.038  0.00  0.00    +0.000 NA
ATOM     22  N   UNL     1       7.601   4.500  18.299  0.00  0.00    +0.000 NA
ATOM     23  N   UNL     1       6.303   4.437  18.684  0.00  0.00    +0.000 NA
ATOM     24  C   UNL     1       5.563   4.787  17.642  0.00  0.00    +0.000 A 
BRANCH  20  26
ATOM     25  C   UNL     1       5.685   3.570  14.587  0.00  0.00    +0.000 C 
ATOM     26  C   UNL     1       6.289   4.933  15.076  0.00  0.00    +0.000 C 
ATOM     27  C   UNL     1       7.611   5.090  14.296  0.00  0.00    +0.000 C 
ATOM     28  C   UNL     1       5.318   6.031  14.599  0.00  0.00    +0.000 C 
ENDBRANCH  20  26
ENDBRANCH   1  24
TORSDOF 5
ENDMDL
MODEL 5
REMARK VINA RESULT:      -7.4      0.897      1.494
REMARK  Name = 
REMARK  8 active torsions:
REMARK  status: ('A' for Active; 'I' for Inactive)
REMARK    1  A    between atoms: C_1  and  C_2
REMARK    2  A    between atoms: C_2  and  C_3
REMARK    3  A    between atoms: C_2  and  C_4
REMARK    4  A    between atoms: C_2  and  N_5
REMARK    5  A    between atoms: C_9  and  C_10
REMARK    6  A    between atoms: C_10  and  C_11
REMARK    7  A    between atoms: C_10  and  N_17
REMARK    8  A    between atoms: N_20  and  C_21
REMARK                            x       y       z     vdW  Elec       q    Type
REMARK                         _______ _______ _______ _____ _____    ______ ____
ROOT
ATOM      1  C   UNL     1       3.995   5.210  17.815  0.00  0.00    +0.000 C 
ENDROOT
BRANCH   1   2
ATOM      2  C   UNL     1       3.058   4.167  18.464  0.00  0.00    +0.000 A 
ATOM      3  C   UNL     1       1.744   3.904  18.032  0.00  0.00    +0.000 A 
ATOM      4  C   UNL     1       1.074   2.749  18.452  0.00  0.00    +0.000 A 
ATOM      5  C   UNL     1       1.705   1.908  19.343  0.00  0.00    +0.000 A 
ATOM      6  N   UNL     1       2.920   2.167  19.867  0.00  0.00    +0.000 NA
ATOM      7  C   UNL     1       3.554   3.283  19.421  0.00  0.00    +0.000 A 
ENDBRANCH   1   2
BRANCH   1   8
ATOM      8  N   UNL     1       3.918   6.518  18.497  0.00  0.00    +0.000 NA
ATOM      9  C   UNL     1       3.531   7.665  17.661  0.00  0.00    +0.000 C 
ATOM     10  C   UNL     1       2.075   8.189  17.766  0.00  0.00    +0.000 C 
ATOM     11  N   UNL     1       1.677   8.347  19.176  0.00  0.00    +0.000 N 
ATOM     12  C   UNL     1       1.807   7.089  19.923  0.00  0.00    +0.000 C 
ATOM     13  C   UNL     1       3.253   6.534  19.820  0.00  0.00    +0.000 C 
BRANCH  11  14
ATOM     14  C   UNL     1       1.191   9.514  19.737  0.00  0.00    +0.000 A 
ATOM     15  C   UNL     1       0.730   9.585  21.062  0.00  0.00    +0.000 A 
ATOM     16  C   UNL     1       0.139  10.742  21.599  0.00  0.00    +0.000 A 
ATOM     17  C   UNL     1       0.004  11.884  20.825  0.00  0.00    +0.000 A 
ATOM     18  C   UNL     1       0.498  11.879  19.532  0.00  0.00    +0.000 A 
ATOM     19  C   UNL     1       1.089  10.717  19.011  0.00  0.00    +0.000 A 
ENDBRANCH  11  14
ENDBRANCH   1   8
BRANCH   1  24
ATOM     20  N   UNL     1       6.310   4.943  16.583  0.00  0.00    +0.000 N 
ATOM     21  N   UNL     1       7.580   4.847  17.052  0.00  0.00    +0.000 NA
ATOM     22  N   UNL     1       7.496   4.471  18.309  0.00  0.00    +0.000 NA
ATOM     23  N   UNL     1       6.203   4.427  18.710  0.00  0.00    +0.000 NA
ATOM     24  C   UNL     1       5.457   4.807  17.684  0.00  0.00    +0.000 A 
BRANCH  20  26
ATOM     25  C   UNL     1       5.341   6.253  14.689  0.00  0.00    +0.000 C 
ATOM     26  C   UNL     1       6.151   4.978  15.111  0.00  0.00    +0.000 C 
ATOM     27  C   UNL     1       5.371   3.789  14.510  0.00  0.00    +0.000 C 
ATOM     28  C   UNL     1       7.511   5.072  14.390  0.00  0.00    +0.000 C 
ENDBRANCH  20  26
ENDBRANCH   1  24
TORSDOF 5
ENDMDL
MODEL 6
REMARK VINA RESULT:      -7.2      1.261      2.140
REMARK  Name = 
REMARK  8 active torsions:
REMARK  status: ('A' for Active; 'I' for Inactive)
REMARK    1  A    between atoms: C_1  and  C_2
REMARK    2  A    between atoms: C_2  and  C_3
REMARK    3  A    between atoms: C_2  and  C_4
REMARK    4  A    between atoms: C_2  and  N_5
REMARK    5  A    between atoms: C_9  and  C_10
REMARK    6  A    between atoms: C_10  and  C_11
REMARK    7  A    between atoms: C_10  and  N_17
REMARK    8  A    between atoms: N_20  and  C_21
REMARK                            x       y       z     vdW  Elec       q    Type
REMARK                         _______ _______ _______ _____ _____    ______ ____
ROOT
ATOM      1  C   UNL     1       3.956   5.438  17.010  0.00  0.00    +0.000 C 
ENDROOT
BRANCH   1   2
ATOM      2  C   UNL     1       3.546   4.040  17.525  0.00  0.00    +0.000 A 
ATOM      3  C   UNL     1       4.370   3.211  18.311  0.00  0.00    +0.000 A 
ATOM      4  C   UNL     1       3.832   2.115  18.995  0.00  0.00    +0.000 A 
ATOM      5  C   UNL     1       2.492   1.831  18.837  0.00  0.00    +0.000 A 
ATOM      6  N   UNL     1       1.684   2.530  18.015  0.00  0.00    +0.000 NA
ATOM      7  C   UNL     1       2.230   3.602  17.383  0.00  0.00    +0.000 A 
ENDBRANCH   1   2
BRANCH   1   8
ATOM      8  N   UNL     1       3.905   6.455  18.080  0.00  0.00    +0.000 NA
ATOM      9  C   UNL     1       3.486   7.805  17.673  0.00  0.00    +0.000 C 
ATOM     10  C   UNL     1       2.035   8.249  17.995  0.00  0.00    +0.000 C 
ATOM     11  N   UNL     1       1.692   7.939  19.394  0.00  0.00    +0.000 N 
ATOM     12  C   UNL     1       1.852   6.509  19.690  0.00  0.00    +0.000 C 
ATOM     13  C   UNL     1       3.292   6.035  19.360  0.00  0.00    +0.000 C 
BRANCH  11  14
ATOM     14  C   UNL     1       1.229   8.857  20.319  0.00  0.00    +0.000 A 
ATOM     15  C   UNL     1       1.092   8.557  21.684  0.00  0.00    +0.000 A 
ATOM     16  C   UNL     1       0.523   9.453  22.605  0.00  0.00    +0.000 A 
ATOM     17  C   UNL     1       0.082  10.699  22.190  0.00  0.00    +0.000 A 
ATOM     18  C   UNL     1       0.250  11.061  20.864  0.00  0.00    +0.000 A 
ATOM     19  C   UNL     1       0.824  10.157  19.957  0.00  0.00    +0.000 A 
ENDBRANCH  11  14
ENDBRANCH   1   8
BRANCH   1  24
ATOM     20  N   UNL     1       6.586   5.381  16.854  0.00  0.00    +0.000 N 
ATOM     21  N   UNL     1       7.427   5.118  15.820  0.00  0.00    +0.000 NA
ATOM     22  N   UNL     1       6.741   5.298  14.713  0.00  0.00    +0.000 NA
ATOM     23  N   UNL     1       5.441   5.560  14.994  0.00  0.00    +0.000 NA
ATOM     24  C   UNL     1       5.305   5.524  16.310  0.00  0.00    +0.000 A 
BRANCH  20  26
ATOM     25  C   UNL     1       8.398   4.610  18.390  0.00  0.00    +0.000 C 
ATOM     26  C   UNL     1       7.217   5.619  18.173  0.00  0.00    +0.000 C 
ATOM     27  C   UNL     1       6.286   5.417  19.387  0.00  0.00    +0.000 C 
ATOM     28  C   UNL     1       7.830   7.030  18.269  0.00  0.00    +0.000 C 
ENDBRANCH  20  26
ENDBRANCH   1  24
TORSDOF 5
ENDMDL
MODEL 7
REMARK VINA RESULT:      -7.2      0.883      1.320
REMARK  Name = 
REMARK  8 active torsions:
REMARK  status: ('A' for Active; 'I' for Inactive)
REMARK    1  A    between atoms: C_1  and  C_2
REMARK    2  A    between atoms: C_2  and  C_3
REMARK    3  A    between atoms: C_2  and  C_4
REMARK    4  A    between atoms: C_2  and  N_5
REMARK    5  A    between atoms: C_9  and  C_10
REMARK    6  A    between atoms: C_10  and  C_11
REMARK    7  A    between atoms: C_10  and  N_17
REMARK    8  A    between atoms: N_20  and  C_21
REMARK                            x       y       z     vdW  Elec       q    Type
REMARK                         _______ _______ _______ _____ _____    ______ ____
ROOT
ATOM      1  C   UNL     1       3.982   5.013  18.081  0.00  0.00    +0.000 C 
ENDROOT
BRANCH   1   2
ATOM      2  C   UNL     1       3.130   3.910  18.748  0.00  0.00    +0.000 A 
ATOM      3  C   UNL     1       3.404   3.351  20.011  0.00  0.00    +0.000 A 
ATOM      4  C   UNL     1       2.434   2.597  20.681  0.00  0.00    +0.000 A 
ATOM      5  C   UNL     1       1.229   2.365  20.053  0.00  0.00    +0.000 A 
ATOM      6  N   UNL     1       0.957   2.788  18.803  0.00  0.00    +0.000 NA
ATOM      7  C   UNL     1       1.909   3.538  18.188  0.00  0.00    +0.000 A 
ENDBRANCH   1   2
BRANCH   1   8
ATOM      8  N   UNL     1       3.857   6.306  18.785  0.00  0.00    +0.000 NA
ATOM      9  C   UNL     1       3.661   7.491  17.937  0.00  0.00    +0.000 C 
ATOM     10  C   UNL     1       2.232   8.085  17.828  0.00  0.00    +0.000 C 
ATOM     11  N   UNL     1       1.623   8.227  19.162  0.00  0.00    +0.000 N 
ATOM     12  C   UNL     1       1.575   6.945  19.879  0.00  0.00    +0.000 C 
ATOM     13  C   UNL     1       2.992   6.321  19.986  0.00  0.00    +0.000 C 
BRANCH  11  14
ATOM     14  C   UNL     1       1.108   9.402  19.678  0.00  0.00    +0.000 A 
ATOM     15  C   UNL     1       1.044  10.594  18.936  0.00  0.00    +0.000 A 
ATOM     16  C   UNL     1       0.619  11.812  19.492  0.00  0.00    +0.000 A 
ATOM     17  C   UNL     1       0.224  11.878  20.819  0.00  0.00    +0.000 A 
ATOM     18  C   UNL     1       0.215  10.716  21.573  0.00  0.00    +0.000 A 
ATOM     19  C   UNL     1       0.639   9.506  21.002  0.00  0.00    +0.000 A 
ENDBRANCH  11  14
ENDBRANCH   1   8
BRANCH   1  24
ATOM     20  N   UNL     1       6.275   4.948  16.783  0.00  0.00    +0.000 N 
ATOM     21  N   UNL     1       7.561   4.886  17.217  0.00  0.00    +0.000 NA
ATOM     22  N   UNL     1       7.527   4.422  18.447  0.00  0.00    +0.000 NA
ATOM     23  N   UNL     1       6.248   4.286  18.872  0.00  0.00    +0.000 NA
ATOM     24  C   UNL     1       5.458   4.695  17.891  0.00  0.00    +0.000 A 
BRANCH  20  26
ATOM     25  C   UNL     1       5.193   3.887  14.798  0.00  0.00    +0.000 C 
ATOM     26  C   UNL     1       6.079   5.072  15.321  0.00  0.00    +0.000 C 
ATOM     27  C   UNL     1       7.372   5.008  14.480  0.00  0.00    +0.000 C 
ATOM     28  C   UNL     1       5.330   6.367  14.951  0.00  0.00    +0.000 C 
ENDBRANCH  20  26
ENDBRANCH   1  24
TORSDOF 5
ENDMDL
MODEL 8
REMARK VINA RESULT:      -7.2      1.794      2.470
REMARK  Name = 
REMARK  8 active torsions:
REMARK  status: ('A' for Active; 'I' for Inactive)
REMARK    1  A    between atoms: C_1  and  C_2
REMARK    2  A    between atoms: C_2  and  C_3
REMARK    3  A    between atoms: C_2  and  C_4
REMARK    4  A    between atoms: C_2  and  N_5
REMARK    5  A    between atoms: C_9  and  C_10
REMARK    6  A    between atoms: C_10  and  C_11
REMARK    7  A    between atoms: C_10  and  N_17
REMARK    8  A    between atoms: N_20  and  C_21
REMARK                            x       y       z     vdW  Elec       q    Type
REMARK                         _______ _______ _______ _____ _____    ______ ____
ROOT
ATOM      1  C   UNL     1       3.365   5.740  18.687  0.00  0.00    +0.000 C 
ENDROOT
BRANCH   1   2
ATOM      2  C   UNL     1       2.405   4.829  19.486  0.00  0.00    +0.000 A 
ATOM      3  C   UNL     1       1.410   4.021  18.903  0.00  0.00    +0.000 A 
ATOM      4  C   UNL     1       0.798   3.002  19.642  0.00  0.00    +0.000 A 
ATOM      5  C   UNL     1       1.148   2.845  20.966  0.00  0.00    +0.000 A 
ATOM      6  N   UNL     1       2.017   3.658  21.599  0.00  0.00    +0.000 NA
ATOM      7  C   UNL     1       2.612   4.623  20.849  0.00  0.00    +0.000 A 
ENDBRANCH   1   2
BRANCH   1   8
ATOM      8  N   UNL     1       3.224   7.159  19.074  0.00  0.00    +0.000 NA
ATOM      9  C   UNL     1       3.132   8.127  17.970  0.00  0.00    +0.000 C 
ATOM     10  C   UNL     1       1.735   8.699  17.614  0.00  0.00    +0.000 C 
ATOM     11  N   UNL     1       1.028   9.144  18.828  0.00  0.00    +0.000 N 
ATOM     12  C   UNL     1       0.885   8.056  19.804  0.00  0.00    +0.000 C 
ATOM     13  C   UNL     1       2.269   7.453  20.165  0.00  0.00    +0.000 C 
BRANCH  11  14
ATOM     14  C   UNL     1       0.511  10.411  19.025  0.00  0.00    +0.000 A 
ATOM     15  C   UNL     1      -0.813  10.636  19.437  0.00  0.00    +0.000 A 
ATOM     16  C   UNL     1      -1.369  11.922  19.536  0.00  0.00    +0.000 A 
ATOM     17  C   UNL     1      -0.607  13.041  19.237  0.00  0.00    +0.000 A 
ATOM     18  C   UNL     1       0.721  12.871  18.883  0.00  0.00    +0.000 A 
ATOM     19  C   UNL     1       1.263  11.580  18.793  0.00  0.00    +0.000 A 
ENDBRANCH  11  14
ENDBRANCH   1   8
BRANCH   1  24
ATOM     20  N   UNL     1       5.768   5.341  17.683  0.00  0.00    +0.000 N 
ATOM     21  N   UNL     1       7.002   5.354  18.251  0.00  0.00    +0.000 NA
ATOM     22  N   UNL     1       6.829   5.181  19.543  0.00  0.00    +0.000 NA
ATOM     23  N   UNL     1       5.510   5.168  19.852  0.00  0.00    +0.000 NA
ATOM     24  C   UNL     1       4.837   5.360  18.728  0.00  0.00    +0.000 A 
BRANCH  20  26
ATOM     25  C   UNL     1       7.161   4.839  15.671  0.00  0.00    +0.000 C 
ATOM     26  C   UNL     1       5.720   5.135  16.217  0.00  0.00    +0.000 C 
ATOM     27  C   UNL     1       5.224   6.349  15.403  0.00  0.00    +0.000 C 
ATOM     28  C   UNL     1       4.856   3.917  15.837  0.00  0.00    +0.000 C 
ENDBRANCH  20  26
ENDBRANCH   1  24
TORSDOF 5
ENDMDL
MODEL 9
REMARK VINA RESULT:      -7.2      1.789      2.366
REMARK  Name = 
REMARK  8 active torsions:
REMARK  status: ('A' for Active; 'I' for Inactive)
REMARK    1  A    between atoms: C_1  and  C_2
REMARK    2  A    between atoms: C_2  and  C_3
REMARK    3  A    between atoms: C_2  and  C_4
REMARK    4  A    between atoms: C_2  and  N_5
REMARK    5  A    between atoms: C_9  and  C_10
REMARK    6  A    between atoms: C_10  and  C_11
REMARK    7  A    between atoms: C_10  and  N_17
REMARK    8  A    between atoms: N_20  and  C_21
REMARK                            x       y       z     vdW  Elec       q    Type
REMARK                         _______ _______ _______ _____ _____    ______ ____
ROOT
ATOM      1  C   UNL     1       3.373   5.763  18.644  0.00  0.00    +0.000 C 
ENDROOT
BRANCH   1   2
ATOM      2  C   UNL     1       2.402   4.845  19.421  0.00  0.00    +0.000 A 
ATOM      3  C   UNL     1       1.429   4.026  18.816  0.00  0.00    +0.000 A 
ATOM      4  C   UNL     1       0.808   3.003  19.543  0.00  0.00    +0.000 A 
ATOM      5  C   UNL     1       1.126   2.855  20.876  0.00  0.00    +0.000 A 
ATOM      6  N   UNL     1       1.971   3.679  21.528  0.00  0.00    +0.000 NA
ATOM      7  C   UNL     1       2.576   4.646  20.790  0.00  0.00    +0.000 A 
ENDBRANCH   1   2
BRANCH   1   8
ATOM      8  N   UNL     1       3.225   7.179  19.038  0.00  0.00    +0.000 NA
ATOM      9  C   UNL     1       3.105   8.150  17.939  0.00  0.00    +0.000 C 
ATOM     10  C   UNL     1       1.697   8.710  17.608  0.00  0.00    +0.000 C 
ATOM     11  N   UNL     1       1.006   9.143  18.834  0.00  0.00    +0.000 N 
ATOM     12  C   UNL     1       0.889   8.051  19.809  0.00  0.00    +0.000 C 
ATOM     13  C   UNL     1       2.285   7.460  20.145  0.00  0.00    +0.000 C 
BRANCH  11  14
ATOM     14  C   UNL     1       0.479  10.405  19.044  0.00  0.00    +0.000 A 
ATOM     15  C   UNL     1       1.253  11.574  18.959  0.00  0.00    +0.000 A 
ATOM     16  C   UNL     1       0.744  12.845  19.276  0.00  0.00    +0.000 A 
ATOM     17  C   UNL     1      -0.575  12.994  19.676  0.00  0.00    +0.000 A 
ATOM     18  C   UNL     1      -1.391  11.876  19.717  0.00  0.00    +0.000 A 
ATOM     19  C   UNL     1      -0.869  10.613  19.395  0.00  0.00    +0.000 A 
ENDBRANCH  11  14
ENDBRANCH   1   8
BRANCH   1  24
ATOM     20  N   UNL     1       5.788   5.356  17.671  0.00  0.00    +0.000 N 
ATOM     21  N   UNL     1       7.015   5.375  18.254  0.00  0.00    +0.000 NA
ATOM     22  N   UNL     1       6.827   5.214  19.545  0.00  0.00    +0.000 NA
ATOM     23  N   UNL     1       5.505   5.203  19.839  0.00  0.00    +0.000 NA
ATOM     24  C   UNL     1       4.845   5.384  18.705  0.00  0.00    +0.000 A 
BRANCH  20  26
ATOM     25  C   UNL     1       4.811   3.933  15.866  0.00  0.00    +0.000 C 
ATOM     26  C   UNL     1       5.757   5.137  16.207  0.00  0.00    +0.000 C 
ATOM     27  C   UNL     1       7.116   4.772  15.572  0.00  0.00    +0.000 C 
ATOM     28  C   UNL     1       5.190   6.358  15.456  0.00  0.00    +0.000 C 
ENDBRANCH  20  26
ENDBRANCH   1  24
TORSDOF 5
ENDMDL
