MODEL 1
REMARK VINA RESULT:      -7.9      0.000      0.000
REMARK  Name = 
REMARK  3 active torsions:
REMARK  status: ('A' for Active; 'I' for Inactive)
REMARK    1  A    between atoms: N_2  and  C_4
REMARK    2  A    between atoms: C_6  and  C_7
REMARK    3  A    between atoms: C_7  and  N_8
REMARK                            x       y       z     vdW  Elec       q    Type
REMARK                         _______ _______ _______ _____ _____    ______ ____
ROOT
ATOM      1  C   UNL     1       2.682   5.085  19.365  0.00  0.00    +0.000 C 
ATOM      2  C   UNL     1       1.511   4.429  18.552  0.00  0.00    +0.000 C 
ATOM      3  C   UNL     1       1.575   2.892  18.544  0.00  0.00    +0.000 C 
ATOM      4  C   UNL     1       1.507   2.361  19.981  0.00  0.00    +0.000 C 
ATOM      5  C   UNL     1       2.701   2.883  20.777  0.00  0.00    +0.000 C 
ATOM      6  C   UNL     1       2.707   4.425  20.792  0.00  0.00    +0.000 C 
ENDROOT
BRANCH   1   9
ATOM      7  C   UNL     1       6.274   4.832  18.011  0.00  0.00    +0.000 A 
ATOM      8  C   UNL     1       5.309   5.013  19.022  0.00  0.00    +0.000 A 
ATOM      9  C   UNL     1       3.989   4.847  18.587  0.00  0.00    +0.000 A 
ATOM     10  S   UNL     1       4.044   4.476  16.941  0.00  0.00    +0.000 S 
ATOM     11  C   UNL     1       5.711   4.537  16.766  0.00  0.00    +0.000 A 
ATOM     12 BR   UNL     1       6.590   4.322  15.079  0.00  0.00    +0.000 Br
BRANCH   7  14
ATOM     13  O   UNL     1       8.433   4.133  17.881  0.00  0.00    +0.000 OA
ATOM     14  N   UNL     1       7.670   4.969  18.260  0.00  0.00    +0.000 N 
ATOM     15  O   UNL     1       8.147   6.036  18.865  0.00  0.00    +0.000 OA
ENDBRANCH   7  14
ENDBRANCH   1   9
BRANCH   1  16
ATOM     16  N   UNL     1       2.489   6.585  19.460  0.00  0.00    +0.000 NA
ATOM     17  C   UNL     1       2.152   7.271  18.176  0.00  0.00    +0.000 C 
ATOM     18  C   UNL     1       2.137   8.796  18.338  0.00  0.00    +0.000 C 
ATOM     19  C   UNL     1       1.129   9.196  19.410  0.00  0.00    +0.000 C 
ATOM     20  C   UNL     1       1.504   8.507  20.716  0.00  0.00    +0.000 C 
ATOM     21  C   UNL     1       1.510   6.988  20.514  0.00  0.00    +0.000 C 
ENDBRANCH   1  16
TORSDOF 3
ENDMDL
MODEL 2
REMARK VINA RESULT:      -7.8      3.655      5.672
REMARK  Name = 
REMARK  3 active torsions:
REMARK  status: ('A' for Active; 'I' for Inactive)
REMARK    1  A    between atoms: N_2  and  C_4
REMARK    2  A    between atoms: C_6  and  C_7
REMARK    3  A    between atoms: C_7  and  N_8
REMARK                            x       y       z     vdW  Elec       q    Type
REMARK                         _______ _______ _______ _____ _____    ______ ____
ROOT
ATOM      1  C   UNL     1       3.334   4.956  18.794  0.00  0.00    +0.000 C 
ATOM      2  C   UNL     1       3.337   4.056  20.080  0.00  0.00    +0.000 C 
ATOM      3  C   UNL     1       1.922   3.664  20.541  0.00  0.00    +0.000 C 
ATOM      4  C   UNL     1       1.208   2.890  19.426  0.00  0.00    +0.000 C 
ATOM      5  C   UNL     1       1.078   3.776  18.190  0.00  0.00    +0.000 C 
ATOM      6  C   UNL     1       2.469   4.228  17.700  0.00  0.00    +0.000 C 
ENDROOT
BRANCH   1   9
ATOM      7  C   UNL     1       1.616   8.022  20.356  0.00  0.00    +0.000 A 
ATOM      8  C   UNL     1       2.157   6.721  20.381  0.00  0.00    +0.000 A 
ATOM      9  C   UNL     1       2.756   6.329  19.179  0.00  0.00    +0.000 A 
ATOM     10  S   UNL     1       2.601   7.615  18.096  0.00  0.00    +0.000 S 
ATOM     11  C   UNL     1       1.774   8.655  19.120  0.00  0.00    +0.000 A 
ATOM     12 BR   UNL     1       1.115  10.363  18.559  0.00  0.00    +0.000 Br
BRANCH   7  14
ATOM     13  O   UNL     1      -0.214   8.425  21.643  0.00  0.00    +0.000 OA
ATOM     14  N   UNL     1       0.957   8.593  21.483  0.00  0.00    +0.000 N 
ATOM     15  O   UNL     1       1.631   9.270  22.388  0.00  0.00    +0.000 OA
ENDBRANCH   7  14
ENDBRANCH   1   9
BRANCH   1  16
ATOM     16  N   UNL     1       4.749   5.190  18.305  0.00  0.00    +0.000 NA
ATOM     17  C   UNL     1       5.801   5.194  19.365  0.00  0.00    +0.000 C 
ATOM     18  C   UNL     1       7.169   5.598  18.801  0.00  0.00    +0.000 C 
ATOM     19  C   UNL     1       7.574   4.644  17.683  0.00  0.00    +0.000 C 
ATOM     20  C   UNL     1       6.502   4.673  16.602  0.00  0.00    +0.000 C 
ATOM     21  C   UNL     1       5.153   4.266  17.203  0.00  0.00    +0.000 C 
ENDBRANCH   1  16
TORSDOF 3
ENDMDL
MODEL 3
REMARK VINA RESULT:      -7.5      3.636      5.617
REMARK  Name = 
REMARK  3 active torsions:
REMARK  status: ('A' for Active; 'I' for Inactive)
REMARK    1  A    between atoms: N_2  and  C_4
REMARK    2  A    between atoms: C_6  and  C_7
REMARK    3  A    between atoms: C_7  and  N_8
REMARK                            x       y       z     vdW  Elec       q    Type
REMARK                         _______ _______ _______ _____ _____    ______ ____
ROOT
ATOM      1  C   UNL     1       3.331   4.669  18.686  0.00  0.00    +0.000 C 
ATOM      2  C   UNL     1       3.382   3.799  19.991  0.00  0.00    +0.000 C 
ATOM      3  C   UNL     1       1.996   3.297  20.430  0.00  0.00    +0.000 C 
ATOM      4  C   UNL     1       1.376   2.442  19.318  0.00  0.00    +0.000 C 
ATOM      5  C   UNL     1       1.199   3.289  18.060  0.00  0.00    +0.000 C 
ATOM      6  C   UNL     1       2.557   3.849  17.589  0.00  0.00    +0.000 C 
ENDROOT
BRANCH   1   9
ATOM      7  C   UNL     1       1.847   8.213  18.874  0.00  0.00    +0.000 A 
ATOM      8  C   UNL     1       2.406   7.106  18.206  0.00  0.00    +0.000 A 
ATOM      9  C   UNL     1       2.630   5.996  19.028  0.00  0.00    +0.000 A 
ATOM     10  S   UNL     1       2.126   6.413  20.584  0.00  0.00    +0.000 S 
ATOM     11  C   UNL     1       1.643   7.981  20.237  0.00  0.00    +0.000 A 
ATOM     12 BR   UNL     1       1.022   9.201  21.576  0.00  0.00    +0.000 Br
BRANCH   7  14
ATOM     13  O   UNL     1       2.399   9.983  17.558  0.00  0.00    +0.000 OA
ATOM     14  N   UNL     1       1.557   9.437  18.205  0.00  0.00    +0.000 N 
ATOM     15  O   UNL     1       0.349   9.960  18.247  0.00  0.00    +0.000 OA
ENDBRANCH   7  14
ENDBRANCH   1   9
BRANCH   1  16
ATOM     16  N   UNL     1       4.732   5.015  18.221  0.00  0.00    +0.000 NA
ATOM     17  C   UNL     1       5.757   5.127  19.303  0.00  0.00    +0.000 C 
ATOM     18  C   UNL     1       7.097   5.636  18.759  0.00  0.00    +0.000 C 
ATOM     19  C   UNL     1       7.607   4.700  17.669  0.00  0.00    +0.000 C 
ATOM     20  C   UNL     1       6.560   4.619  16.565  0.00  0.00    +0.000 C 
ATOM     21  C   UNL     1       5.237   4.109  17.146  0.00  0.00    +0.000 C 
ENDBRANCH   1  16
TORSDOF 3
ENDMDL
MODEL 4
REMARK VINA RESULT:      -7.3      0.815      1.347
REMARK  Name = 
REMARK  3 active torsions:
REMARK  status: ('A' for Active; 'I' for Inactive)
REMARK    1  A    between atoms: N_2  and  C_4
REMARK    2  A    between atoms: C_6  and  C_7
REMARK    3  A    between atoms: C_7  and  N_8
REMARK                            x       y       z     vdW  Elec       q    Type
REMARK                         _______ _______ _______ _____ _____    ______ ____
ROOT
ATOM      1  C   UNL     1       2.344   5.135  19.333  0.00  0.00    +0.000 C 
ATOM      2  C   UNL     1       1.473   4.126  18.505  0.00  0.00    +0.000 C 
ATOM      3  C   UNL     1       1.819   2.656  18.796  0.00  0.00    +0.000 C 
ATOM      4  C   UNL     1       1.602   2.356  20.284  0.00  0.00    +0.000 C 
ATOM      5  C   UNL     1       2.521   3.238  21.125  0.00  0.00    +0.000 C 
ATOM      6  C   UNL     1       2.241   4.729  20.849  0.00  0.00    +0.000 C 
ENDROOT
BRANCH   1   9
ATOM      7  C   UNL     1       6.109   5.399  18.594  0.00  0.00    +0.000 A 
ATOM      8  C   UNL     1       4.967   5.502  19.412  0.00  0.00    +0.000 A 
ATOM      9  C   UNL     1       3.787   5.060  18.803  0.00  0.00    +0.000 A 
ATOM     10  S   UNL     1       4.186   4.545  17.246  0.00  0.00    +0.000 S 
ATOM     11  C   UNL     1       5.826   4.887  17.324  0.00  0.00    +0.000 A 
ATOM     12 BR   UNL     1       7.009   4.668  15.834  0.00  0.00    +0.000 Br
BRANCH   7  14
ATOM     13  O   UNL     1       7.997   5.153  19.837  0.00  0.00    +0.000 OA
ATOM     14  N   UNL     1       7.400   5.808  19.037  0.00  0.00    +0.000 N 
ATOM     15  O   UNL     1       7.976   6.882  18.539  0.00  0.00    +0.000 OA
ENDBRANCH   7  14
ENDBRANCH   1   9
BRANCH   1  16
ATOM     16  N   UNL     1       1.864   6.556  19.115  0.00  0.00    +0.000 NA
ATOM     17  C   UNL     1       1.886   7.433  20.325  0.00  0.00    +0.000 C 
ATOM     18  C   UNL     1       1.234   8.793  20.049  0.00  0.00    +0.000 C 
ATOM     19  C   UNL     1       1.953   9.491  18.900  0.00  0.00    +0.000 C 
ATOM     20  C   UNL     1       1.899   8.594  17.670  0.00  0.00    +0.000 C 
ATOM     21  C   UNL     1       2.557   7.247  17.986  0.00  0.00    +0.000 C 
ENDBRANCH   1  16
TORSDOF 3
ENDMDL
MODEL 5
REMARK VINA RESULT:      -7.2      3.475      5.364
REMARK  Name = 
REMARK  3 active torsions:
REMARK  status: ('A' for Active; 'I' for Inactive)
REMARK    1  A    between atoms: N_2  and  C_4
REMARK    2  A    between atoms: C_6  and  C_7
REMARK    3  A    between atoms: C_7  and  N_8
REMARK                            x       y       z     vdW  Elec       q    Type
REMARK                         _______ _______ _______ _____ _____    ______ ____
ROOT
ATOM      1  C   UNL     1       3.384   4.400  18.904  0.00  0.00    +0.000 C 
ATOM      2  C   UNL     1       3.139   3.532  20.188  0.00  0.00    +0.000 C 
ATOM      3  C   UNL     1       1.648   3.260  20.453  0.00  0.00    +0.000 C 
ATOM      4  C   UNL     1       1.035   2.519  19.259  0.00  0.00    +0.000 C 
ATOM      5  C   UNL     1       1.147   3.384  18.006  0.00  0.00    +0.000 C 
ATOM      6  C   UNL     1       2.623   3.717  17.708  0.00  0.00    +0.000 C 
ENDROOT
BRANCH   1   9
ATOM      7  C   UNL     1       1.785   7.639  20.225  0.00  0.00    +0.000 A 
ATOM      8  C   UNL     1       2.254   6.315  20.344  0.00  0.00    +0.000 A 
ATOM      9  C   UNL     1       2.870   5.822  19.188  0.00  0.00    +0.000 A 
ATOM     10  S   UNL     1       2.821   7.049  18.029  0.00  0.00    +0.000 S 
ATOM     11  C   UNL     1       2.019   8.189  18.962  0.00  0.00    +0.000 A 
ATOM     12 BR   UNL     1       1.473   9.894  18.281  0.00  0.00    +0.000 Br
BRANCH   7  14
ATOM     13  O   UNL     1       1.744   8.981  22.060  0.00  0.00    +0.000 OA
ATOM     14  N   UNL     1       1.122   8.309  21.294  0.00  0.00    +0.000 N 
ATOM     15  O   UNL     1      -0.186   8.239  21.426  0.00  0.00    +0.000 OA
ENDBRANCH   7  14
ENDBRANCH   1   9
BRANCH   1  16
ATOM     16  N   UNL     1       4.867   4.514  18.613  0.00  0.00    +0.000 NA
ATOM     17  C   UNL     1       5.231   4.607  17.167  0.00  0.00    +0.000 C 
ATOM     18  C   UNL     1       6.750   4.554  16.963  0.00  0.00    +0.000 C 
ATOM     19  C   UNL     1       7.419   5.688  17.731  0.00  0.00    +0.000 C 
ATOM     20  C   UNL     1       7.056   5.562  19.205  0.00  0.00    +0.000 C 
ATOM     21  C   UNL     1       5.534   5.617  19.368  0.00  0.00    +0.000 C 
ENDBRANCH   1  16
TORSDOF 3
ENDMDL
MODEL 6
REMARK VINA RESULT:      -7.2      3.585      5.337
REMARK  Name = 
REMARK  3 active torsions:
REMARK  status: ('A' for Active; 'I' for Inactive)
REMARK    1  A    between atoms: N_2  and  C_4
REMARK    2  A    between atoms: C_6  and  C_7
REMARK    3  A    between atoms: C_7  and  N_8
REMARK                            x       y       z     vdW  Elec       q    Type
REMARK                         _______ _______ _______ _____ _____    ______ ____
ROOT
ATOM      1  C   UNL     1       4.235   4.596  18.251  0.00  0.00    +0.000 C 
ATOM      2  C   UNL     1       4.180   3.543  19.413  0.00  0.00    +0.000 C 
ATOM      3  C   UNL     1       2.814   2.844  19.524  0.00  0.00    +0.000 C 
ATOM      4  C   UNL     1       2.494   2.116  18.212  0.00  0.00    +0.000 C 
ATOM      5  C   UNL     1       2.421   3.127  17.070  0.00  0.00    +0.000 C 
ATOM      6  C   UNL     1       3.757   3.884  16.932  0.00  0.00    +0.000 C 
ENDROOT
BRANCH   1   9
ATOM      7  C   UNL     1       2.222   7.857  18.581  0.00  0.00    +0.000 A 
ATOM      8  C   UNL     1       2.965   6.891  17.874  0.00  0.00    +0.000 A 
ATOM      9  C   UNL     1       3.328   5.778  18.639  0.00  0.00    +0.000 A 
ATOM     10  S   UNL     1       2.715   6.014  20.194  0.00  0.00    +0.000 S 
ATOM     11  C   UNL     1       2.011   7.511  19.919  0.00  0.00    +0.000 A 
ATOM     12 BR   UNL     1       1.167   8.535  21.299  0.00  0.00    +0.000 Br
BRANCH   7  14
ATOM     13  O   UNL     1       2.558   9.859  17.557  0.00  0.00    +0.000 OA
ATOM     14  N   UNL     1       1.770   9.064  17.972  0.00  0.00    +0.000 N 
ATOM     15  O   UNL     1       0.485   9.301  17.814  0.00  0.00    +0.000 OA
ENDBRANCH   7  14
ENDBRANCH   1   9
BRANCH   1  16
ATOM     16  N   UNL     1       5.639   5.146  18.096  0.00  0.00    +0.000 NA
ATOM     17  C   UNL     1       5.768   6.329  17.192  0.00  0.00    +0.000 C 
ATOM     18  C   UNL     1       7.236   6.712  16.970  0.00  0.00    +0.000 C 
ATOM     19  C   UNL     1       7.904   7.016  18.307  0.00  0.00    +0.000 C 
ATOM     20  C   UNL     1       7.783   5.790  19.204  0.00  0.00    +0.000 C 
ATOM     21  C   UNL     1       6.305   5.439  19.401  0.00  0.00    +0.000 C 
ENDBRANCH   1  16
TORSDOF 3
ENDMDL
MODEL 7
REMARK VINA RESULT:      -6.9      3.067      5.025
REMARK  Name = 
REMARK  3 active torsions:
REMARK  status: ('A' for Active; 'I' for Inactive)
REMARK    1  A    between atoms: N_2  and  C_4
REMARK    2  A    between atoms: C_6  and  C_7
REMARK    3  A    between atoms: C_7  and  N_8
REMARK                            x       y       z     vdW  Elec       q    Type
REMARK                         _______ _______ _______ _____ _____    ______ ____
ROOT
ATOM      1  C   UNL     1       5.504   5.010  17.299  0.00  0.00    +0.000 C 
ATOM      2  C   UNL     1       6.543   4.396  18.302  0.00  0.00    +0.000 C 
ATOM      3  C   UNL     1       7.913   5.094  18.248  0.00  0.00    +0.000 C 
ATOM      4  C   UNL     1       7.753   6.581  18.587  0.00  0.00    +0.000 C 
ATOM      5  C   UNL     1       6.839   7.245  17.560  0.00  0.00    +0.000 C 
ATOM      6  C   UNL     1       5.456   6.563  17.545  0.00  0.00    +0.000 C 
ENDROOT
BRANCH   1   9
ATOM      7  C   UNL     1       7.004   4.794  13.763  0.00  0.00    +0.000 A 
ATOM      8  C   UNL     1       6.922   5.293  15.078  0.00  0.00    +0.000 A 
ATOM      9  C   UNL     1       5.959   4.659  15.871  0.00  0.00    +0.000 A 
ATOM     10  S   UNL     1       5.219   3.479  14.916  0.00  0.00    +0.000 S 
ATOM     11  C   UNL     1       6.087   3.769  13.511  0.00  0.00    +0.000 A 
ATOM     12 BR   UNL     1       5.735   2.860  11.863  0.00  0.00    +0.000 Br
BRANCH   7  14
ATOM     13  O   UNL     1       7.714   5.179  11.638  0.00  0.00    +0.000 OA
ATOM     14  N   UNL     1       7.918   5.321  12.806  0.00  0.00    +0.000 N 
ATOM     15  O   UNL     1       8.972   6.011  13.187  0.00  0.00    +0.000 OA
ENDBRANCH   7  14
ENDBRANCH   1   9
BRANCH   1  16
ATOM     16  N   UNL     1       4.138   4.384  17.496  0.00  0.00    +0.000 NA
ATOM     17  C   UNL     1       4.082   3.270  18.490  0.00  0.00    +0.000 C 
ATOM     18  C   UNL     1       2.705   2.594  18.503  0.00  0.00    +0.000 C 
ATOM     19  C   UNL     1       1.624   3.620  18.824  0.00  0.00    +0.000 C 
ATOM     20  C   UNL     1       1.681   4.734  17.786  0.00  0.00    +0.000 C 
ATOM     21  C   UNL     1       3.070   5.382  17.803  0.00  0.00    +0.000 C 
ENDBRANCH   1  16
TORSDOF 3
ENDMDL
MODEL 8
REMARK VINA RESULT:      -6.8      1.843      1.926
REMARK  Name = 
REMARK  3 active torsions:
REMARK  status: ('A' for Active; 'I' for Inactive)
REMARK    1  A    between atoms: N_2  and  C_4
REMARK    2  A    between atoms: C_6  and  C_7
REMARK    3  A    between atoms: C_7  and  N_8
REMARK                            x       y       z     vdW  Elec       q    Type
REMARK                         _______ _______ _______ _____ _____    ______ ____
ROOT
ATOM      1  C   UNL     1       2.553   5.574  19.124  0.00  0.00    +0.000 C 
ATOM      2  C   UNL     1       1.459   4.963  18.179  0.00  0.00    +0.000 C 
ATOM      3  C   UNL     1       1.546   3.430  18.074  0.00  0.00    +0.000 C 
ATOM      4  C   UNL     1       1.373   2.803  19.463  0.00  0.00    +0.000 C 
ATOM      5  C   UNL     1       2.492   3.282  20.384  0.00  0.00    +0.000 C 
ATOM      6  C   UNL     1       2.475   4.820  20.502  0.00  0.00    +0.000 C 
ENDROOT
BRANCH   1   9
ATOM      7  C   UNL     1       5.561   4.930  16.815  0.00  0.00    +0.000 A 
ATOM      8  C   UNL     1       4.199   5.171  17.087  0.00  0.00    +0.000 A 
ATOM      9  C   UNL     1       3.920   5.401  18.439  0.00  0.00    +0.000 A 
ATOM     10  S   UNL     1       5.381   5.300  19.279  0.00  0.00    +0.000 S 
ATOM     11  C   UNL     1       6.359   4.954  17.961  0.00  0.00    +0.000 A 
ATOM     12 BR   UNL     1       8.229   4.575  18.123  0.00  0.00    +0.000 Br
BRANCH   7  14
ATOM     13  O   UNL     1       6.005   3.555  15.059  0.00  0.00    +0.000 OA
ATOM     14  N   UNL     1       6.037   4.665  15.498  0.00  0.00    +0.000 N 
ATOM     15  O   UNL     1       6.471   5.640  14.728  0.00  0.00    +0.000 OA
ENDBRANCH   7  14
ENDBRANCH   1   9
BRANCH   1  16
ATOM     16  N   UNL     1       2.331   7.062  19.303  0.00  0.00    +0.000 NA
ATOM     17  C   UNL     1       1.898   7.798  18.076  0.00  0.00    +0.000 C 
ATOM     18  C   UNL     1       1.857   9.313  18.312  0.00  0.00    +0.000 C 
ATOM     19  C   UNL     1       0.909   9.636  19.461  0.00  0.00    +0.000 C 
ATOM     20  C   UNL     1       1.380   8.897  20.707  0.00  0.00    +0.000 C 
ATOM     21  C   UNL     1       1.409   7.390  20.432  0.00  0.00    +0.000 C 
ENDBRANCH   1  16
TORSDOF 3
ENDMDL
MODEL 9
REMARK VINA RESULT:      -6.7      1.731      2.150
REMARK  Name = 
REMARK  3 active torsions:
REMARK  status: ('A' for Active; 'I' for Inactive)
REMARK    1  A    between atoms: N_2  and  C_4
REMARK    2  A    between atoms: C_6  and  C_7
REMARK    3  A    between atoms: C_7  and  N_8
REMARK                            x       y       z     vdW  Elec       q    Type
REMARK                         _______ _______ _______ _____ _____    ______ ____
ROOT
ATOM      1  C   UNL     1       2.363   5.086  18.872  0.00  0.00    +0.000 C 
ATOM      2  C   UNL     1       1.541   4.207  17.865  0.00  0.00    +0.000 C 
ATOM      3  C   UNL     1       1.923   2.717  17.919  0.00  0.00    +0.000 C 
ATOM      4  C   UNL     1       1.679   2.170  19.331  0.00  0.00    +0.000 C 
ATOM      5  C   UNL     1       2.554   2.922  20.331  0.00  0.00    +0.000 C 
ATOM      6  C   UNL     1       2.237   4.431  20.297  0.00  0.00    +0.000 C 
ENDROOT
BRANCH   1   9
ATOM      7  C   UNL     1       5.726   4.879  17.016  0.00  0.00    +0.000 A 
ATOM      8  C   UNL     1       4.319   4.868  17.098  0.00  0.00    +0.000 A 
ATOM      9  C   UNL     1       3.820   5.135  18.378  0.00  0.00    +0.000 A 
ATOM     10  S   UNL     1       5.145   5.380  19.394  0.00  0.00    +0.000 S 
ATOM     11  C   UNL     1       6.342   5.139  18.244  0.00  0.00    +0.000 A 
ATOM     12 BR   UNL     1       8.209   5.145  18.666  0.00  0.00    +0.000 Br
BRANCH   7  14
ATOM     13  O   UNL     1       6.174   3.637  15.166  0.00  0.00    +0.000 OA
ATOM     14  N   UNL     1       6.418   4.620  15.798  0.00  0.00    +0.000 N 
ATOM     15  O   UNL     1       7.298   5.477  15.326  0.00  0.00    +0.000 OA
ENDBRANCH   7  14
ENDBRANCH   1   9
BRANCH   1  16
ATOM     16  N   UNL     1       1.848   6.511  18.879  0.00  0.00    +0.000 NA
ATOM     17  C   UNL     1       1.940   7.220  20.191  0.00  0.00    +0.000 C 
ATOM     18  C   UNL     1       1.251   8.589  20.143  0.00  0.00    +0.000 C 
ATOM     19  C   UNL     1       1.878   9.450  19.052  0.00  0.00    +0.000 C 
ATOM     20  C   UNL     1       1.752   8.722  17.720  0.00  0.00    +0.000 C 
ATOM     21  C   UNL     1       2.450   7.361  17.809  0.00  0.00    +0.000 C 
ENDBRANCH   1  16
TORSDOF 3
ENDMDL
