MODEL 1
REMARK VINA RESULT:      -8.2      0.000      0.000
REMARK  Name = 
REMARK  6 active torsions:
REMARK  status: ('A' for Active; 'I' for Inactive)
REMARK    1  A    between atoms: C_1  and  N_2
REMARK    2  A    between atoms: C_6  and  C_7
REMARK    3  A    between atoms: C_6  and  C_8
REMARK    4  A    between atoms: C_10  and  C_11
REMARK    5  A    between atoms: C_14  and  C_15
REMARK    6  A    between atoms: N_19  and  C_20
REMARK                            x       y       z     vdW  Elec       q    Type
REMARK                         _______ _______ _______ _____ _____    ______ ____
ROOT
ATOM      1  C   UNL     1       3.557   6.232  18.520  0.00  0.00    +0.000 A 
ATOM      2  S   UNL     1       2.483   6.925  19.711  0.00  0.00    +0.000 S 
ATOM      3  C   UNL     1       2.113   8.273  18.743  0.00  0.00    +0.000 A 
ATOM      4  C   UNL     1       2.838   8.250  17.572  0.00  0.00    +0.000 A 
ATOM      5  C   UNL     1       3.691   7.115  17.460  0.00  0.00    +0.000 A 
ATOM      6 CL   UNL     1       4.717   6.983  16.094  0.00  0.00    +0.000 Cl
ENDROOT
BRANCH   1  12
ATOM      7  C   UNL     1       1.007   1.937  19.614  0.00  0.00    +0.000 C 
ATOM      8  N   UNL     1       2.005   2.993  19.363  0.00  0.00    +0.000 N 
ATOM      9  C   UNL     1       2.556   3.817  20.341  0.00  0.00    +0.000 C 
ATOM     10  N   UNL     1       1.969   4.083  21.450  0.00  0.00    +0.000 NA
ATOM     11  N   UNL     1       3.795   4.302  20.107  0.00  0.00    +0.000 N 
ATOM     12  C   UNL     1       4.206   4.864  18.820  0.00  0.00    +0.000 C 
ATOM     13  C   UNL     1       5.739   5.090  18.936  0.00  0.00    +0.000 C 
ATOM     14  C   UNL     1       4.020   3.781  17.767  0.00  0.00    +0.000 C 
ATOM     15  S   UNL     1       2.354   3.203  17.731  0.00  0.00    +0.000 S 
ATOM     16  O   UNL     1       2.378   1.896  17.102  0.00  0.00    +0.000 OA
ATOM     17  O   UNL     1       1.482   4.237  17.217  0.00  0.00    +0.000 OA
ATOM     18  H   UNL     1       1.029   3.692  21.440  0.00  0.00    +0.000 HD
ATOM     19  H   UNL     1       4.048   4.904  20.888  0.00  0.00    +0.000 HD
ENDBRANCH   1  12
BRANCH   3  20
ATOM     20  C   UNL     1       1.178   9.291  19.127  0.00  0.00    +0.000 A 
ATOM     21  N   UNL     1       0.355   9.857  18.265  0.00  0.00    +0.000 NA
ATOM     22  N   UNL     1      -0.375  10.790  18.956  0.00  0.00    +0.000 NA
ATOM     23  C   UNL     1       0.033  10.750  20.207  0.00  0.00    +0.000 A 
ATOM     24  O   UNL     1       1.027   9.814  20.391  0.00  0.00    +0.000 OA
BRANCH  23  25
ATOM     25  C   UNL     1      -0.477  11.593  21.239  0.00  0.00    +0.000 A 
ATOM     26  C   UNL     1      -0.841  12.923  21.190  0.00  0.00    +0.000 A 
ATOM     27  C   UNL     1      -1.297  13.227  22.484  0.00  0.00    +0.000 A 
ATOM     28  N   UNL     1      -1.225  12.178  23.307  0.00  0.00    +0.000 NA
ATOM     29  N   UNL     1      -0.712  11.195  22.535  0.00  0.00    +0.000 N 
ATOM     30  C   UNL     1      -0.495   9.893  23.127  0.00  0.00    +0.000 C 
ENDBRANCH  23  25
ENDBRANCH   3  20
TORSDOF 3
ENDMDL
MODEL 2
REMARK VINA RESULT:      -8.0      3.315      8.797
REMARK  Name = 
REMARK  6 active torsions:
REMARK  status: ('A' for Active; 'I' for Inactive)
REMARK    1  A    between atoms: C_1  and  N_2
REMARK    2  A    between atoms: C_6  and  C_7
REMARK    3  A    between atoms: C_6  and  C_8
REMARK    4  A    between atoms: C_10  and  C_11
REMARK    5  A    between atoms: C_14  and  C_15
REMARK    6  A    between atoms: N_19  and  C_20
REMARK                            x       y       z     vdW  Elec       q    Type
REMARK                         _______ _______ _______ _____ _____    ______ ____
ROOT
ATOM      1  C   UNL     1       0.290   9.836  19.748  0.00  0.00    +0.000 A 
ATOM      2  S   UNL     1       1.403   9.340  18.496  0.00  0.00    +0.000 S 
ATOM      3  C   UNL     1       1.989   8.021  19.396  0.00  0.00    +0.000 A 
ATOM      4  C   UNL     1       1.417   7.991  20.649  0.00  0.00    +0.000 A 
ATOM      5  C   UNL     1       0.484   9.043  20.869  0.00  0.00    +0.000 A 
ATOM      6 CL   UNL     1      -0.255   9.187  22.408  0.00  0.00    +0.000 Cl
ENDROOT
BRANCH   1  12
ATOM      7  C   UNL     1       0.904  14.541  21.654  0.00  0.00    +0.000 C 
ATOM      8  N   UNL     1       0.449  13.307  20.986  0.00  0.00    +0.000 N 
ATOM      9  C   UNL     1      -0.413  12.369  21.546  0.00  0.00    +0.000 C 
ATOM     10  N   UNL     1      -0.552  12.207  22.812  0.00  0.00    +0.000 NA
ATOM     11  N   UNL     1      -1.170  11.645  20.693  0.00  0.00    +0.000 N 
ATOM     12  C   UNL     1      -0.641  11.036  19.473  0.00  0.00    +0.000 C 
ATOM     13  C   UNL     1      -1.881  10.498  18.706  0.00  0.00    +0.000 C 
ATOM     14  C   UNL     1      -0.069  12.154  18.613  0.00  0.00    +0.000 C 
ATOM     15  S   UNL     1       1.167  13.062  19.484  0.00  0.00    +0.000 S 
ATOM     16  O   UNL     1       1.284  14.348  18.824  0.00  0.00    +0.000 OA
ATOM     17  O   UNL     1       2.341  12.239  19.679  0.00  0.00    +0.000 OA
ATOM     18  H   UNL     1       0.129  12.783  23.305  0.00  0.00    +0.000 HD
ATOM     19  H   UNL     1      -1.721  10.989  21.243  0.00  0.00    +0.000 HD
ENDBRANCH   1  12
BRANCH   3  20
ATOM     20  C   UNL     1       2.960   7.092  18.897  0.00  0.00    +0.000 A 
ATOM     21  N   UNL     1       3.283   5.989  19.547  0.00  0.00    +0.000 NA
ATOM     22  N   UNL     1       4.245   5.351  18.807  0.00  0.00    +0.000 NA
ATOM     23  C   UNL     1       4.465   6.090  17.741  0.00  0.00    +0.000 A 
ATOM     24  O   UNL     1       3.679   7.221  17.731  0.00  0.00    +0.000 OA
BRANCH  23  25
ATOM     25  C   UNL     1       5.420   5.768  16.731  0.00  0.00    +0.000 A 
ATOM     26  C   UNL     1       5.274   5.000  15.594  0.00  0.00    +0.000 A 
ATOM     27  C   UNL     1       6.527   5.045  14.957  0.00  0.00    +0.000 A 
ATOM     28  N   UNL     1       7.415   5.777  15.635  0.00  0.00    +0.000 NA
ATOM     29  N   UNL     1       6.727   6.199  16.718  0.00  0.00    +0.000 N 
ATOM     30  C   UNL     1       7.406   7.031  17.687  0.00  0.00    +0.000 C 
ENDBRANCH  23  25
ENDBRANCH   3  20
TORSDOF 3
ENDMDL
MODEL 3
REMARK VINA RESULT:      -8.0      0.726      1.090
REMARK  Name = 
REMARK  6 active torsions:
REMARK  status: ('A' for Active; 'I' for Inactive)
REMARK    1  A    between atoms: C_1  and  N_2
REMARK    2  A    between atoms: C_6  and  C_7
REMARK    3  A    between atoms: C_6  and  C_8
REMARK    4  A    between atoms: C_10  and  C_11
REMARK    5  A    between atoms: C_14  and  C_15
REMARK    6  A    between atoms: N_19  and  C_20
REMARK                            x       y       z     vdW  Elec       q    Type
REMARK                         _______ _______ _______ _____ _____    ______ ____
ROOT
ATOM      1  C   UNL     1       3.577   6.212  18.517  0.00  0.00    +0.000 A 
ATOM      2  S   UNL     1       2.521   6.906  19.722  0.00  0.00    +0.000 S 
ATOM      3  C   UNL     1       2.167   8.273  18.775  0.00  0.00    +0.000 A 
ATOM      4  C   UNL     1       2.885   8.254  17.600  0.00  0.00    +0.000 A 
ATOM      5  C   UNL     1       3.719   7.107  17.468  0.00  0.00    +0.000 A 
ATOM      6 CL   UNL     1       4.736   6.977  16.095  0.00  0.00    +0.000 Cl
ENDROOT
BRANCH   1  12
ATOM      7  C   UNL     1       0.970   1.967  19.671  0.00  0.00    +0.000 C 
ATOM      8  N   UNL     1       1.982   3.003  19.395  0.00  0.00    +0.000 N 
ATOM      9  C   UNL     1       2.578   3.812  20.359  0.00  0.00    +0.000 C 
ATOM     10  N   UNL     1       2.028   4.087  21.485  0.00  0.00    +0.000 NA
ATOM     11  N   UNL     1       3.820   4.272  20.090  0.00  0.00    +0.000 N 
ATOM     12  C   UNL     1       4.205   4.829  18.794  0.00  0.00    +0.000 C 
ATOM     13  C   UNL     1       5.745   5.023  18.867  0.00  0.00    +0.000 C 
ATOM     14  C   UNL     1       3.967   3.754  17.744  0.00  0.00    +0.000 C 
ATOM     15  S   UNL     1       2.289   3.212  17.753  0.00  0.00    +0.000 S 
ATOM     16  O   UNL     1       2.268   1.906  17.121  0.00  0.00    +0.000 OA
ATOM     17  O   UNL     1       1.424   4.265  17.268  0.00  0.00    +0.000 OA
ATOM     18  H   UNL     1       1.080   3.716  21.501  0.00  0.00    +0.000 HD
ATOM     19  H   UNL     1       4.107   4.866  20.866  0.00  0.00    +0.000 HD
ENDBRANCH   1  12
BRANCH   3  20
ATOM     20  C   UNL     1       1.250   9.300  19.178  0.00  0.00    +0.000 A 
ATOM     21  N   UNL     1       0.404   9.863  18.336  0.00  0.00    +0.000 NA
ATOM     22  N   UNL     1      -0.298  10.807  19.041  0.00  0.00    +0.000 NA
ATOM     23  C   UNL     1       0.148  10.776  20.279  0.00  0.00    +0.000 A 
ATOM     24  O   UNL     1       1.141   9.836  20.441  0.00  0.00    +0.000 OA
BRANCH  23  25
ATOM     25  C   UNL     1      -0.325  11.631  21.318  0.00  0.00    +0.000 A 
ATOM     26  C   UNL     1      -1.333  11.424  22.238  0.00  0.00    +0.000 A 
ATOM     27  C   UNL     1      -1.347  12.583  23.033  0.00  0.00    +0.000 A 
ATOM     28  N   UNL     1      -0.427  13.473  22.652  0.00  0.00    +0.000 NA
ATOM     29  N   UNL     1       0.177  12.881  21.598  0.00  0.00    +0.000 N 
ATOM     30  C   UNL     1       1.245  13.590  20.927  0.00  0.00    +0.000 C 
ENDBRANCH  23  25
ENDBRANCH   3  20
TORSDOF 3
ENDMDL
MODEL 4
REMARK VINA RESULT:      -7.8      0.790      1.163
REMARK  Name = 
REMARK  6 active torsions:
REMARK  status: ('A' for Active; 'I' for Inactive)
REMARK    1  A    between atoms: C_1  and  N_2
REMARK    2  A    between atoms: C_6  and  C_7
REMARK    3  A    between atoms: C_6  and  C_8
REMARK    4  A    between atoms: C_10  and  C_11
REMARK    5  A    between atoms: C_14  and  C_15
REMARK    6  A    between atoms: N_19  and  C_20
REMARK                            x       y       z     vdW  Elec       q    Type
REMARK                         _______ _______ _______ _____ _____    ______ ____
ROOT
ATOM      1  C   UNL     1       3.569   6.233  18.546  0.00  0.00    +0.000 A 
ATOM      2  S   UNL     1       2.473   6.916  19.722  0.00  0.00    +0.000 S 
ATOM      3  C   UNL     1       2.123   8.274  18.761  0.00  0.00    +0.000 A 
ATOM      4  C   UNL     1       2.871   8.261  17.604  0.00  0.00    +0.000 A 
ATOM      5  C   UNL     1       3.725   7.127  17.497  0.00  0.00    +0.000 A 
ATOM      6 CL   UNL     1       4.777   7.007  16.151  0.00  0.00    +0.000 Cl
ENDROOT
BRANCH   1  12
ATOM      7  C   UNL     1       0.995   1.944  19.606  0.00  0.00    +0.000 C 
ATOM      8  N   UNL     1       1.999   2.997  19.366  0.00  0.00    +0.000 N 
ATOM      9  C   UNL     1       2.547   3.815  20.350  0.00  0.00    +0.000 C 
ATOM     10  N   UNL     1       1.953   4.079  21.457  0.00  0.00    +0.000 NA
ATOM     11  N   UNL     1       3.789   4.296  20.126  0.00  0.00    +0.000 N 
ATOM     12  C   UNL     1       4.210   4.861  18.845  0.00  0.00    +0.000 C 
ATOM     13  C   UNL     1       5.744   5.081  18.972  0.00  0.00    +0.000 C 
ATOM     14  C   UNL     1       4.028   3.784  17.786  0.00  0.00    +0.000 C 
ATOM     15  S   UNL     1       2.360   3.212  17.736  0.00  0.00    +0.000 S 
ATOM     16  O   UNL     1       2.383   1.907  17.103  0.00  0.00    +0.000 OA
ATOM     17  O   UNL     1       1.495   4.252  17.221  0.00  0.00    +0.000 OA
ATOM     18  H   UNL     1       1.011   3.692  21.439  0.00  0.00    +0.000 HD
ATOM     19  H   UNL     1       4.039   4.893  20.912  0.00  0.00    +0.000 HD
ENDBRANCH   1  12
BRANCH   3  20
ATOM     20  C   UNL     1       1.182   9.289  19.137  0.00  0.00    +0.000 A 
ATOM     21  N   UNL     1       0.707  10.168  18.274  0.00  0.00    +0.000 NA
ATOM     22  N   UNL     1      -0.140  10.994  18.966  0.00  0.00    +0.000 NA
ATOM     23  C   UNL     1      -0.147  10.583  20.216  0.00  0.00    +0.000 A 
ATOM     24  O   UNL     1       0.677   9.495  20.400  0.00  0.00    +0.000 OA
BRANCH  23  25
ATOM     25  C   UNL     1      -0.900  11.205  21.256  0.00  0.00    +0.000 A 
ATOM     26  C   UNL     1      -0.748  11.119  22.625  0.00  0.00    +0.000 A 
ATOM     27  C   UNL     1      -1.743  11.957  23.158  0.00  0.00    +0.000 A 
ATOM     28  N   UNL     1      -2.485  12.531  22.209  0.00  0.00    +0.000 NA
ATOM     29  N   UNL     1      -1.965  12.053  21.058  0.00  0.00    +0.000 N 
ATOM     30  C   UNL     1      -2.550  12.480  19.805  0.00  0.00    +0.000 C 
ENDBRANCH  23  25
ENDBRANCH   3  20
TORSDOF 3
ENDMDL
MODEL 5
REMARK VINA RESULT:      -7.8      3.038      4.081
REMARK  Name = 
REMARK  6 active torsions:
REMARK  status: ('A' for Active; 'I' for Inactive)
REMARK    1  A    between atoms: C_1  and  N_2
REMARK    2  A    between atoms: C_6  and  C_7
REMARK    3  A    between atoms: C_6  and  C_8
REMARK    4  A    between atoms: C_10  and  C_11
REMARK    5  A    between atoms: C_14  and  C_15
REMARK    6  A    between atoms: N_19  and  C_20
REMARK                            x       y       z     vdW  Elec       q    Type
REMARK                         _______ _______ _______ _____ _____    ______ ____
ROOT
ATOM      1  C   UNL     1       3.072   5.196  18.860  0.00  0.00    +0.000 A 
ATOM      2  S   UNL     1       2.698   6.874  18.554  0.00  0.00    +0.000 S 
ATOM      3  C   UNL     1       1.962   7.093  20.072  0.00  0.00    +0.000 A 
ATOM      4  C   UNL     1       1.927   5.909  20.774  0.00  0.00    +0.000 A 
ATOM      5  C   UNL     1       2.518   4.820  20.073  0.00  0.00    +0.000 A 
ATOM      6 CL   UNL     1       2.482   3.261  20.784  0.00  0.00    +0.000 Cl
ENDROOT
BRANCH   1  12
ATOM      7  C   UNL     1       7.546   6.626  16.837  0.00  0.00    +0.000 C 
ATOM      8  N   UNL     1       6.275   5.973  17.201  0.00  0.00    +0.000 N 
ATOM      9  C   UNL     1       5.052   6.207  16.578  0.00  0.00    +0.000 C 
ATOM     10  N   UNL     1       4.774   7.297  15.959  0.00  0.00    +0.000 NA
ATOM     11  N   UNL     1       4.152   5.200  16.594  0.00  0.00    +0.000 N 
ATOM     12  C   UNL     1       3.857   4.409  17.788  0.00  0.00    +0.000 C 
ATOM     13  C   UNL     1       2.946   3.247  17.302  0.00  0.00    +0.000 C 
ATOM     14  C   UNL     1       5.157   3.760  18.242  0.00  0.00    +0.000 C 
ATOM     15  S   UNL     1       6.403   4.970  18.546  0.00  0.00    +0.000 S 
ATOM     16  O   UNL     1       7.680   4.283  18.476  0.00  0.00    +0.000 OA
ATOM     17  O   UNL     1       6.063   5.748  19.717  0.00  0.00    +0.000 OA
ATOM     18  H   UNL     1       5.530   7.967  16.093  0.00  0.00    +0.000 HD
ATOM     19  H   UNL     1       3.307   5.528  16.131  0.00  0.00    +0.000 HD
ENDBRANCH   1  12
BRANCH   3  20
ATOM     20  C   UNL     1       1.443   8.351  20.525  0.00  0.00    +0.000 A 
ATOM     21  N   UNL     1       1.461   8.706  21.797  0.00  0.00    +0.000 NA
ATOM     22  N   UNL     1       0.874   9.943  21.878  0.00  0.00    +0.000 NA
ATOM     23  C   UNL     1       0.527  10.287  20.656  0.00  0.00    +0.000 A 
ATOM     24  O   UNL     1       0.859   9.316  19.738  0.00  0.00    +0.000 OA
BRANCH  23  25
ATOM     25  C   UNL     1      -0.136  11.508  20.330  0.00  0.00    +0.000 A 
ATOM     26  C   UNL     1      -1.451  11.876  20.529  0.00  0.00    +0.000 A 
ATOM     27  C   UNL     1      -1.541  13.192  20.042  0.00  0.00    +0.000 A 
ATOM     28  N   UNL     1      -0.378  13.635  19.558  0.00  0.00    +0.000 NA
ATOM     29  N   UNL     1       0.463  12.592  19.731  0.00  0.00    +0.000 N 
ATOM     30  C   UNL     1       1.837  12.734  19.302  0.00  0.00    +0.000 C 
ENDBRANCH  23  25
ENDBRANCH   3  20
TORSDOF 3
ENDMDL
MODEL 6
REMARK VINA RESULT:      -7.6      1.926      2.414
REMARK  Name = 
REMARK  6 active torsions:
REMARK  status: ('A' for Active; 'I' for Inactive)
REMARK    1  A    between atoms: C_1  and  N_2
REMARK    2  A    between atoms: C_6  and  C_7
REMARK    3  A    between atoms: C_6  and  C_8
REMARK    4  A    between atoms: C_10  and  C_11
REMARK    5  A    between atoms: C_14  and  C_15
REMARK    6  A    between atoms: N_19  and  C_20
REMARK                            x       y       z     vdW  Elec       q    Type
REMARK                         _______ _______ _______ _____ _____    ______ ____
ROOT
ATOM      1  C   UNL     1       3.685   6.262  18.381  0.00  0.00    +0.000 A 
ATOM      2  S   UNL     1       2.556   7.172  19.353  0.00  0.00    +0.000 S 
ATOM      3  C   UNL     1       2.346   8.374  18.169  0.00  0.00    +0.000 A 
ATOM      4  C   UNL     1       3.166   8.144  17.087  0.00  0.00    +0.000 A 
ATOM      5  C   UNL     1       3.959   6.969  17.220  0.00  0.00    +0.000 A 
ATOM      6 CL   UNL     1       5.089   6.589  15.989  0.00  0.00    +0.000 Cl
ENDROOT
BRANCH   1  12
ATOM      7  C   UNL     1       0.835   2.180  19.549  0.00  0.00    +0.000 C 
ATOM      8  N   UNL     1       1.900   3.179  19.338  0.00  0.00    +0.000 N 
ATOM      9  C   UNL     1       2.325   4.103  20.288  0.00  0.00    +0.000 C 
ATOM     10  N   UNL     1       1.584   4.512  21.253  0.00  0.00    +0.000 NA
ATOM     11  N   UNL     1       3.603   4.532  20.197  0.00  0.00    +0.000 N 
ATOM     12  C   UNL     1       4.227   4.927  18.935  0.00  0.00    +0.000 C 
ATOM     13  C   UNL     1       5.732   5.135  19.264  0.00  0.00    +0.000 C 
ATOM     14  C   UNL     1       4.165   3.730  17.998  0.00  0.00    +0.000 C 
ATOM     15  S   UNL     1       2.504   3.184  17.767  0.00  0.00    +0.000 S 
ATOM     16  O   UNL     1       2.574   1.811  17.306  0.00  0.00    +0.000 OA
ATOM     17  O   UNL     1       1.761   4.166  17.007  0.00  0.00    +0.000 OA
ATOM     18  H   UNL     1       0.642   4.142  21.140  0.00  0.00    +0.000 HD
ATOM     19  H   UNL     1       3.755   5.218  20.934  0.00  0.00    +0.000 HD
ENDBRANCH   1  12
BRANCH   3  20
ATOM     20  C   UNL     1       1.441   9.478  18.313  0.00  0.00    +0.000 A 
ATOM     21  N   UNL     1       1.860  10.715  18.509  0.00  0.00    +0.000 NA
ATOM     22  N   UNL     1       0.745  11.504  18.624  0.00  0.00    +0.000 NA
ATOM     23  C   UNL     1      -0.301  10.717  18.491  0.00  0.00    +0.000 A 
ATOM     24  O   UNL     1       0.067   9.406  18.291  0.00  0.00    +0.000 OA
BRANCH  23  25
ATOM     25  C   UNL     1      -1.653  11.168  18.571  0.00  0.00    +0.000 A 
ATOM     26  C   UNL     1      -2.279  11.904  19.556  0.00  0.00    +0.000 A 
ATOM     27  C   UNL     1      -3.597  12.080  19.101  0.00  0.00    +0.000 A 
ATOM     28  N   UNL     1      -3.809  11.496  17.919  0.00  0.00    +0.000 NA
ATOM     29  N   UNL     1      -2.618  10.935  17.618  0.00  0.00    +0.000 N 
ATOM     30  C   UNL     1      -2.493  10.202  16.376  0.00  0.00    +0.000 C 
ENDBRANCH  23  25
ENDBRANCH   3  20
TORSDOF 3
ENDMDL
MODEL 7
REMARK VINA RESULT:      -7.6      7.035     10.698
REMARK  Name = 
REMARK  6 active torsions:
REMARK  status: ('A' for Active; 'I' for Inactive)
REMARK    1  A    between atoms: C_1  and  N_2
REMARK    2  A    between atoms: C_6  and  C_7
REMARK    3  A    between atoms: C_6  and  C_8
REMARK    4  A    between atoms: C_10  and  C_11
REMARK    5  A    between atoms: C_14  and  C_15
REMARK    6  A    between atoms: N_19  and  C_20
REMARK                            x       y       z     vdW  Elec       q    Type
REMARK                         _______ _______ _______ _____ _____    ______ ____
ROOT
ATOM      1  C   UNL     1       9.343  12.451  18.539  0.00  0.00    +0.000 A 
ATOM      2  S   UNL     1       8.392  11.359  17.563  0.00  0.00    +0.000 S 
ATOM      3  C   UNL     1       8.811   9.998  18.492  0.00  0.00    +0.000 A 
ATOM      4  C   UNL     1       9.711  10.337  19.478  0.00  0.00    +0.000 A 
ATOM      5  C   UNL     1      10.049  11.720  19.482  0.00  0.00    +0.000 A 
ATOM      6 CL   UNL     1      11.217  12.284  20.601  0.00  0.00    +0.000 Cl
ENDROOT
BRANCH   1  12
ATOM      7  C   UNL     1       5.700  15.729  20.000  0.00  0.00    +0.000 C 
ATOM      8  N   UNL     1       6.865  15.040  19.413  0.00  0.00    +0.000 N 
ATOM      9  C   UNL     1       6.886  14.443  18.155  0.00  0.00    +0.000 C 
ATOM     10  N   UNL     1       5.833  14.015  17.561  0.00  0.00    +0.000 NA
ATOM     11  N   UNL     1       8.082  14.373  17.531  0.00  0.00    +0.000 N 
ATOM     12  C   UNL     1       9.313  13.957  18.202  0.00  0.00    +0.000 C 
ATOM     13  C   UNL     1      10.454  14.229  17.182  0.00  0.00    +0.000 C 
ATOM     14  C   UNL     1       9.550  14.915  19.361  0.00  0.00    +0.000 C 
ATOM     15  S   UNL     1       8.174  14.935  20.464  0.00  0.00    +0.000 S 
ATOM     16  O   UNL     1       8.254  16.177  21.210  0.00  0.00    +0.000 OA
ATOM     17  O   UNL     1       8.083  13.674  21.166  0.00  0.00    +0.000 OA
ATOM     18  H   UNL     1       5.034  14.088  18.188  0.00  0.00    +0.000 HD
ATOM     19  H   UNL     1       7.944  13.890  16.645  0.00  0.00    +0.000 HD
ENDBRANCH   1  12
BRANCH   3  20
ATOM     20  C   UNL     1       8.293   8.683  18.248  0.00  0.00    +0.000 A 
ATOM     21  N   UNL     1       8.542   7.665  19.051  0.00  0.00    +0.000 NA
ATOM     22  N   UNL     1       7.919   6.568  18.515  0.00  0.00    +0.000 NA
ATOM     23  C   UNL     1       7.318   6.964  17.414  0.00  0.00    +0.000 A 
ATOM     24  O   UNL     1       7.514   8.306  17.179  0.00  0.00    +0.000 OA
BRANCH  23  25
ATOM     25  C   UNL     1       6.573   6.099  16.557  0.00  0.00    +0.000 A 
ATOM     26  C   UNL     1       7.016   5.250  15.563  0.00  0.00    +0.000 A 
ATOM     27  C   UNL     1       5.857   4.628  15.068  0.00  0.00    +0.000 A 
ATOM     28  N   UNL     1       4.751   5.049  15.687  0.00  0.00    +0.000 NA
ATOM     29  N   UNL     1       5.205   5.953  16.582  0.00  0.00    +0.000 N 
ATOM     30  C   UNL     1       4.248   6.621  17.436  0.00  0.00    +0.000 C 
ENDBRANCH  23  25
ENDBRANCH   3  20
TORSDOF 3
ENDMDL
MODEL 8
REMARK VINA RESULT:      -7.6      3.570      9.045
REMARK  Name = 
REMARK  6 active torsions:
REMARK  status: ('A' for Active; 'I' for Inactive)
REMARK    1  A    between atoms: C_1  and  N_2
REMARK    2  A    between atoms: C_6  and  C_7
REMARK    3  A    between atoms: C_6  and  C_8
REMARK    4  A    between atoms: C_10  and  C_11
REMARK    5  A    between atoms: C_14  and  C_15
REMARK    6  A    between atoms: N_19  and  C_20
REMARK                            x       y       z     vdW  Elec       q    Type
REMARK                         _______ _______ _______ _____ _____    ______ ____
ROOT
ATOM      1  C   UNL     1      -0.274  12.111  19.403  0.00  0.00    +0.000 A 
ATOM      2  S   UNL     1       1.015  11.158  20.097  0.00  0.00    +0.000 S 
ATOM      3  C   UNL     1       0.728   9.833  19.072  0.00  0.00    +0.000 A 
ATOM      4  C   UNL     1      -0.367  10.064  18.268  0.00  0.00    +0.000 A 
ATOM      5  C   UNL     1      -0.964  11.338  18.482  0.00  0.00    +0.000 A 
ATOM      6 CL   UNL     1      -2.383  11.744  17.612  0.00  0.00    +0.000 Cl
ENDROOT
BRANCH   1  12
ATOM      7  C   UNL     1      -3.593  13.482  23.043  0.00  0.00    +0.000 C 
ATOM      8  N   UNL     1      -2.586  13.408  21.968  0.00  0.00    +0.000 N 
ATOM      9  C   UNL     1      -2.863  13.522  20.608  0.00  0.00    +0.000 C 
ATOM     10  N   UNL     1      -4.008  13.249  20.097  0.00  0.00    +0.000 NA
ATOM     11  N   UNL     1      -1.875  13.998  19.819  0.00  0.00    +0.000 N 
ATOM     12  C   UNL     1      -0.486  13.551  19.918  0.00  0.00    +0.000 C 
ATOM     13  C   UNL     1       0.323  14.501  18.990  0.00  0.00    +0.000 C 
ATOM     14  C   UNL     1      -0.009  13.841  21.333  0.00  0.00    +0.000 C 
ATOM     15  S   UNL     1      -1.040  13.054  22.528  0.00  0.00    +0.000 S 
ATOM     16  O   UNL     1      -0.842  13.758  23.781  0.00  0.00    +0.000 OA
ATOM     17  O   UNL     1      -0.861  11.619  22.468  0.00  0.00    +0.000 OA
ATOM     18  H   UNL     1      -4.614  12.850  20.812  0.00  0.00    +0.000 HD
ATOM     19  H   UNL     1      -2.213  13.996  18.859  0.00  0.00    +0.000 HD
ENDBRANCH   1  12
BRANCH   3  20
ATOM     20  C   UNL     1       1.525   8.640  19.077  0.00  0.00    +0.000 A 
ATOM     21  N   UNL     1       1.764   7.954  20.180  0.00  0.00    +0.000 NA
ATOM     22  N   UNL     1       2.566   6.899  19.832  0.00  0.00    +0.000 NA
ATOM     23  C   UNL     1       2.780   6.986  18.537  0.00  0.00    +0.000 A 
ATOM     24  O   UNL     1       2.145   8.077  17.986  0.00  0.00    +0.000 OA
BRANCH  23  25
ATOM     25  C   UNL     1       3.592   6.073  17.800  0.00  0.00    +0.000 A 
ATOM     26  C   UNL     1       4.861   6.241  17.285  0.00  0.00    +0.000 A 
ATOM     27  C   UNL     1       5.177   5.012  16.680  0.00  0.00    +0.000 A 
ATOM     28  N   UNL     1       4.187   4.123  16.787  0.00  0.00    +0.000 NA
ATOM     29  N   UNL     1       3.225   4.790  17.461  0.00  0.00    +0.000 N 
ATOM     30  C   UNL     1       1.983   4.107  17.751  0.00  0.00    +0.000 C 
ENDBRANCH  23  25
ENDBRANCH   3  20
TORSDOF 3
ENDMDL
MODEL 9
REMARK VINA RESULT:      -7.6      3.626      9.067
REMARK  Name = 
REMARK  6 active torsions:
REMARK  status: ('A' for Active; 'I' for Inactive)
REMARK    1  A    between atoms: C_1  and  N_2
REMARK    2  A    between atoms: C_6  and  C_7
REMARK    3  A    between atoms: C_6  and  C_8
REMARK    4  A    between atoms: C_10  and  C_11
REMARK    5  A    between atoms: C_14  and  C_15
REMARK    6  A    between atoms: N_19  and  C_20
REMARK                            x       y       z     vdW  Elec       q    Type
REMARK                         _______ _______ _______ _____ _____    ______ ____
ROOT
ATOM      1  C   UNL     1      -0.547  11.685  20.135  0.00  0.00    +0.000 A 
ATOM      2  S   UNL     1       0.874  10.724  20.464  0.00  0.00    +0.000 S 
ATOM      3  C   UNL     1       0.727   9.828  19.026  0.00  0.00    +0.000 A 
ATOM      4  C   UNL     1      -0.412  10.186  18.340  0.00  0.00    +0.000 A 
ATOM      5  C   UNL     1      -1.161  11.210  18.986  0.00  0.00    +0.000 A 
ATOM      6 CL   UNL     1      -2.647  11.711  18.295  0.00  0.00    +0.000 Cl
ENDROOT
BRANCH   1  12
ATOM      7  C   UNL     1       1.567  16.339  20.279  0.00  0.00    +0.000 C 
ATOM      8  N   UNL     1       0.801  15.099  20.506  0.00  0.00    +0.000 N 
ATOM      9  C   UNL     1       1.196  14.061  21.346  0.00  0.00    +0.000 C 
ATOM     10  N   UNL     1       2.419  13.832  21.656  0.00  0.00    +0.000 NA
ATOM     11  N   UNL     1       0.216  13.308  21.891  0.00  0.00    +0.000 N 
ATOM     12  C   UNL     1      -0.926  12.804  21.128  0.00  0.00    +0.000 C 
ATOM     13  C   UNL     1      -1.889  12.187  22.181  0.00  0.00    +0.000 C 
ATOM     14  C   UNL     1      -1.656  14.007  20.547  0.00  0.00    +0.000 C 
ATOM     15  S   UNL     1      -0.580  14.986  19.550  0.00  0.00    +0.000 S 
ATOM     16  O   UNL     1      -1.176  16.306  19.462  0.00  0.00    +0.000 OA
ATOM     17  O   UNL     1      -0.231  14.268  18.344  0.00  0.00    +0.000 OA
ATOM     18  H   UNL     1       3.028  14.447  21.117  0.00  0.00    +0.000 HD
ATOM     19  H   UNL     1       0.656  12.580  22.451  0.00  0.00    +0.000 HD
ENDBRANCH   1  12
BRANCH   3  20
ATOM     20  C   UNL     1       1.670   8.828  18.618  0.00  0.00    +0.000 A 
ATOM     21  N   UNL     1       2.403   8.950  17.526  0.00  0.00    +0.000 NA
ATOM     22  N   UNL     1       3.170   7.818  17.426  0.00  0.00    +0.000 NA
ATOM     23  C   UNL     1       2.874   7.058  18.459  0.00  0.00    +0.000 A 
ATOM     24  O   UNL     1       1.921   7.639  19.265  0.00  0.00    +0.000 OA
BRANCH  23  25
ATOM     25  C   UNL     1       3.455   5.777  18.698  0.00  0.00    +0.000 A 
ATOM     26  C   UNL     1       4.677   5.455  19.251  0.00  0.00    +0.000 A 
ATOM     27  C   UNL     1       4.713   4.049  19.267  0.00  0.00    +0.000 A 
ATOM     28  N   UNL     1       3.606   3.507  18.757  0.00  0.00    +0.000 NA
ATOM     29  N   UNL     1       2.856   4.574  18.404  0.00  0.00    +0.000 N 
ATOM     30  C   UNL     1       1.562   4.341  17.801  0.00  0.00    +0.000 C 
ENDBRANCH  23  25
ENDBRANCH   3  20
TORSDOF 3
ENDMDL
