MODEL 1
REMARK VINA RESULT:      -7.7      0.000      0.000
REMARK  Name = 
REMARK  5 active torsions:
REMARK  status: ('A' for Active; 'I' for Inactive)
REMARK    1  A    between atoms: C_1  and  C_2
REMARK    2  A    between atoms: C_8  and  N_9
REMARK    3  A    between atoms: C_10  and  C_12
REMARK    4  A    between atoms: C_16  and  N_17
REMARK    5  A    between atoms: C_21  and  C_22
REMARK                            x       y       z     vdW  Elec       q    Type
REMARK                         _______ _______ _______ _____ _____    ______ ____
ROOT
ATOM      1  C   UNL     1       0.329   3.154  20.543  0.00  0.00    +0.000 C 
ATOM      2  C   UNL     1       1.744   2.965  21.104  0.00  0.00    +0.000 C 
ATOM      3  C   UNL     1       2.356   4.312  21.533  0.00  0.00    +0.000 C 
ATOM      4  C   UNL     1       2.527   5.281  20.356  0.00  0.00    +0.000 C 
ATOM      5  C   UNL     1       3.107   4.599  19.142  0.00  0.00    +0.000 A 
ATOM      6  C   UNL     1       3.201   3.223  19.074  0.00  0.00    +0.000 A 
ATOM      7  S   UNL     1       4.095   2.718  17.735  0.00  0.00    +0.000 S 
ATOM      8  C   UNL     1       4.145   4.303  17.096  0.00  0.00    +0.000 A 
ATOM      9  C   UNL     1       3.586   5.265  17.931  0.00  0.00    +0.000 A 
ATOM     10  C   UNL     1       2.678   2.256  20.097  0.00  0.00    +0.000 C 
ENDROOT
BRANCH   9  11
ATOM     11  C   UNL     1       3.555   6.731  17.792  0.00  0.00    +0.000 C 
ATOM     12  N   UNL     1       4.685   7.396  17.457  0.00  0.00    +0.000 N 
ATOM     13  O   UNL     1       2.532   7.404  17.955  0.00  0.00    +0.000 OA
ATOM     14  H   UNL     1       5.302   6.923  16.802  0.00  0.00    +0.000 HD
ATOM     15  H   UNL     1       4.518   8.368  17.229  0.00  0.00    +0.000 HD
ENDBRANCH   9  11
BRANCH   8  16
ATOM     16  N   UNL     1       4.804   4.283  15.884  0.00  0.00    +0.000 N 
ATOM     17  C   UNL     1       6.105   4.699  15.725  0.00  0.00    +0.000 C 
ATOM     18  O   UNL     1       6.844   5.106  16.615  0.00  0.00    +0.000 OA
ATOM     19  H   UNL     1       4.196   4.288  15.077  0.00  0.00    +0.000 HD
BRANCH  17  20
ATOM     20  C   UNL     1       6.655   4.500  14.359  0.00  0.00    +0.000 A 
ATOM     21  C   UNL     1       7.563   5.387  13.765  0.00  0.00    +0.000 A 
ATOM     22  C   UNL     1       7.835   5.285  12.398  0.00  0.00    +0.000 A 
ATOM     23  C   UNL     1       7.205   4.308  11.627  0.00  0.00    +0.000 A 
ATOM     24  C   UNL     1       6.346   3.387  12.245  0.00  0.00    +0.000 A 
ATOM     25  C   UNL     1       6.094   3.457  13.615  0.00  0.00    +0.000 A 
BRANCH  24  26
ATOM     26  N   UNL     1       5.636   2.391  11.435  0.00  0.00    +0.000 N 
ATOM     27  O   UNL     1       4.465   2.639  11.116  0.00  0.00    +0.000 OA
ATOM     28  O   UNL     1       6.245   1.356  11.130  0.00  0.00    +0.000 OA
ENDBRANCH  24  26
ENDBRANCH  17  20
ENDBRANCH   8  16
TORSDOF 4
ENDMDL
MODEL 2
REMARK VINA RESULT:      -7.3      3.960      8.659
REMARK  Name = 
REMARK  5 active torsions:
REMARK  status: ('A' for Active; 'I' for Inactive)
REMARK    1  A    between atoms: C_1  and  C_2
REMARK    2  A    between atoms: C_8  and  N_9
REMARK    3  A    between atoms: C_10  and  C_12
REMARK    4  A    between atoms: C_16  and  N_17
REMARK    5  A    between atoms: C_21  and  C_22
REMARK                            x       y       z     vdW  Elec       q    Type
REMARK                         _______ _______ _______ _____ _____    ______ ____
ROOT
ATOM      1  C   UNL     1       5.468   4.427  14.038  0.00  0.00    +0.000 C 
ATOM      2  C   UNL     1       6.287   4.434  15.335  0.00  0.00    +0.000 C 
ATOM      3  C   UNL     1       5.840   3.302  16.280  0.00  0.00    +0.000 C 
ATOM      4  C   UNL     1       4.384   3.460  16.736  0.00  0.00    +0.000 C 
ATOM      5  C   UNL     1       4.067   4.879  17.136  0.00  0.00    +0.000 A 
ATOM      6  C   UNL     1       4.939   5.911  16.854  0.00  0.00    +0.000 A 
ATOM      7  S   UNL     1       4.478   7.349  17.608  0.00  0.00    +0.000 S 
ATOM      8  C   UNL     1       2.984   6.682  18.102  0.00  0.00    +0.000 A 
ATOM      9  C   UNL     1       2.847   5.328  17.807  0.00  0.00    +0.000 A 
ATOM     10  C   UNL     1       6.211   5.795  16.064  0.00  0.00    +0.000 C 
ENDROOT
BRANCH   9  11
ATOM     11  C   UNL     1       1.778   4.386  18.179  0.00  0.00    +0.000 C 
ATOM     12  N   UNL     1       1.662   3.979  19.464  0.00  0.00    +0.000 N 
ATOM     13  O   UNL     1       0.955   3.944  17.372  0.00  0.00    +0.000 OA
ATOM     14  H   UNL     1       1.877   4.675  20.173  0.00  0.00    +0.000 HD
ATOM     15  H   UNL     1       0.806   3.468  19.641  0.00  0.00    +0.000 HD
ENDBRANCH   9  11
BRANCH   8  16
ATOM     16  N   UNL     1       2.250   7.647  18.759  0.00  0.00    +0.000 N 
ATOM     17  C   UNL     1       1.849   7.529  20.069  0.00  0.00    +0.000 C 
ATOM     18  O   UNL     1       2.103   6.593  20.818  0.00  0.00    +0.000 OA
ATOM     19  H   UNL     1       1.730   8.263  18.151  0.00  0.00    +0.000 HD
BRANCH  17  20
ATOM     20  C   UNL     1       1.156   8.726  20.613  0.00  0.00    +0.000 A 
ATOM     21  C   UNL     1       0.885   8.897  21.977  0.00  0.00    +0.000 A 
ATOM     22  C   UNL     1       0.009   9.906  22.388  0.00  0.00    +0.000 A 
ATOM     23  C   UNL     1      -0.596  10.737  21.445  0.00  0.00    +0.000 A 
ATOM     24  C   UNL     1      -0.269  10.597  20.088  0.00  0.00    +0.000 A 
ATOM     25  C   UNL     1       0.631   9.616  19.670  0.00  0.00    +0.000 A 
BRANCH  24  26
ATOM     26  N   UNL     1      -0.940  11.429  19.082  0.00  0.00    +0.000 N 
ATOM     27  O   UNL     1      -0.518  12.581  18.915  0.00  0.00    +0.000 OA
ATOM     28  O   UNL     1      -1.898  10.933  18.471  0.00  0.00    +0.000 OA
ENDBRANCH  24  26
ENDBRANCH  17  20
ENDBRANCH   8  16
TORSDOF 4
ENDMDL
MODEL 3
REMARK VINA RESULT:      -7.3      4.027      8.829
REMARK  Name = 
REMARK  5 active torsions:
REMARK  status: ('A' for Active; 'I' for Inactive)
REMARK    1  A    between atoms: C_1  and  C_2
REMARK    2  A    between atoms: C_8  and  N_9
REMARK    3  A    between atoms: C_10  and  C_12
REMARK    4  A    between atoms: C_16  and  N_17
REMARK    5  A    between atoms: C_21  and  C_22
REMARK                            x       y       z     vdW  Elec       q    Type
REMARK                         _______ _______ _______ _____ _____    ______ ____
ROOT
ATOM      1  C   UNL     1       5.810   4.728  14.160  0.00  0.00    +0.000 C 
ATOM      2  C   UNL     1       6.530   4.635  15.512  0.00  0.00    +0.000 C 
ATOM      3  C   UNL     1       6.015   3.439  16.335  0.00  0.00    +0.000 C 
ATOM      4  C   UNL     1       4.528   3.568  16.690  0.00  0.00    +0.000 C 
ATOM      5  C   UNL     1       4.179   4.954  17.169  0.00  0.00    +0.000 A 
ATOM      6  C   UNL     1       5.069   6.002  17.030  0.00  0.00    +0.000 A 
ATOM      7  S   UNL     1       4.550   7.382  17.851  0.00  0.00    +0.000 S 
ATOM      8  C   UNL     1       3.024   6.685  18.182  0.00  0.00    +0.000 A 
ATOM      9  C   UNL     1       2.912   5.358  17.778  0.00  0.00    +0.000 A 
ATOM     10  C   UNL     1       6.397   5.939  16.332  0.00  0.00    +0.000 C 
ENDROOT
BRANCH   9  11
ATOM     11  C   UNL     1       1.819   4.395  17.998  0.00  0.00    +0.000 C 
ATOM     12  N   UNL     1       1.684   3.802  19.206  0.00  0.00    +0.000 N 
ATOM     13  O   UNL     1       0.994   4.099  17.129  0.00  0.00    +0.000 OA
ATOM     14  H   UNL     1       1.907   4.378  20.014  0.00  0.00    +0.000 HD
ATOM     15  H   UNL     1       0.815   3.289  19.300  0.00  0.00    +0.000 HD
ENDBRANCH   9  11
BRANCH   8  16
ATOM     16  N   UNL     1       2.242   7.602  18.851  0.00  0.00    +0.000 N 
ATOM     17  C   UNL     1       1.833   8.793  18.298  0.00  0.00    +0.000 C 
ATOM     18  O   UNL     1       2.077   9.179  17.160  0.00  0.00    +0.000 OA
ATOM     19  H   UNL     1       2.278   7.528  19.858  0.00  0.00    +0.000 HD
BRANCH  17  20
ATOM     20  C   UNL     1       0.912   9.587  19.151  0.00  0.00    +0.000 A 
ATOM     21  C   UNL     1       0.218  10.712  18.685  0.00  0.00    +0.000 A 
ATOM     22  C   UNL     1      -0.418  11.560  19.596  0.00  0.00    +0.000 A 
ATOM     23  C   UNL     1      -0.363  11.290  20.963  0.00  0.00    +0.000 A 
ATOM     24  C   UNL     1       0.281  10.127  21.413  0.00  0.00    +0.000 A 
ATOM     25  C   UNL     1       0.890   9.256  20.510  0.00  0.00    +0.000 A 
BRANCH  24  26
ATOM     26  N   UNL     1       0.393   9.862  22.852  0.00  0.00    +0.000 N 
ATOM     27  O   UNL     1       1.462   9.394  23.268  0.00  0.00    +0.000 OA
ATOM     28  O   UNL     1      -0.592  10.109  23.562  0.00  0.00    +0.000 OA
ENDBRANCH  24  26
ENDBRANCH  17  20
ENDBRANCH   8  16
TORSDOF 4
ENDMDL
MODEL 4
REMARK VINA RESULT:      -7.0      4.208      8.540
REMARK  Name = 
REMARK  5 active torsions:
REMARK  status: ('A' for Active; 'I' for Inactive)
REMARK    1  A    between atoms: C_1  and  C_2
REMARK    2  A    between atoms: C_8  and  N_9
REMARK    3  A    between atoms: C_10  and  C_12
REMARK    4  A    between atoms: C_16  and  N_17
REMARK    5  A    between atoms: C_21  and  C_22
REMARK                            x       y       z     vdW  Elec       q    Type
REMARK                         _______ _______ _______ _____ _____    ______ ____
ROOT
ATOM      1  C   UNL     1       4.610   1.715  20.123  0.00  0.00    +0.000 C 
ATOM      2  C   UNL     1       3.339   1.717  19.264  0.00  0.00    +0.000 C 
ATOM      3  C   UNL     1       3.650   2.135  17.814  0.00  0.00    +0.000 C 
ATOM      4  C   UNL     1       4.190   3.568  17.719  0.00  0.00    +0.000 C 
ATOM      5  C   UNL     1       3.403   4.527  18.574  0.00  0.00    +0.000 A 
ATOM      6  C   UNL     1       2.492   4.069  19.506  0.00  0.00    +0.000 A 
ATOM      7  S   UNL     1       1.573   5.326  20.159  0.00  0.00    +0.000 S 
ATOM      8  C   UNL     1       2.547   6.511  19.405  0.00  0.00    +0.000 A 
ATOM      9  C   UNL     1       3.518   5.985  18.556  0.00  0.00    +0.000 A 
ATOM     10  C   UNL     1       2.240   2.630  19.854  0.00  0.00    +0.000 C 
ENDROOT
BRANCH   9  11
ATOM     11  C   UNL     1       4.449   6.675  17.647  0.00  0.00    +0.000 C 
ATOM     12  N   UNL     1       3.965   7.335  16.569  0.00  0.00    +0.000 N 
ATOM     13  O   UNL     1       5.671   6.698  17.820  0.00  0.00    +0.000 OA
ATOM     14  H   UNL     1       3.074   7.807  16.698  0.00  0.00    +0.000 HD
ATOM     15  H   UNL     1       4.664   7.905  16.108  0.00  0.00    +0.000 HD
ENDBRANCH   9  11
BRANCH   8  16
ATOM     16  N   UNL     1       2.102   7.764  19.769  0.00  0.00    +0.000 N 
ATOM     17  C   UNL     1       1.588   8.672  18.874  0.00  0.00    +0.000 C 
ATOM     18  O   UNL     1       1.434   8.489  17.671  0.00  0.00    +0.000 OA
ATOM     19  H   UNL     1       2.488   8.110  20.635  0.00  0.00    +0.000 HD
BRANCH  17  20
ATOM     20  C   UNL     1       1.073   9.923  19.488  0.00  0.00    +0.000 A 
ATOM     21  C   UNL     1       1.377  11.198  18.994  0.00  0.00    +0.000 A 
ATOM     22  C   UNL     1       1.081  12.327  19.764  0.00  0.00    +0.000 A 
ATOM     23  C   UNL     1       0.489  12.186  21.019  0.00  0.00    +0.000 A 
ATOM     24  C   UNL     1       0.132  10.909  21.475  0.00  0.00    +0.000 A 
ATOM     25  C   UNL     1       0.390   9.778  20.701  0.00  0.00    +0.000 A 
BRANCH  24  26
ATOM     26  N   UNL     1      -0.442  10.744  22.816  0.00  0.00    +0.000 N 
ATOM     27  O   UNL     1      -1.434  11.426  23.104  0.00  0.00    +0.000 OA
ATOM     28  O   UNL     1       0.110   9.942  23.584  0.00  0.00    +0.000 OA
ENDBRANCH  24  26
ENDBRANCH  17  20
ENDBRANCH   8  16
TORSDOF 4
ENDMDL
MODEL 5
REMARK VINA RESULT:      -7.0      4.085      8.762
REMARK  Name = 
REMARK  5 active torsions:
REMARK  status: ('A' for Active; 'I' for Inactive)
REMARK    1  A    between atoms: C_1  and  C_2
REMARK    2  A    between atoms: C_8  and  N_9
REMARK    3  A    between atoms: C_10  and  C_12
REMARK    4  A    between atoms: C_16  and  N_17
REMARK    5  A    between atoms: C_21  and  C_22
REMARK                            x       y       z     vdW  Elec       q    Type
REMARK                         _______ _______ _______ _____ _____    ______ ____
ROOT
ATOM      1  C   UNL     1       5.432   4.562  13.946  0.00  0.00    +0.000 C 
ATOM      2  C   UNL     1       6.285   4.434  15.215  0.00  0.00    +0.000 C 
ATOM      3  C   UNL     1       5.810   3.257  16.088  0.00  0.00    +0.000 C 
ATOM      4  C   UNL     1       4.375   3.447  16.598  0.00  0.00    +0.000 C 
ATOM      5  C   UNL     1       4.137   4.845  17.110  0.00  0.00    +0.000 A 
ATOM      6  C   UNL     1       5.050   5.855  16.878  0.00  0.00    +0.000 A 
ATOM      7  S   UNL     1       4.678   7.252  17.749  0.00  0.00    +0.000 S 
ATOM      8  C   UNL     1       3.168   6.618  18.238  0.00  0.00    +0.000 A 
ATOM      9  C   UNL     1       2.958   5.298  17.848  0.00  0.00    +0.000 A 
ATOM     10  C   UNL     1       6.293   5.739  16.044  0.00  0.00    +0.000 C 
ENDROOT
BRANCH   9  11
ATOM     11  C   UNL     1       1.856   4.381  18.182  0.00  0.00    +0.000 C 
ATOM     12  N   UNL     1       1.718   3.934  19.452  0.00  0.00    +0.000 N 
ATOM     13  O   UNL     1       1.023   3.995  17.356  0.00  0.00    +0.000 OA
ATOM     14  H   UNL     1       1.952   4.599  20.186  0.00  0.00    +0.000 HD
ATOM     15  H   UNL     1       0.844   3.447  19.608  0.00  0.00    +0.000 HD
ENDBRANCH   9  11
BRANCH   8  16
ATOM     16  N   UNL     1       2.499   7.565  18.985  0.00  0.00    +0.000 N 
ATOM     17  C   UNL     1       1.886   8.666  18.435  0.00  0.00    +0.000 C 
ATOM     18  O   UNL     1       1.829   8.936  17.241  0.00  0.00    +0.000 OA
ATOM     19  H   UNL     1       2.775   7.603  19.956  0.00  0.00    +0.000 HD
BRANCH  17  20
ATOM     20  C   UNL     1       1.135   9.504  19.405  0.00  0.00    +0.000 A 
ATOM     21  C   UNL     1       0.904   9.116  20.732  0.00  0.00    +0.000 A 
ATOM     22  C   UNL     1      -0.022   9.819  21.507  0.00  0.00    +0.000 A 
ATOM     23  C   UNL     1      -0.717  10.900  20.964  0.00  0.00    +0.000 A 
ATOM     24  C   UNL     1      -0.431  11.318  19.656  0.00  0.00    +0.000 A 
ATOM     25  C   UNL     1       0.516  10.646  18.884  0.00  0.00    +0.000 A 
BRANCH  24  26
ATOM     26  N   UNL     1      -1.195  12.418  19.055  0.00  0.00    +0.000 N 
ATOM     27  O   UNL     1      -0.644  13.080  18.164  0.00  0.00    +0.000 OA
ATOM     28  O   UNL     1      -2.338  12.628  19.485  0.00  0.00    +0.000 OA
ENDBRANCH  24  26
ENDBRANCH  17  20
ENDBRANCH   8  16
TORSDOF 4
ENDMDL
MODEL 6
REMARK VINA RESULT:      -6.9      4.692      9.334
REMARK  Name = 
REMARK  5 active torsions:
REMARK  status: ('A' for Active; 'I' for Inactive)
REMARK    1  A    between atoms: C_1  and  C_2
REMARK    2  A    between atoms: C_8  and  N_9
REMARK    3  A    between atoms: C_10  and  C_12
REMARK    4  A    between atoms: C_16  and  N_17
REMARK    5  A    between atoms: C_21  and  C_22
REMARK                            x       y       z     vdW  Elec       q    Type
REMARK                         _______ _______ _______ _____ _____    ______ ____
ROOT
ATOM      1  C   UNL     1       5.680   4.145  15.323  0.00  0.00    +0.000 C 
ATOM      2  C   UNL     1       6.464   4.979  16.346  0.00  0.00    +0.000 C 
ATOM      3  C   UNL     1       6.396   4.344  17.748  0.00  0.00    +0.000 C 
ATOM      4  C   UNL     1       4.966   4.290  18.300  0.00  0.00    +0.000 C 
ATOM      5  C   UNL     1       4.224   5.583  18.076  0.00  0.00    +0.000 A 
ATOM      6  C   UNL     1       4.730   6.560  17.241  0.00  0.00    +0.000 A 
ATOM      7  S   UNL     1       3.847   7.995  17.343  0.00  0.00    +0.000 S 
ATOM      8  C   UNL     1       2.638   7.254  18.298  0.00  0.00    +0.000 A 
ATOM      9  C   UNL     1       2.928   5.940  18.654  0.00  0.00    +0.000 A 
ATOM     10  C   UNL     1       5.970   6.443  16.403  0.00  0.00    +0.000 C 
ENDROOT
BRANCH   9  11
ATOM     11  C   UNL     1       2.208   5.027  19.558  0.00  0.00    +0.000 C 
ATOM     12  N   UNL     1       2.337   5.173  20.897  0.00  0.00    +0.000 N 
ATOM     13  O   UNL     1       1.469   4.123  19.158  0.00  0.00    +0.000 OA
ATOM     14  H   UNL     1       2.414   6.128  21.236  0.00  0.00    +0.000 HD
ATOM     15  H   UNL     1       1.680   4.607  21.421  0.00  0.00    +0.000 HD
ENDBRANCH   9  11
BRANCH   8  16
ATOM     16  N   UNL     1       1.643   8.171  18.564  0.00  0.00    +0.000 N 
ATOM     17  C   UNL     1       1.300   8.566  19.835  0.00  0.00    +0.000 C 
ATOM     18  O   UNL     1       1.832   8.189  20.874  0.00  0.00    +0.000 OA
ATOM     19  H   UNL     1       0.957   8.269  17.829  0.00  0.00    +0.000 HD
BRANCH  17  20
ATOM     20  C   UNL     1       0.272   9.638  19.894  0.00  0.00    +0.000 A 
ATOM     21  C   UNL     1      -0.180  10.325  18.759  0.00  0.00    +0.000 A 
ATOM     22  C   UNL     1      -0.943  11.486  18.911  0.00  0.00    +0.000 A 
ATOM     23  C   UNL     1      -1.251  11.962  20.186  0.00  0.00    +0.000 A 
ATOM     24  C   UNL     1      -0.846  11.231  21.313  0.00  0.00    +0.000 A 
ATOM     25  C   UNL     1      -0.115  10.052  21.172  0.00  0.00    +0.000 A 
BRANCH  24  26
ATOM     26  N   UNL     1      -1.117  11.751  22.659  0.00  0.00    +0.000 N 
ATOM     27  O   UNL     1      -1.865  11.088  23.390  0.00  0.00    +0.000 OA
ATOM     28  O   UNL     1      -0.592  12.827  22.977  0.00  0.00    +0.000 OA
ENDBRANCH  24  26
ENDBRANCH  17  20
ENDBRANCH   8  16
TORSDOF 4
ENDMDL
MODEL 7
REMARK VINA RESULT:      -6.9      5.762      7.837
REMARK  Name = 
REMARK  5 active torsions:
REMARK  status: ('A' for Active; 'I' for Inactive)
REMARK    1  A    between atoms: C_1  and  C_2
REMARK    2  A    between atoms: C_8  and  N_9
REMARK    3  A    between atoms: C_10  and  C_12
REMARK    4  A    between atoms: C_16  and  N_17
REMARK    5  A    between atoms: C_21  and  C_22
REMARK                            x       y       z     vdW  Elec       q    Type
REMARK                         _______ _______ _______ _____ _____    ______ ____
ROOT
ATOM      1  C   UNL     1      -3.419  12.528  22.146  0.00  0.00    +0.000 C 
ATOM      2  C   UNL     1      -2.279  12.546  23.173  0.00  0.00    +0.000 C 
ATOM      3  C   UNL     1      -1.218  13.601  22.806  0.00  0.00    +0.000 C 
ATOM      4  C   UNL     1      -0.534  13.304  21.465  0.00  0.00    +0.000 C 
ATOM      5  C   UNL     1      -0.157  11.851  21.332  0.00  0.00    +0.000 A 
ATOM      6  C   UNL     1      -0.631  10.906  22.222  0.00  0.00    +0.000 A 
ATOM      7  S   UNL     1       0.118   9.409  22.009  0.00  0.00    +0.000 S 
ATOM      8  C   UNL     1       0.887   9.929  20.574  0.00  0.00    +0.000 A 
ATOM      9  C   UNL     1       0.685  11.276  20.283  0.00  0.00    +0.000 A 
ATOM     10  C   UNL     1      -1.615  11.159  23.328  0.00  0.00    +0.000 C 
ENDROOT
BRANCH   9  11
ATOM     11  C   UNL     1       1.276  12.110  19.223  0.00  0.00    +0.000 C 
ATOM     12  N   UNL     1       0.595  12.308  18.071  0.00  0.00    +0.000 N 
ATOM     13  O   UNL     1       2.375  12.661  19.330  0.00  0.00    +0.000 OA
ATOM     14  H   UNL     1      -0.415  12.389  18.158  0.00  0.00    +0.000 HD
ATOM     15  H   UNL     1       1.011  13.021  17.483  0.00  0.00    +0.000 HD
ENDBRANCH   9  11
BRANCH   8  16
ATOM     16  N   UNL     1       1.609   8.883  20.040  0.00  0.00    +0.000 N 
ATOM     17  C   UNL     1       1.663   8.612  18.693  0.00  0.00    +0.000 C 
ATOM     18  O   UNL     1       1.117   9.260  17.807  0.00  0.00    +0.000 OA
ATOM     19  H   UNL     1       1.800   8.132  20.689  0.00  0.00    +0.000 HD
BRANCH  17  20
ATOM     20  C   UNL     1       2.579   7.503  18.322  0.00  0.00    +0.000 A 
ATOM     21  C   UNL     1       3.745   7.695  17.569  0.00  0.00    +0.000 A 
ATOM     22  C   UNL     1       4.415   6.590  17.035  0.00  0.00    +0.000 A 
ATOM     23  C   UNL     1       3.924   5.302  17.248  0.00  0.00    +0.000 A 
ATOM     24  C   UNL     1       2.791   5.118  18.055  0.00  0.00    +0.000 A 
ATOM     25  C   UNL     1       2.135   6.211  18.622  0.00  0.00    +0.000 A 
BRANCH  24  26
ATOM     26  N   UNL     1       2.234   3.773  18.241  0.00  0.00    +0.000 N 
ATOM     27  O   UNL     1       2.932   2.939  18.835  0.00  0.00    +0.000 OA
ATOM     28  O   UNL     1       1.106   3.548  17.780  0.00  0.00    +0.000 OA
ENDBRANCH  24  26
ENDBRANCH  17  20
ENDBRANCH   8  16
TORSDOF 4
ENDMDL
MODEL 8
REMARK VINA RESULT:      -6.9      6.081      8.464
REMARK  Name = 
REMARK  5 active torsions:
REMARK  status: ('A' for Active; 'I' for Inactive)
REMARK    1  A    between atoms: C_1  and  C_2
REMARK    2  A    between atoms: C_8  and  N_9
REMARK    3  A    between atoms: C_10  and  C_12
REMARK    4  A    between atoms: C_16  and  N_17
REMARK    5  A    between atoms: C_21  and  C_22
REMARK                            x       y       z     vdW  Elec       q    Type
REMARK                         _______ _______ _______ _____ _____    ______ ____
ROOT
ATOM      1  C   UNL     1      -3.558  13.001  21.993  0.00  0.00    +0.000 C 
ATOM      2  C   UNL     1      -2.558  12.947  23.155  0.00  0.00    +0.000 C 
ATOM      3  C   UNL     1      -1.404  13.945  22.942  0.00  0.00    +0.000 C 
ATOM      4  C   UNL     1      -0.572  13.622  21.694  0.00  0.00    +0.000 C 
ATOM      5  C   UNL     1      -0.260  12.151  21.588  0.00  0.00    +0.000 A 
ATOM      6  C   UNL     1      -0.893  11.227  22.396  0.00  0.00    +0.000 A 
ATOM      7  S   UNL     1      -0.205   9.692  22.256  0.00  0.00    +0.000 S 
ATOM      8  C   UNL     1       0.767  10.181  20.938  0.00  0.00    +0.000 A 
ATOM      9  C   UNL     1       0.676  11.539  20.645  0.00  0.00    +0.000 A 
ATOM     10  C   UNL     1      -1.995  11.524  23.372  0.00  0.00    +0.000 C 
ENDROOT
BRANCH   9  11
ATOM     11  C   UNL     1       1.441  12.348  19.681  0.00  0.00    +0.000 C 
ATOM     12  N   UNL     1       1.070  12.365  18.380  0.00  0.00    +0.000 N 
ATOM     13  O   UNL     1       2.415  13.037  19.998  0.00  0.00    +0.000 OA
ATOM     14  H   UNL     1       0.070  12.329  18.201  0.00  0.00    +0.000 HD
ATOM     15  H   UNL     1       1.555  13.072  17.840  0.00  0.00    +0.000 HD
ENDBRANCH   9  11
BRANCH   8  16
ATOM     16  N   UNL     1       1.493   9.101  20.484  0.00  0.00    +0.000 N 
ATOM     17  C   UNL     1       1.545   8.728  19.161  0.00  0.00    +0.000 C 
ATOM     18  O   UNL     1       0.993   9.303  18.229  0.00  0.00    +0.000 OA
ATOM     19  H   UNL     1       1.690   8.403  21.187  0.00  0.00    +0.000 HD
BRANCH  17  20
ATOM     20  C   UNL     1       2.466   7.599  18.872  0.00  0.00    +0.000 A 
ATOM     21  C   UNL     1       3.251   7.530  17.713  0.00  0.00    +0.000 A 
ATOM     22  C   UNL     1       3.889   6.332  17.379  0.00  0.00    +0.000 A 
ATOM     23  C   UNL     1       3.744   5.209  18.193  0.00  0.00    +0.000 A 
ATOM     24  C   UNL     1       3.008   5.307  19.383  0.00  0.00    +0.000 A 
ATOM     25  C   UNL     1       2.396   6.507  19.744  0.00  0.00    +0.000 A 
BRANCH  24  26
ATOM     26  N   UNL     1       2.803   4.118  20.218  0.00  0.00    +0.000 N 
ATOM     27  O   UNL     1       3.482   3.114  19.964  0.00  0.00    +0.000 OA
ATOM     28  O   UNL     1       1.953   4.185  21.118  0.00  0.00    +0.000 OA
ENDBRANCH  24  26
ENDBRANCH  17  20
ENDBRANCH   8  16
TORSDOF 4
ENDMDL
MODEL 9
REMARK VINA RESULT:      -6.8      1.311      1.656
REMARK  Name = 
REMARK  5 active torsions:
REMARK  status: ('A' for Active; 'I' for Inactive)
REMARK    1  A    between atoms: C_1  and  C_2
REMARK    2  A    between atoms: C_8  and  N_9
REMARK    3  A    between atoms: C_10  and  C_12
REMARK    4  A    between atoms: C_16  and  N_17
REMARK    5  A    between atoms: C_21  and  C_22
REMARK                            x       y       z     vdW  Elec       q    Type
REMARK                         _______ _______ _______ _____ _____    ______ ____
ROOT
ATOM      1  C   UNL     1       0.399   5.066  20.457  0.00  0.00    +0.000 C 
ATOM      2  C   UNL     1       0.933   3.642  20.656  0.00  0.00    +0.000 C 
ATOM      3  C   UNL     1       2.218   3.643  21.506  0.00  0.00    +0.000 C 
ATOM      4  C   UNL     1       3.368   4.402  20.829  0.00  0.00    +0.000 C 
ATOM      5  C   UNL     1       3.491   4.056  19.367  0.00  0.00    +0.000 A 
ATOM      6  C   UNL     1       2.501   3.345  18.717  0.00  0.00    +0.000 A 
ATOM      7  S   UNL     1       2.976   2.879  17.166  0.00  0.00    +0.000 S 
ATOM      8  C   UNL     1       4.392   3.833  17.247  0.00  0.00    +0.000 A 
ATOM      9  C   UNL     1       4.595   4.436  18.486  0.00  0.00    +0.000 A 
ATOM     10  C   UNL     1       1.188   2.924  19.311  0.00  0.00    +0.000 C 
ENDROOT
BRANCH   9  11
ATOM     11  C   UNL     1       5.743   5.215  18.979  0.00  0.00    +0.000 C 
ATOM     12  N   UNL     1       5.923   6.485  18.548  0.00  0.00    +0.000 N 
ATOM     13  O   UNL     1       6.563   4.772  19.788  0.00  0.00    +0.000 OA
ATOM     14  H   UNL     1       5.077   7.029  18.398  0.00  0.00    +0.000 HD
ATOM     15  H   UNL     1       6.638   6.981  19.067  0.00  0.00    +0.000 HD
ENDBRANCH   9  11
BRANCH   8  16
ATOM     16  N   UNL     1       5.072   3.741  16.051  0.00  0.00    +0.000 N 
ATOM     17  C   UNL     1       5.577   4.832  15.383  0.00  0.00    +0.000 C 
ATOM     18  O   UNL     1       5.518   5.997  15.761  0.00  0.00    +0.000 OA
ATOM     19  H   UNL     1       4.878   2.902  15.523  0.00  0.00    +0.000 HD
BRANCH  17  20
ATOM     20  C   UNL     1       6.362   4.503  14.166  0.00  0.00    +0.000 A 
ATOM     21  C   UNL     1       7.386   5.323  13.673  0.00  0.00    +0.000 A 
ATOM     22  C   UNL     1       7.901   5.094  12.394  0.00  0.00    +0.000 A 
ATOM     23  C   UNL     1       7.398   4.056  11.610  0.00  0.00    +0.000 A 
ATOM     24  C   UNL     1       6.417   3.203  12.138  0.00  0.00    +0.000 A 
ATOM     25  C   UNL     1       5.920   3.401  13.426  0.00  0.00    +0.000 A 
BRANCH  24  26
ATOM     26  N   UNL     1       5.841   2.143  11.302  0.00  0.00    +0.000 N 
ATOM     27  O   UNL     1       6.600   1.248  10.906  0.00  0.00    +0.000 OA
ATOM     28  O   UNL     1       4.633   2.214  11.033  0.00  0.00    +0.000 OA
ENDBRANCH  24  26
ENDBRANCH  17  20
ENDBRANCH   8  16
TORSDOF 4
ENDMDL
