MODEL 1
REMARK VINA RESULT:      -6.9      0.000      0.000
REMARK  Name = 
REMARK  4 active torsions:
REMARK  status: ('A' for Active; 'I' for Inactive)
REMARK    1  A    between atoms: C_1  and  N_2
REMARK    2  A    between atoms: N_2  and  C_3
REMARK    3  A    between atoms: N_6  and  C_7
REMARK    4  A    between atoms: C_14  and  C_16
REMARK                            x       y       z     vdW  Elec       q    Type
REMARK                         _______ _______ _______ _____ _____    ______ ____
ROOT
ATOM      1  C   UNL     1      -0.160  12.051  19.202  0.00  0.00    +0.000 C 
ATOM      2  C   UNL     1      -1.077  10.841  19.279  0.00  0.00    +0.000 C 
ATOM      3  O   UNL     1      -0.292   9.727  18.835  0.00  0.00    +0.000 OA
ATOM      4  C   UNL     1       1.079   9.970  19.201  0.00  0.00    +0.000 C 
ATOM      5  C   UNL     1       1.967   9.603  18.018  0.00  0.00    +0.000 C 
ATOM      6  C   UNL     1       1.931   8.112  17.733  0.00  0.00    +0.000 C 
ATOM      7  N   UNL     1       2.265   7.318  18.921  0.00  0.00    +0.000 N 
ATOM      8  C   UNL     1       3.235   6.315  19.028  0.00  0.00    +0.000 C 
ATOM      9  O   UNL     1       3.521   5.783  20.104  0.00  0.00    +0.000 OA
ATOM     10  C   UNL     1       1.412   7.605  20.077  0.00  0.00    +0.000 C 
ATOM     11  C   UNL     1       1.425   9.095  20.419  0.00  0.00    +0.000 C 
ATOM     12  C   UNL     1       1.201  11.462  19.524  0.00  0.00    +0.000 C 
ENDROOT
BRANCH   1  18
ATOM     13  C   UNL     1      -0.822  16.746  20.330  0.00  0.00    +0.000 C 
ATOM     14  N   UNL     1      -0.766  15.350  20.722  0.00  0.00    +0.000 N 
ATOM     15  C   UNL     1      -1.059  15.013  22.106  0.00  0.00    +0.000 C 
ATOM     16  C   UNL     1      -0.465  14.432  19.724  0.00  0.00    +0.000 C 
ATOM     17  O   UNL     1      -0.223  14.756  18.571  0.00  0.00    +0.000 OA
ATOM     18  N   UNL     1      -0.503  13.122  20.120  0.00  0.00    +0.000 N 
ATOM     19  H   UNL     1      -0.409  12.933  21.104  0.00  0.00    +0.000 HD
ENDBRANCH   1  18
BRANCH   8  20
ATOM     20  C   UNL     1       4.001   5.866  17.826  0.00  0.00    +0.000 A 
ATOM     21  C   UNL     1       3.869   4.541  17.391  0.00  0.00    +0.000 A 
ATOM     22  C   UNL     1       4.624   4.075  16.306  0.00  0.00    +0.000 A 
ATOM     23  C   UNL     1       5.527   4.926  15.673  0.00  0.00    +0.000 A 
ATOM     24 CL   UNL     1       6.504   4.348  14.383  0.00  0.00    +0.000 Cl
ATOM     25  C   UNL     1       5.630   6.257  16.067  0.00  0.00    +0.000 A 
ATOM     26  C   UNL     1       4.822   6.736  17.099  0.00  0.00    +0.000 A 
ENDBRANCH   8  20
TORSDOF 2
ENDMDL
MODEL 2
REMARK VINA RESULT:      -6.6      1.535      1.879
REMARK  Name = 
REMARK  4 active torsions:
REMARK  status: ('A' for Active; 'I' for Inactive)
REMARK    1  A    between atoms: C_1  and  N_2
REMARK    2  A    between atoms: N_2  and  C_3
REMARK    3  A    between atoms: N_6  and  C_7
REMARK    4  A    between atoms: C_14  and  C_16
REMARK                            x       y       z     vdW  Elec       q    Type
REMARK                         _______ _______ _______ _____ _____    ______ ____
ROOT
ATOM      1  C   UNL     1       0.470  13.815  18.719  0.00  0.00    +0.000 C 
ATOM      2  C   UNL     1      -0.746  12.902  18.714  0.00  0.00    +0.000 C 
ATOM      3  O   UNL     1      -0.241  11.581  18.487  0.00  0.00    +0.000 OA
ATOM      4  C   UNL     1       1.073  11.496  19.071  0.00  0.00    +0.000 C 
ATOM      5  C   UNL     1       1.993  10.782  18.087  0.00  0.00    +0.000 C 
ATOM      6  C   UNL     1       1.591   9.330  17.898  0.00  0.00    +0.000 C 
ATOM      7  N   UNL     1       1.511   8.612  19.176  0.00  0.00    +0.000 N 
ATOM      8  C   UNL     1       2.140   7.410  19.516  0.00  0.00    +0.000 C 
ATOM      9  O   UNL     1       2.103   6.943  20.658  0.00  0.00    +0.000 OA
ATOM     10  C   UNL     1       0.606   9.238  20.144  0.00  0.00    +0.000 C 
ATOM     11  C   UNL     1       0.977  10.702  20.385  0.00  0.00    +0.000 C 
ATOM     12  C   UNL     1       1.551  12.931  19.311  0.00  0.00    +0.000 C 
ENDROOT
BRANCH   1  18
ATOM     13  C   UNL     1       1.447  18.484  19.717  0.00  0.00    +0.000 C 
ATOM     14  N   UNL     1       0.785  17.236  20.045  0.00  0.00    +0.000 N 
ATOM     15  C   UNL     1      -0.083  17.205  21.212  0.00  0.00    +0.000 C 
ATOM     16  C   UNL     1       1.009  16.165  19.189  0.00  0.00    +0.000 C 
ATOM     17  O   UNL     1       1.748  16.231  18.219  0.00  0.00    +0.000 OA
ATOM     18  N   UNL     1       0.300  15.034  19.491  0.00  0.00    +0.000 N 
ATOM     19  H   UNL     1      -0.041  14.938  20.432  0.00  0.00    +0.000 HD
ENDBRANCH   1  18
BRANCH   8  20
ATOM     20  C   UNL     1       2.925   6.647  18.498  0.00  0.00    +0.000 A 
ATOM     21  C   UNL     1       2.639   5.290  18.297  0.00  0.00    +0.000 A 
ATOM     22  C   UNL     1       3.402   4.535  17.395  0.00  0.00    +0.000 A 
ATOM     23  C   UNL     1       4.462   5.130  16.715  0.00  0.00    +0.000 A 
ATOM     24 CL   UNL     1       5.443   4.197  15.656  0.00  0.00    +0.000 Cl
ATOM     25  C   UNL     1       4.722   6.487  16.873  0.00  0.00    +0.000 A 
ATOM     26  C   UNL     1       3.913   7.252  17.714  0.00  0.00    +0.000 A 
ENDBRANCH   8  20
TORSDOF 2
ENDMDL
MODEL 3
REMARK VINA RESULT:      -6.5      3.172      4.324
REMARK  Name = 
REMARK  4 active torsions:
REMARK  status: ('A' for Active; 'I' for Inactive)
REMARK    1  A    between atoms: C_1  and  N_2
REMARK    2  A    between atoms: N_2  and  C_3
REMARK    3  A    between atoms: N_6  and  C_7
REMARK    4  A    between atoms: C_14  and  C_16
REMARK                            x       y       z     vdW  Elec       q    Type
REMARK                         _______ _______ _______ _____ _____    ______ ____
ROOT
ATOM      1  C   UNL     1      -1.872  12.553  22.681  0.00  0.00    +0.000 C 
ATOM      2  C   UNL     1      -0.514  13.186  22.427  0.00  0.00    +0.000 C 
ATOM      3  O   UNL     1       0.302  12.150  21.866  0.00  0.00    +0.000 OA
ATOM      4  C   UNL     1      -0.550  11.269  21.109  0.00  0.00    +0.000 C 
ATOM      5  C   UNL     1      -0.159   9.830  21.426  0.00  0.00    +0.000 C 
ATOM      6  C   UNL     1       1.234   9.503  20.919  0.00  0.00    +0.000 C 
ATOM      7  N   UNL     1       1.380   9.797  19.488  0.00  0.00    +0.000 N 
ATOM      8  C   UNL     1       1.839   8.934  18.487  0.00  0.00    +0.000 C 
ATOM      9  O   UNL     1       1.817   9.237  17.291  0.00  0.00    +0.000 OA
ATOM     10  C   UNL     1       1.054  11.182  19.137  0.00  0.00    +0.000 C 
ATOM     11  C   UNL     1      -0.350  11.559  19.612  0.00  0.00    +0.000 C 
ATOM     12  C   UNL     1      -1.990  11.546  21.551  0.00  0.00    +0.000 C 
ENDROOT
BRANCH   1  18
ATOM     13  C   UNL     1      -6.414  13.904  23.820  0.00  0.00    +0.000 C 
ATOM     14  N   UNL     1      -5.160  14.149  23.134  0.00  0.00    +0.000 N 
ATOM     15  C   UNL     1      -5.014  15.391  22.393  0.00  0.00    +0.000 C 
ATOM     16  C   UNL     1      -4.174  13.179  23.268  0.00  0.00    +0.000 C 
ATOM     17  O   UNL     1      -4.336  12.147  23.899  0.00  0.00    +0.000 OA
ATOM     18  N   UNL     1      -2.981  13.490  22.672  0.00  0.00    +0.000 N 
ATOM     19  H   UNL     1      -2.995  14.179  21.939  0.00  0.00    +0.000 HD
ENDBRANCH   1  18
BRANCH   8  20
ATOM     20  C   UNL     1       2.352   7.573  18.831  0.00  0.00    +0.000 A 
ATOM     21  C   UNL     1       3.310   6.978  18.000  0.00  0.00    +0.000 A 
ATOM     22  C   UNL     1       3.762   5.677  18.263  0.00  0.00    +0.000 A 
ATOM     23  C   UNL     1       3.238   4.965  19.339  0.00  0.00    +0.000 A 
ATOM     24 CL   UNL     1       3.737   3.347  19.632  0.00  0.00    +0.000 Cl
ATOM     25  C   UNL     1       2.322   5.566  20.197  0.00  0.00    +0.000 A 
ATOM     26  C   UNL     1       1.931   6.887  19.975  0.00  0.00    +0.000 A 
ENDBRANCH   8  20
TORSDOF 2
ENDMDL
MODEL 4
REMARK VINA RESULT:      -6.5      2.888      3.668
REMARK  Name = 
REMARK  4 active torsions:
REMARK  status: ('A' for Active; 'I' for Inactive)
REMARK    1  A    between atoms: C_1  and  N_2
REMARK    2  A    between atoms: N_2  and  C_3
REMARK    3  A    between atoms: N_6  and  C_7
REMARK    4  A    between atoms: C_14  and  C_16
REMARK                            x       y       z     vdW  Elec       q    Type
REMARK                         _______ _______ _______ _____ _____    ______ ____
ROOT
ATOM      1  C   UNL     1      -1.427  11.786  21.914  0.00  0.00    +0.000 C 
ATOM      2  C   UNL     1       0.032  12.212  21.939  0.00  0.00    +0.000 C 
ATOM      3  O   UNL     1       0.775  11.092  21.442  0.00  0.00    +0.000 OA
ATOM      4  C   UNL     1      -0.048  10.395  20.489  0.00  0.00    +0.000 C 
ATOM      5  C   UNL     1       0.068   8.898  20.753  0.00  0.00    +0.000 C 
ATOM      6  C   UNL     1       1.467   8.385  20.461  0.00  0.00    +0.000 C 
ATOM      7  N   UNL     1       1.903   8.725  19.101  0.00  0.00    +0.000 N 
ATOM      8  C   UNL     1       2.401   7.855  18.126  0.00  0.00    +0.000 C 
ATOM      9  O   UNL     1       2.634   8.219  16.970  0.00  0.00    +0.000 OA
ATOM     10  C   UNL     1       1.848  10.160  18.809  0.00  0.00    +0.000 C 
ATOM     11  C   UNL     1       0.452  10.726  19.072  0.00  0.00    +0.000 C 
ATOM     12  C   UNL     1      -1.488  10.870  20.705  0.00  0.00    +0.000 C 
ENDROOT
BRANCH   1  18
ATOM     13  C   UNL     1      -5.522  14.134  23.126  0.00  0.00    +0.000 C 
ATOM     14  N   UNL     1      -4.343  14.002  22.291  0.00  0.00    +0.000 N 
ATOM     15  C   UNL     1      -4.103  15.017  21.277  0.00  0.00    +0.000 C 
ATOM     16  C   UNL     1      -3.510  12.922  22.550  0.00  0.00    +0.000 C 
ATOM     17  O   UNL     1      -3.747  12.089  23.411  0.00  0.00    +0.000 OA
ATOM     18  N   UNL     1      -2.370  12.884  21.793  0.00  0.00    +0.000 N 
ATOM     19  H   UNL     1      -2.371  13.396  20.928  0.00  0.00    +0.000 HD
ENDBRANCH   1  18
BRANCH   8  20
ATOM     20  C   UNL     1       2.644   6.415  18.444  0.00  0.00    +0.000 A 
ATOM     21  C   UNL     1       3.792   6.062  19.165  0.00  0.00    +0.000 A 
ATOM     22  C   UNL     1       4.078   4.713  19.422  0.00  0.00    +0.000 A 
ATOM     23  C   UNL     1       3.230   3.720  18.937  0.00  0.00    +0.000 A 
ATOM     24 CL   UNL     1       3.604   2.062  19.191  0.00  0.00    +0.000 Cl
ATOM     25  C   UNL     1       2.063   4.064  18.261  0.00  0.00    +0.000 A 
ATOM     26  C   UNL     1       1.744   5.409  18.073  0.00  0.00    +0.000 A 
ENDBRANCH   8  20
TORSDOF 2
ENDMDL
MODEL 5
REMARK VINA RESULT:      -6.5      0.296      1.007
REMARK  Name = 
REMARK  4 active torsions:
REMARK  status: ('A' for Active; 'I' for Inactive)
REMARK    1  A    between atoms: C_1  and  N_2
REMARK    2  A    between atoms: N_2  and  C_3
REMARK    3  A    between atoms: N_6  and  C_7
REMARK    4  A    between atoms: C_14  and  C_16
REMARK                            x       y       z     vdW  Elec       q    Type
REMARK                         _______ _______ _______ _____ _____    ______ ____
ROOT
ATOM      1  C   UNL     1      -0.112  12.102  19.463  0.00  0.00    +0.000 C 
ATOM      2  C   UNL     1      -1.067  10.921  19.408  0.00  0.00    +0.000 C 
ATOM      3  O   UNL     1      -0.291   9.813  18.934  0.00  0.00    +0.000 OA
ATOM      4  C   UNL     1       1.063   9.986  19.390  0.00  0.00    +0.000 C 
ATOM      5  C   UNL     1       2.006   9.668  18.235  0.00  0.00    +0.000 C 
ATOM      6  C   UNL     1       1.943   8.201  17.848  0.00  0.00    +0.000 C 
ATOM      7  N   UNL     1       2.186   7.320  18.998  0.00  0.00    +0.000 N 
ATOM      8  C   UNL     1       3.118   6.282  19.089  0.00  0.00    +0.000 C 
ATOM      9  O   UNL     1       3.327   5.671  20.141  0.00  0.00    +0.000 OA
ATOM     10  C   UNL     1       1.277   7.559  20.122  0.00  0.00    +0.000 C 
ATOM     11  C   UNL     1       1.314   9.023  20.563  0.00  0.00    +0.000 C 
ATOM     12  C   UNL     1       1.211  11.449  19.818  0.00  0.00    +0.000 C 
ENDROOT
BRANCH   1  18
ATOM     13  C   UNL     1      -1.057  16.703  20.762  0.00  0.00    +0.000 C 
ATOM     14  N   UNL     1      -0.868  15.308  21.110  0.00  0.00    +0.000 N 
ATOM     15  C   UNL     1      -1.043  14.917  22.500  0.00  0.00    +0.000 C 
ATOM     16  C   UNL     1      -0.564  14.440  20.069  0.00  0.00    +0.000 C 
ATOM     17  O   UNL     1      -0.424  14.808  18.913  0.00  0.00    +0.000 OA
ATOM     18  N   UNL     1      -0.476  13.122  20.431  0.00  0.00    +0.000 N 
ATOM     19  H   UNL     1      -0.303  12.918  21.400  0.00  0.00    +0.000 HD
ENDBRANCH   1  18
BRANCH   8  20
ATOM     20  C   UNL     1       3.938   5.887  17.904  0.00  0.00    +0.000 A 
ATOM     21  C   UNL     1       4.814   6.825  17.340  0.00  0.00    +0.000 A 
ATOM     22  C   UNL     1       5.547   6.503  16.189  0.00  0.00    +0.000 A 
ATOM     23  C   UNL     1       5.385   5.256  15.590  0.00  0.00    +0.000 A 
ATOM     24 CL   UNL     1       6.231   4.875  14.144  0.00  0.00    +0.000 Cl
ATOM     25  C   UNL     1       4.555   4.302  16.170  0.00  0.00    +0.000 A 
ATOM     26  C   UNL     1       3.885   4.600  17.357  0.00  0.00    +0.000 A 
ENDBRANCH   8  20
TORSDOF 2
ENDMDL
MODEL 6
REMARK VINA RESULT:      -6.4      3.012      3.766
REMARK  Name = 
REMARK  4 active torsions:
REMARK  status: ('A' for Active; 'I' for Inactive)
REMARK    1  A    between atoms: C_1  and  N_2
REMARK    2  A    between atoms: N_2  and  C_3
REMARK    3  A    between atoms: N_6  and  C_7
REMARK    4  A    between atoms: C_14  and  C_16
REMARK                            x       y       z     vdW  Elec       q    Type
REMARK                         _______ _______ _______ _____ _____    ______ ____
ROOT
ATOM      1  C   UNL     1      -1.532  11.800  22.061  0.00  0.00    +0.000 C 
ATOM      2  C   UNL     1      -0.100  12.308  22.005  0.00  0.00    +0.000 C 
ATOM      3  O   UNL     1       0.680  11.222  21.489  0.00  0.00    +0.000 OA
ATOM      4  C   UNL     1      -0.149  10.462  20.590  0.00  0.00    +0.000 C 
ATOM      5  C   UNL     1       0.066   8.980  20.873  0.00  0.00    +0.000 C 
ATOM      6  C   UNL     1       1.475   8.540  20.518  0.00  0.00    +0.000 C 
ATOM      7  N   UNL     1       1.823   8.879  19.132  0.00  0.00    +0.000 N 
ATOM      8  C   UNL     1       2.321   8.019  18.148  0.00  0.00    +0.000 C 
ATOM      9  O   UNL     1       2.475   8.374  16.976  0.00  0.00    +0.000 OA
ATOM     10  C   UNL     1       1.672  10.303  18.821  0.00  0.00    +0.000 C 
ATOM     11  C   UNL     1       0.260  10.794  19.145  0.00  0.00    +0.000 C 
ATOM     12  C   UNL     1      -1.601  10.859  20.872  0.00  0.00    +0.000 C 
ENDROOT
BRANCH   1  18
ATOM     13  C   UNL     1      -5.642  13.987  23.501  0.00  0.00    +0.000 C 
ATOM     14  N   UNL     1      -4.528  13.878  22.578  0.00  0.00    +0.000 N 
ATOM     15  C   UNL     1      -4.425  14.856  21.507  0.00  0.00    +0.000 C 
ATOM     16  C   UNL     1      -3.618  12.856  22.816  0.00  0.00    +0.000 C 
ATOM     17  O   UNL     1      -3.740  12.053  23.727  0.00  0.00    +0.000 OA
ATOM     18  N   UNL     1      -2.541  12.841  21.971  0.00  0.00    +0.000 N 
ATOM     19  H   UNL     1      -2.638  13.312  21.087  0.00  0.00    +0.000 HD
ENDBRANCH   1  18
BRANCH   8  20
ATOM     20  C   UNL     1       2.661   6.601  18.476  0.00  0.00    +0.000 A 
ATOM     21  C   UNL     1       1.743   5.591  18.159  0.00  0.00    +0.000 A 
ATOM     22  C   UNL     1       2.007   4.261  18.513  0.00  0.00    +0.000 A 
ATOM     23  C   UNL     1       3.175   3.946  19.204  0.00  0.00    +0.000 A 
ATOM     24 CL   UNL     1       3.479   2.328  19.699  0.00  0.00    +0.000 Cl
ATOM     25  C   UNL     1       4.114   4.935  19.480  0.00  0.00    +0.000 A 
ATOM     26  C   UNL     1       3.882   6.245  19.060  0.00  0.00    +0.000 A 
ENDBRANCH   8  20
TORSDOF 2
ENDMDL
MODEL 7
REMARK VINA RESULT:      -6.4      1.503      1.985
REMARK  Name = 
REMARK  4 active torsions:
REMARK  status: ('A' for Active; 'I' for Inactive)
REMARK    1  A    between atoms: C_1  and  N_2
REMARK    2  A    between atoms: N_2  and  C_3
REMARK    3  A    between atoms: N_6  and  C_7
REMARK    4  A    between atoms: C_14  and  C_16
REMARK                            x       y       z     vdW  Elec       q    Type
REMARK                         _______ _______ _______ _____ _____    ______ ____
ROOT
ATOM      1  C   UNL     1       0.595  13.577  18.600  0.00  0.00    +0.000 C 
ATOM      2  C   UNL     1      -0.619  12.664  18.552  0.00  0.00    +0.000 C 
ATOM      3  O   UNL     1      -0.106  11.341  18.355  0.00  0.00    +0.000 OA
ATOM      4  C   UNL     1       1.183  11.260  18.991  0.00  0.00    +0.000 C 
ATOM      5  C   UNL     1       2.142  10.540  18.050  0.00  0.00    +0.000 C 
ATOM      6  C   UNL     1       1.748   9.086  17.855  0.00  0.00    +0.000 C 
ATOM      7  N   UNL     1       1.616   8.377  19.134  0.00  0.00    +0.000 N 
ATOM      8  C   UNL     1       2.231   7.177  19.506  0.00  0.00    +0.000 C 
ATOM      9  O   UNL     1       2.147   6.718  20.649  0.00  0.00    +0.000 OA
ATOM     10  C   UNL     1       0.673   9.009  20.060  0.00  0.00    +0.000 C 
ATOM     11  C   UNL     1       1.035  10.474  20.306  0.00  0.00    +0.000 C 
ATOM     12  C   UNL     1       1.652  12.696  19.241  0.00  0.00    +0.000 C 
ENDROOT
BRANCH   1  18
ATOM     13  C   UNL     1       1.644  18.204  19.713  0.00  0.00    +0.000 C 
ATOM     14  N   UNL     1       0.905  16.982  19.967  0.00  0.00    +0.000 N 
ATOM     15  C   UNL     1      -0.077  16.984  21.040  0.00  0.00    +0.000 C 
ATOM     16  C   UNL     1       1.174  15.904  19.133  0.00  0.00    +0.000 C 
ATOM     17  O   UNL     1       2.008  15.942  18.243  0.00  0.00    +0.000 OA
ATOM     18  N   UNL     1       0.395  14.800  19.357  0.00  0.00    +0.000 N 
ATOM     19  H   UNL     1      -0.043  14.717  20.258  0.00  0.00    +0.000 HD
ENDBRANCH   1  18
BRANCH   8  20
ATOM     20  C   UNL     1       3.055   6.407  18.526  0.00  0.00    +0.000 A 
ATOM     21  C   UNL     1       4.166   7.026  17.938  0.00  0.00    +0.000 A 
ATOM     22  C   UNL     1       4.919   6.351  16.967  0.00  0.00    +0.000 A 
ATOM     23  C   UNL     1       4.547   5.069  16.570  0.00  0.00    +0.000 A 
ATOM     24 CL   UNL     1       5.425   4.256  15.336  0.00  0.00    +0.000 Cl
ATOM     25  C   UNL     1       3.475   4.428  17.182  0.00  0.00    +0.000 A 
ATOM     26  C   UNL     1       2.774   5.076  18.200  0.00  0.00    +0.000 A 
ENDBRANCH   8  20
TORSDOF 2
ENDMDL
MODEL 8
REMARK VINA RESULT:      -6.4      1.123      1.364
REMARK  Name = 
REMARK  4 active torsions:
REMARK  status: ('A' for Active; 'I' for Inactive)
REMARK    1  A    between atoms: C_1  and  N_2
REMARK    2  A    between atoms: N_2  and  C_3
REMARK    3  A    between atoms: N_6  and  C_7
REMARK    4  A    between atoms: C_14  and  C_16
REMARK                            x       y       z     vdW  Elec       q    Type
REMARK                         _______ _______ _______ _____ _____    ______ ____
ROOT
ATOM      1  C   UNL     1      -0.187  12.038  19.080  0.00  0.00    +0.000 C 
ATOM      2  C   UNL     1      -1.097  10.827  19.208  0.00  0.00    +0.000 C 
ATOM      3  O   UNL     1      -0.315   9.704  18.784  0.00  0.00    +0.000 OA
ATOM      4  C   UNL     1       1.061   9.962  19.120  0.00  0.00    +0.000 C 
ATOM      5  C   UNL     1       1.931   9.564  17.934  0.00  0.00    +0.000 C 
ATOM      6  C   UNL     1       1.897   8.065  17.693  0.00  0.00    +0.000 C 
ATOM      7  N   UNL     1       2.254   7.308  18.899  0.00  0.00    +0.000 N 
ATOM      8  C   UNL     1       3.230   6.313  19.019  0.00  0.00    +0.000 C 
ATOM      9  O   UNL     1       3.535   5.813  20.106  0.00  0.00    +0.000 OA
ATOM     10  C   UNL     1       1.418   7.625  20.060  0.00  0.00    +0.000 C 
ATOM     11  C   UNL     1       1.430   9.125  20.357  0.00  0.00    +0.000 C 
ATOM     12  C   UNL     1       1.182  11.464  19.397  0.00  0.00    +0.000 C 
ENDROOT
BRANCH   1  18
ATOM     13  C   UNL     1      -1.215  13.896  23.467  0.00  0.00    +0.000 C 
ATOM     14  N   UNL     1      -1.081  14.052  22.031  0.00  0.00    +0.000 N 
ATOM     15  C   UNL     1      -1.301  15.371  21.460  0.00  0.00    +0.000 C 
ATOM     16  C   UNL     1      -0.715  12.922  21.311  0.00  0.00    +0.000 C 
ATOM     17  O   UNL     1      -0.539  11.829  21.828  0.00  0.00    +0.000 OA
ATOM     18  N   UNL     1      -0.520  13.134  19.972  0.00  0.00    +0.000 N 
ATOM     19  H   UNL     1      -0.956  13.944  19.564  0.00  0.00    +0.000 HD
ENDBRANCH   1  18
BRANCH   8  20
ATOM     20  C   UNL     1       3.978   5.831  17.819  0.00  0.00    +0.000 A 
ATOM     21  C   UNL     1       3.831   4.497  17.415  0.00  0.00    +0.000 A 
ATOM     22  C   UNL     1       4.570   4.002  16.332  0.00  0.00    +0.000 A 
ATOM     23  C   UNL     1       5.471   4.833  15.670  0.00  0.00    +0.000 A 
ATOM     24 CL   UNL     1       6.428   4.218  14.381  0.00  0.00    +0.000 Cl
ATOM     25  C   UNL     1       5.588   6.171  16.032  0.00  0.00    +0.000 A 
ATOM     26  C   UNL     1       4.796   6.679  17.063  0.00  0.00    +0.000 A 
ENDBRANCH   8  20
TORSDOF 2
ENDMDL
MODEL 9
REMARK VINA RESULT:      -6.3      1.184      1.188
REMARK  Name = 
REMARK  4 active torsions:
REMARK  status: ('A' for Active; 'I' for Inactive)
REMARK    1  A    between atoms: C_1  and  N_2
REMARK    2  A    between atoms: N_2  and  C_3
REMARK    3  A    between atoms: N_6  and  C_7
REMARK    4  A    between atoms: C_14  and  C_16
REMARK                            x       y       z     vdW  Elec       q    Type
REMARK                         _______ _______ _______ _____ _____    ______ ____
ROOT
ATOM      1  C   UNL     1      -0.201  11.548  19.738  0.00  0.00    +0.000 C 
ATOM      2  C   UNL     1      -1.051  10.288  19.727  0.00  0.00    +0.000 C 
ATOM      3  O   UNL     1      -0.217   9.259  19.180  0.00  0.00    +0.000 OA
ATOM      4  C   UNL     1       1.146   9.544  19.545  0.00  0.00    +0.000 C 
ATOM      5  C   UNL     1       2.029   9.325  18.323  0.00  0.00    +0.000 C 
ATOM      6  C   UNL     1       2.068   7.863  17.914  0.00  0.00    +0.000 C 
ATOM      7  N   UNL     1       2.466   6.993  19.028  0.00  0.00    +0.000 N 
ATOM      8  C   UNL     1       3.489   6.039  19.036  0.00  0.00    +0.000 C 
ATOM      9  O   UNL     1       3.823   5.436  20.060  0.00  0.00    +0.000 OA
ATOM     10  C   UNL     1       1.620   7.137  20.216  0.00  0.00    +0.000 C 
ATOM     11  C   UNL     1       1.561   8.592  20.680  0.00  0.00    +0.000 C 
ATOM     12  C   UNL     1       1.195  11.009  19.989  0.00  0.00    +0.000 C 
ENDROOT
BRANCH   1  18
ATOM     13  C   UNL     1      -3.248  14.831  21.658  0.00  0.00    +0.000 C 
ATOM     14  N   UNL     1      -1.973  14.140  21.662  0.00  0.00    +0.000 N 
ATOM     15  C   UNL     1      -1.030  14.445  22.726  0.00  0.00    +0.000 C 
ATOM     16  C   UNL     1      -1.765  13.205  20.656  0.00  0.00    +0.000 C 
ATOM     17  O   UNL     1      -2.583  12.978  19.778  0.00  0.00    +0.000 OA
ATOM     18  N   UNL     1      -0.584  12.519  20.747  0.00  0.00    +0.000 N 
ATOM     19  H   UNL     1       0.156  12.940  21.284  0.00  0.00    +0.000 HD
ENDBRANCH   1  18
BRANCH   8  20
ATOM     20  C   UNL     1       4.255   5.733  17.790  0.00  0.00    +0.000 A 
ATOM     21  C   UNL     1       3.983   4.545  17.099  0.00  0.00    +0.000 A 
ATOM     22  C   UNL     1       4.730   4.202  15.964  0.00  0.00    +0.000 A 
ATOM     23  C   UNL     1       5.762   5.033  15.535  0.00  0.00    +0.000 A 
ATOM     24 CL   UNL     1       6.725   4.591  14.182  0.00  0.00    +0.000 Cl
ATOM     25  C   UNL     1       6.008   6.238  16.186  0.00  0.00    +0.000 A 
ATOM     26  C   UNL     1       5.213   6.612  17.271  0.00  0.00    +0.000 A 
ENDBRANCH   8  20
TORSDOF 2
ENDMDL
