MODEL 1
REMARK VINA RESULT:      -7.3      0.000      0.000
REMARK  Name = 
REMARK  4 active torsions:
REMARK  status: ('A' for Active; 'I' for Inactive)
REMARK    1  A    between atoms: N_6  and  C_7
REMARK    2  A    between atoms: C_7  and  C_8
REMARK    3  A    between atoms: N_15  and  C_16
REMARK    4  A    between atoms: C_16  and  C_17
REMARK                            x       y       z     vdW  Elec       q    Type
REMARK                         _______ _______ _______ _____ _____    ______ ____
ROOT
ATOM      1  C   UNL     1       6.794   5.552  16.288  0.00  0.00    +0.000 A 
ATOM      2  N   UNL     1       7.402   6.695  16.538  0.00  0.00    +0.000 NA
ATOM      3  N   UNL     1       6.492   7.551  17.098  0.00  0.00    +0.000 NA
ATOM      4  C   UNL     1       5.334   6.928  17.188  0.00  0.00    +0.000 A 
ATOM      5  N   UNL     1       5.500   5.637  16.744  0.00  0.00    +0.000 N 
ATOM      6  C   UNL     1       4.519   4.572  16.785  0.00  0.00    +0.000 C 
ATOM      7  C   UNL     1       3.698   4.573  18.082  0.00  0.00    +0.000 C 
ATOM      8  N   UNL     1       2.564   5.519  18.135  0.00  0.00    +0.000 NA
ATOM      9  C   UNL     1       2.791   6.775  17.395  0.00  0.00    +0.000 C 
ATOM     10  C   UNL     1       4.079   7.542  17.709  0.00  0.00    +0.000 C 
ENDROOT
BRANCH   1  11
ATOM     11  C   UNL     1       7.397   4.387  15.581  0.00  0.00    +0.000 C 
BRANCH  11  17
ATOM     12  O   UNL     1       8.859   5.873  13.508  0.00  0.00    +0.000 OA
ATOM     13  C   UNL     1       7.887   5.182  13.252  0.00  0.00    +0.000 C 
ATOM     14  C   UNL     1       7.236   5.032  11.901  0.00  0.00    +0.000 C 
ATOM     15  C   UNL     1       6.448   3.737  12.054  0.00  0.00    +0.000 C 
ATOM     16  C   UNL     1       6.065   3.717  13.523  0.00  0.00    +0.000 C 
ATOM     17  N   UNL     1       7.139   4.447  14.155  0.00  0.00    +0.000 N 
ENDBRANCH  11  17
ENDBRANCH   1  11
BRANCH   8  18
ATOM     18  C   UNL     1       2.168   5.801  19.535  0.00  0.00    +0.000 C 
BRANCH  18  19
ATOM     19  C   UNL     1       1.858   4.579  20.332  0.00  0.00    +0.000 A 
ATOM     20  C   UNL     1       0.857   3.632  20.282  0.00  0.00    +0.000 A 
ATOM     21  C   UNL     1       1.107   2.728  21.342  0.00  0.00    +0.000 A 
ATOM     22  C   UNL     1       2.246   3.176  21.969  0.00  0.00    +0.000 A 
ATOM     23  O   UNL     1       2.712   4.296  21.360  0.00  0.00    +0.000 OA
ENDBRANCH  18  19
ENDBRANCH   8  18
TORSDOF 4
ENDMDL
MODEL 2
REMARK VINA RESULT:      -7.0      1.854      6.740
REMARK  Name = 
REMARK  4 active torsions:
REMARK  status: ('A' for Active; 'I' for Inactive)
REMARK    1  A    between atoms: N_6  and  C_7
REMARK    2  A    between atoms: C_7  and  C_8
REMARK    3  A    between atoms: N_15  and  C_16
REMARK    4  A    between atoms: C_16  and  C_17
REMARK                            x       y       z     vdW  Elec       q    Type
REMARK                         _______ _______ _______ _____ _____    ______ ____
ROOT
ATOM      1  C   UNL     1       2.833   6.345  18.885  0.00  0.00    +0.000 A 
ATOM      2  N   UNL     1       2.512   7.204  17.938  0.00  0.00    +0.000 NA
ATOM      3  N   UNL     1       3.652   7.536  17.255  0.00  0.00    +0.000 NA
ATOM      4  C   UNL     1       4.663   6.879  17.788  0.00  0.00    +0.000 A 
ATOM      5  N   UNL     1       4.175   6.064  18.782  0.00  0.00    +0.000 N 
ATOM      6  C   UNL     1       4.919   5.080  19.542  0.00  0.00    +0.000 C 
ATOM      7  C   UNL     1       5.924   4.303  18.679  0.00  0.00    +0.000 C 
ATOM      8  N   UNL     1       7.215   4.972  18.420  0.00  0.00    +0.000 NA
ATOM      9  C   UNL     1       7.125   6.441  18.318  0.00  0.00    +0.000 C 
ATOM     10  C   UNL     1       6.081   7.005  17.348  0.00  0.00    +0.000 C 
ENDROOT
BRANCH   1  11
ATOM     11  C   UNL     1       1.906   5.812  19.923  0.00  0.00    +0.000 C 
BRANCH  11  17
ATOM     12  O   UNL     1       2.104   3.677  21.935  0.00  0.00    +0.000 OA
ATOM     13  C   UNL     1       1.814   3.453  20.771  0.00  0.00    +0.000 C 
ATOM     14  C   UNL     1       1.594   2.094  20.159  0.00  0.00    +0.000 C 
ATOM     15  C   UNL     1       0.804   2.422  18.897  0.00  0.00    +0.000 C 
ATOM     16  C   UNL     1       1.316   3.794  18.497  0.00  0.00    +0.000 C 
ATOM     17  N   UNL     1       1.695   4.387  19.758  0.00  0.00    +0.000 N 
ENDBRANCH  11  17
ENDBRANCH   1  11
BRANCH   8  18
ATOM     18  C   UNL     1       7.881   4.405  17.223  0.00  0.00    +0.000 C 
BRANCH  18  19
ATOM     19  C   UNL     1       7.029   4.415  15.999  0.00  0.00    +0.000 A 
ATOM     20  C   UNL     1       5.812   3.852  15.674  0.00  0.00    +0.000 A 
ATOM     21  C   UNL     1       5.552   4.210  14.329  0.00  0.00    +0.000 A 
ATOM     22  C   UNL     1       6.623   4.969  13.919  0.00  0.00    +0.000 A 
ATOM     23  O   UNL     1       7.522   5.104  14.927  0.00  0.00    +0.000 OA
ENDBRANCH  18  19
ENDBRANCH   8  18
TORSDOF 4
ENDMDL
MODEL 3
REMARK VINA RESULT:      -6.8      2.053      6.564
REMARK  Name = 
REMARK  4 active torsions:
REMARK  status: ('A' for Active; 'I' for Inactive)
REMARK    1  A    between atoms: N_6  and  C_7
REMARK    2  A    between atoms: C_7  and  C_8
REMARK    3  A    between atoms: N_15  and  C_16
REMARK    4  A    between atoms: C_16  and  C_17
REMARK                            x       y       z     vdW  Elec       q    Type
REMARK                         _______ _______ _______ _____ _____    ______ ____
ROOT
ATOM      1  C   UNL     1       2.760   6.385  18.795  0.00  0.00    +0.000 A 
ATOM      2  N   UNL     1       2.484   7.238  17.828  0.00  0.00    +0.000 NA
ATOM      3  N   UNL     1       3.652   7.548  17.182  0.00  0.00    +0.000 NA
ATOM      4  C   UNL     1       4.634   6.882  17.757  0.00  0.00    +0.000 A 
ATOM      5  N   UNL     1       4.101   6.085  18.741  0.00  0.00    +0.000 N 
ATOM      6  C   UNL     1       4.805   5.099  19.536  0.00  0.00    +0.000 C 
ATOM      7  C   UNL     1       5.827   4.299  18.717  0.00  0.00    +0.000 C 
ATOM      8  N   UNL     1       7.136   4.947  18.496  0.00  0.00    +0.000 NA
ATOM      9  C   UNL     1       7.070   6.416  18.375  0.00  0.00    +0.000 C 
ATOM     10  C   UNL     1       6.069   6.984  17.364  0.00  0.00    +0.000 C 
ENDROOT
BRANCH   1  11
ATOM     11  C   UNL     1       1.790   5.877  19.805  0.00  0.00    +0.000 C 
BRANCH  11  17
ATOM     12  O   UNL     1       1.151   4.313  17.399  0.00  0.00    +0.000 OA
ATOM     13  C   UNL     1       1.298   3.795  18.494  0.00  0.00    +0.000 C 
ATOM     14  C   UNL     1       1.107   2.336  18.817  0.00  0.00    +0.000 C 
ATOM     15  C   UNL     1       1.876   2.182  20.123  0.00  0.00    +0.000 C 
ATOM     16  C   UNL     1       1.728   3.536  20.793  0.00  0.00    +0.000 C 
ATOM     17  N   UNL     1       1.600   4.444  19.677  0.00  0.00    +0.000 N 
ENDBRANCH  11  17
ENDBRANCH   1  11
BRANCH   8  18
ATOM     18  C   UNL     1       7.834   4.358  17.329  0.00  0.00    +0.000 C 
BRANCH  18  19
ATOM     19  C   UNL     1       7.035   4.391  16.069  0.00  0.00    +0.000 A 
ATOM     20  C   UNL     1       5.825   3.850  15.689  0.00  0.00    +0.000 A 
ATOM     21  C   UNL     1       5.627   4.221  14.337  0.00  0.00    +0.000 A 
ATOM     22  C   UNL     1       6.726   4.967  13.979  0.00  0.00    +0.000 A 
ATOM     23  O   UNL     1       7.584   5.080  15.025  0.00  0.00    +0.000 OA
ENDBRANCH  18  19
ENDBRANCH   8  18
TORSDOF 4
ENDMDL
MODEL 4
REMARK VINA RESULT:      -6.8      5.138      7.436
REMARK  Name = 
REMARK  4 active torsions:
REMARK  status: ('A' for Active; 'I' for Inactive)
REMARK    1  A    between atoms: N_6  and  C_7
REMARK    2  A    between atoms: C_7  and  C_8
REMARK    3  A    between atoms: N_15  and  C_16
REMARK    4  A    between atoms: C_16  and  C_17
REMARK                            x       y       z     vdW  Elec       q    Type
REMARK                         _______ _______ _______ _____ _____    ______ ____
ROOT
ATOM      1  C   UNL     1       2.697   7.238  19.034  0.00  0.00    +0.000 A 
ATOM      2  N   UNL     1       3.010   7.704  17.842  0.00  0.00    +0.000 NA
ATOM      3  N   UNL     1       2.258   8.825  17.607  0.00  0.00    +0.000 NA
ATOM      4  C   UNL     1       1.490   9.038  18.657  0.00  0.00    +0.000 A 
ATOM      5  N   UNL     1       1.785   8.091  19.610  0.00  0.00    +0.000 N 
ATOM      6  C   UNL     1       1.267   8.029  20.962  0.00  0.00    +0.000 C 
ATOM      7  C   UNL     1       1.162   9.412  21.620  0.00  0.00    +0.000 C 
ATOM      8  N   UNL     1      -0.035  10.208  21.276  0.00  0.00    +0.000 NA
ATOM      9  C   UNL     1      -0.526   9.997  19.901  0.00  0.00    +0.000 C 
ATOM     10  C   UNL     1       0.496  10.143  18.770  0.00  0.00    +0.000 C 
ENDROOT
BRANCH   1  11
ATOM     11  C   UNL     1       3.207   5.972  19.632  0.00  0.00    +0.000 C 
BRANCH  11  17
ATOM     12  O   UNL     1       3.013   4.186  17.304  0.00  0.00    +0.000 OA
ATOM     13  C   UNL     1       2.270   4.087  18.266  0.00  0.00    +0.000 C 
ATOM     14  C   UNL     1       1.115   3.128  18.400  0.00  0.00    +0.000 C 
ATOM     15  C   UNL     1       0.887   3.090  19.906  0.00  0.00    +0.000 C 
ATOM     16  C   UNL     1       1.286   4.481  20.367  0.00  0.00    +0.000 C 
ATOM     17  N   UNL     1       2.286   4.875  19.403  0.00  0.00    +0.000 N 
ENDBRANCH  11  17
ENDBRANCH   1  11
BRANCH   8  18
ATOM     18  C   UNL     1       0.190  11.650  21.535  0.00  0.00    +0.000 C 
BRANCH  18  19
ATOM     19  C   UNL     1      -0.902  12.298  22.318  0.00  0.00    +0.000 A 
ATOM     20  C   UNL     1      -1.149  13.592  22.727  0.00  0.00    +0.000 A 
ATOM     21  C   UNL     1      -2.350  13.554  23.474  0.00  0.00    +0.000 A 
ATOM     22  C   UNL     1      -2.763  12.242  23.472  0.00  0.00    +0.000 A 
ATOM     23  O   UNL     1      -1.893  11.473  22.769  0.00  0.00    +0.000 OA
ENDBRANCH  18  19
ENDBRANCH   8  18
TORSDOF 4
ENDMDL
MODEL 5
REMARK VINA RESULT:      -6.8      1.568      7.353
REMARK  Name = 
REMARK  4 active torsions:
REMARK  status: ('A' for Active; 'I' for Inactive)
REMARK    1  A    between atoms: N_6  and  C_7
REMARK    2  A    between atoms: C_7  and  C_8
REMARK    3  A    between atoms: N_15  and  C_16
REMARK    4  A    between atoms: C_16  and  C_17
REMARK                            x       y       z     vdW  Elec       q    Type
REMARK                         _______ _______ _______ _____ _____    ______ ____
ROOT
ATOM      1  C   UNL     1       2.450   5.638  17.924  0.00  0.00    +0.000 A 
ATOM      2  N   UNL     1       2.322   6.943  18.058  0.00  0.00    +0.000 NA
ATOM      3  N   UNL     1       3.546   7.519  17.844  0.00  0.00    +0.000 NA
ATOM      4  C   UNL     1       4.415   6.564  17.579  0.00  0.00    +0.000 A 
ATOM      5  N   UNL     1       3.747   5.363  17.557  0.00  0.00    +0.000 N 
ATOM      6  C   UNL     1       4.291   4.073  17.185  0.00  0.00    +0.000 C 
ATOM      7  C   UNL     1       5.247   4.157  15.986  0.00  0.00    +0.000 C 
ATOM      8  N   UNL     1       6.633   4.574  16.285  0.00  0.00    +0.000 NA
ATOM      9  C   UNL     1       6.747   5.534  17.400  0.00  0.00    +0.000 C 
ATOM     10  C   UNL     1       5.868   6.786  17.329  0.00  0.00    +0.000 C 
ENDROOT
BRANCH   1  11
ATOM     11  C   UNL     1       1.382   4.631  18.179  0.00  0.00    +0.000 C 
BRANCH  11  17
ATOM     12  O   UNL     1       1.206   1.802  18.963  0.00  0.00    +0.000 OA
ATOM     13  C   UNL     1       1.417   2.692  19.771  0.00  0.00    +0.000 C 
ATOM     14  C   UNL     1       1.539   2.523  21.263  0.00  0.00    +0.000 C 
ATOM     15  C   UNL     1       2.268   3.794  21.683  0.00  0.00    +0.000 C 
ATOM     16  C   UNL     1       1.796   4.830  20.678  0.00  0.00    +0.000 C 
ATOM     17  N   UNL     1       1.518   4.044  19.499  0.00  0.00    +0.000 N 
ENDBRANCH  11  17
ENDBRANCH   1  11
BRANCH   8  18
ATOM     18  C   UNL     1       7.307   5.096  15.073  0.00  0.00    +0.000 C 
BRANCH  18  19
ATOM     19  C   UNL     1       6.867   4.441  13.808  0.00  0.00    +0.000 A 
ATOM     20  C   UNL     1       5.879   3.530  13.495  0.00  0.00    +0.000 A 
ATOM     21  C   UNL     1       5.993   3.277  12.107  0.00  0.00    +0.000 A 
ATOM     22  C   UNL     1       7.039   4.050  11.660  0.00  0.00    +0.000 A 
ATOM     23  O   UNL     1       7.572   4.763  12.684  0.00  0.00    +0.000 OA
ENDBRANCH  18  19
ENDBRANCH   8  18
TORSDOF 4
ENDMDL
MODEL 6
REMARK VINA RESULT:      -6.8      4.057      6.292
REMARK  Name = 
REMARK  4 active torsions:
REMARK  status: ('A' for Active; 'I' for Inactive)
REMARK    1  A    between atoms: N_6  and  C_7
REMARK    2  A    between atoms: C_7  and  C_8
REMARK    3  A    between atoms: N_15  and  C_16
REMARK    4  A    between atoms: C_16  and  C_17
REMARK                            x       y       z     vdW  Elec       q    Type
REMARK                         _______ _______ _______ _____ _____    ______ ____
ROOT
ATOM      1  C   UNL     1       2.986   6.068  18.764  0.00  0.00    +0.000 A 
ATOM      2  N   UNL     1       2.722   5.237  19.753  0.00  0.00    +0.000 NA
ATOM      3  N   UNL     1       1.993   5.911  20.697  0.00  0.00    +0.000 NA
ATOM      4  C   UNL     1       1.815   7.149  20.280  0.00  0.00    +0.000 A 
ATOM      5  N   UNL     1       2.375   7.270  19.030  0.00  0.00    +0.000 N 
ATOM      6  C   UNL     1       2.301   8.422  18.154  0.00  0.00    +0.000 C 
ATOM      7  C   UNL     1       0.920   9.092  18.172  0.00  0.00    +0.000 C 
ATOM      8  N   UNL     1       0.660  10.019  19.292  0.00  0.00    +0.000 NA
ATOM      9  C   UNL     1       1.322   9.641  20.556  0.00  0.00    +0.000 C 
ATOM     10  C   UNL     1       1.103   8.208  21.050  0.00  0.00    +0.000 C 
ENDROOT
BRANCH   1  11
ATOM     11  C   UNL     1       3.848   5.767  17.586  0.00  0.00    +0.000 C 
BRANCH  11  17
ATOM     12  O   UNL     1       5.774   4.140  19.099  0.00  0.00    +0.000 OA
ATOM     13  C   UNL     1       6.075   5.211  18.600  0.00  0.00    +0.000 C 
ATOM     14  C   UNL     1       7.406   5.906  18.728  0.00  0.00    +0.000 C 
ATOM     15  C   UNL     1       7.387   6.880  17.555  0.00  0.00    +0.000 C 
ATOM     16  C   UNL     1       5.917   7.229  17.400  0.00  0.00    +0.000 C 
ATOM     17  N   UNL     1       5.243   6.043  17.872  0.00  0.00    +0.000 N 
ENDBRANCH  11  17
ENDBRANCH   1  11
BRANCH   8  18
ATOM     18  C   UNL     1      -0.795  10.211  19.501  0.00  0.00    +0.000 C 
BRANCH  18  19
ATOM     19  C   UNL     1      -1.551  10.495  18.247  0.00  0.00    +0.000 A 
ATOM     20  C   UNL     1      -1.662  11.596  17.424  0.00  0.00    +0.000 A 
ATOM     21  C   UNL     1      -2.570  11.240  16.399  0.00  0.00    +0.000 A 
ATOM     22  C   UNL     1      -2.954   9.945  16.658  0.00  0.00    +0.000 A 
ATOM     23  O   UNL     1      -2.337   9.482  17.774  0.00  0.00    +0.000 OA
ENDBRANCH  18  19
ENDBRANCH   8  18
TORSDOF 4
ENDMDL
MODEL 7
REMARK VINA RESULT:      -6.6      4.160      7.770
REMARK  Name = 
REMARK  4 active torsions:
REMARK  status: ('A' for Active; 'I' for Inactive)
REMARK    1  A    between atoms: N_6  and  C_7
REMARK    2  A    between atoms: C_7  and  C_8
REMARK    3  A    between atoms: N_15  and  C_16
REMARK    4  A    between atoms: C_16  and  C_17
REMARK                            x       y       z     vdW  Elec       q    Type
REMARK                         _______ _______ _______ _____ _____    ______ ____
ROOT
ATOM      1  C   UNL     1       1.416   9.073  19.532  0.00  0.00    +0.000 A 
ATOM      2  N   UNL     1       1.046   9.141  20.796  0.00  0.00    +0.000 NA
ATOM      3  N   UNL     1       1.175   7.894  21.348  0.00  0.00    +0.000 NA
ATOM      4  C   UNL     1       1.622   7.071  20.420  0.00  0.00    +0.000 A 
ATOM      5  N   UNL     1       1.849   7.794  19.273  0.00  0.00    +0.000 N 
ATOM      6  C   UNL     1       2.456   7.312  18.049  0.00  0.00    +0.000 C 
ATOM      7  C   UNL     1       3.637   6.365  18.307  0.00  0.00    +0.000 C 
ATOM      8  N   UNL     1       3.292   4.959  18.603  0.00  0.00    +0.000 NA
ATOM      9  C   UNL     1       2.025   4.790  19.340  0.00  0.00    +0.000 C 
ATOM     10  C   UNL     1       1.854   5.613  20.622  0.00  0.00    +0.000 C 
ENDROOT
BRANCH   1  11
ATOM     11  C   UNL     1       1.326  10.183  18.542  0.00  0.00    +0.000 C 
BRANCH  11  17
ATOM     12  O   UNL     1       0.329  12.687  19.717  0.00  0.00    +0.000 OA
ATOM     13  C   UNL     1      -0.390  11.931  19.084  0.00  0.00    +0.000 C 
ATOM     14  C   UNL     1      -1.872  12.092  18.866  0.00  0.00    +0.000 C 
ATOM     15  C   UNL     1      -2.128  11.202  17.655  0.00  0.00    +0.000 C 
ATOM     16  C   UNL     1      -1.101  10.093  17.798  0.00  0.00    +0.000 C 
ATOM     17  N   UNL     1      -0.013  10.738  18.494  0.00  0.00    +0.000 N 
ENDBRANCH  11  17
ENDBRANCH   1  11
BRANCH   8  18
ATOM     18  C   UNL     1       4.402   4.273  19.307  0.00  0.00    +0.000 C 
BRANCH  18  19
ATOM     19  C   UNL     1       5.758   4.707  18.861  0.00  0.00    +0.000 A 
ATOM     20  C   UNL     1       6.466   4.579  17.685  0.00  0.00    +0.000 A 
ATOM     21  C   UNL     1       7.725   5.184  17.907  0.00  0.00    +0.000 A 
ATOM     22  C   UNL     1       7.706   5.647  19.202  0.00  0.00    +0.000 A 
ATOM     23  O   UNL     1       6.515   5.367  19.788  0.00  0.00    +0.000 OA
ENDBRANCH  18  19
ENDBRANCH   8  18
TORSDOF 4
ENDMDL
MODEL 8
REMARK VINA RESULT:      -6.6      5.369      7.099
REMARK  Name = 
REMARK  4 active torsions:
REMARK  status: ('A' for Active; 'I' for Inactive)
REMARK    1  A    between atoms: N_6  and  C_7
REMARK    2  A    between atoms: C_7  and  C_8
REMARK    3  A    between atoms: N_15  and  C_16
REMARK    4  A    between atoms: C_16  and  C_17
REMARK                            x       y       z     vdW  Elec       q    Type
REMARK                         _______ _______ _______ _____ _____    ______ ____
ROOT
ATOM      1  C   UNL     1       2.535   7.423  18.988  0.00  0.00    +0.000 A 
ATOM      2  N   UNL     1       2.911   7.866  17.805  0.00  0.00    +0.000 NA
ATOM      3  N   UNL     1       2.222   9.020  17.539  0.00  0.00    +0.000 NA
ATOM      4  C   UNL     1       1.430   9.277  18.561  0.00  0.00    +0.000 A 
ATOM      5  N   UNL     1       1.647   8.323  19.528  0.00  0.00    +0.000 N 
ATOM      6  C   UNL     1       1.080   8.294  20.861  0.00  0.00    +0.000 C 
ATOM      7  C   UNL     1       1.019   9.685  21.508  0.00  0.00    +0.000 C 
ATOM      8  N   UNL     1      -0.125  10.535  21.120  0.00  0.00    +0.000 NA
ATOM      9  C   UNL     1      -0.579  10.339  19.730  0.00  0.00    +0.000 C 
ATOM     10  C   UNL     1       0.487  10.429  18.634  0.00  0.00    +0.000 C 
ENDROOT
BRANCH   1  11
ATOM     11  C   UNL     1       2.963   6.138  19.608  0.00  0.00    +0.000 C 
BRANCH  11  17
ATOM     12  O   UNL     1       5.389   4.931  18.468  0.00  0.00    +0.000 OA
ATOM     13  C   UNL     1       4.269   4.582  18.136  0.00  0.00    +0.000 C 
ATOM     14  C   UNL     1       3.935   3.571  17.069  0.00  0.00    +0.000 C 
ATOM     15  C   UNL     1       2.505   3.177  17.420  0.00  0.00    +0.000 C 
ATOM     16  C   UNL     1       1.922   4.439  18.031  0.00  0.00    +0.000 C 
ATOM     17  N   UNL     1       3.073   5.087  18.615  0.00  0.00    +0.000 N 
ENDBRANCH  11  17
ENDBRANCH   1  11
BRANCH   8  18
ATOM     18  C   UNL     1       0.159  11.966  21.380  0.00  0.00    +0.000 C 
BRANCH  18  19
ATOM     19  C   UNL     1      -0.807  12.613  22.314  0.00  0.00    +0.000 A 
ATOM     20  C   UNL     1      -2.110  12.346  22.680  0.00  0.00    +0.000 A 
ATOM     21  C   UNL     1      -2.485  13.357  23.596  0.00  0.00    +0.000 A 
ATOM     22  C   UNL     1      -1.388  14.176  23.734  0.00  0.00    +0.000 A 
ATOM     23  O   UNL     1      -0.364  13.729  22.964  0.00  0.00    +0.000 OA
ENDBRANCH  18  19
ENDBRANCH   8  18
TORSDOF 4
ENDMDL
MODEL 9
REMARK VINA RESULT:      -6.6      5.098      7.398
REMARK  Name = 
REMARK  4 active torsions:
REMARK  status: ('A' for Active; 'I' for Inactive)
REMARK    1  A    between atoms: N_6  and  C_7
REMARK    2  A    between atoms: C_7  and  C_8
REMARK    3  A    between atoms: N_15  and  C_16
REMARK    4  A    between atoms: C_16  and  C_17
REMARK                            x       y       z     vdW  Elec       q    Type
REMARK                         _______ _______ _______ _____ _____    ______ ____
ROOT
ATOM      1  C   UNL     1       2.724   7.234  19.033  0.00  0.00    +0.000 A 
ATOM      2  N   UNL     1       3.061   7.649  17.829  0.00  0.00    +0.000 NA
ATOM      3  N   UNL     1       2.317   8.761  17.533  0.00  0.00    +0.000 NA
ATOM      4  C   UNL     1       1.530   9.019  18.558  0.00  0.00    +0.000 A 
ATOM      5  N   UNL     1       1.803   8.112  19.555  0.00  0.00    +0.000 N 
ATOM      6  C   UNL     1       1.259   8.107  20.898  0.00  0.00    +0.000 C 
ATOM      7  C   UNL     1       1.144   9.516  21.496  0.00  0.00    +0.000 C 
ATOM      8  N   UNL     1      -0.043  10.299  21.096  0.00  0.00    +0.000 NA
ATOM      9  C   UNL     1      -0.508  10.032  19.722  0.00  0.00    +0.000 C 
ATOM     10  C   UNL     1       0.536  10.129  18.605  0.00  0.00    +0.000 C 
ENDROOT
BRANCH   1  11
ATOM     11  C   UNL     1       3.218   5.992  19.692  0.00  0.00    +0.000 C 
BRANCH  11  17
ATOM     12  O   UNL     1       0.829   4.422  20.380  0.00  0.00    +0.000 OA
ATOM     13  C   UNL     1       1.553   4.131  19.442  0.00  0.00    +0.000 C 
ATOM     14  C   UNL     1       1.411   2.923  18.554  0.00  0.00    +0.000 C 
ATOM     15  C   UNL     1       2.218   3.319  17.322  0.00  0.00    +0.000 C 
ATOM     16  C   UNL     1       3.310   4.215  17.878  0.00  0.00    +0.000 C 
ATOM     17  N   UNL     1       2.692   4.807  19.042  0.00  0.00    +0.000 N 
ENDBRANCH  11  17
ENDBRANCH   1  11
BRANCH   8  18
ATOM     18  C   UNL     1       0.180  11.750  21.300  0.00  0.00    +0.000 C 
BRANCH  18  19
ATOM     19  C   UNL     1      -0.823  12.394  22.197  0.00  0.00    +0.000 A 
ATOM     20  C   UNL     1      -0.879  13.603  22.858  0.00  0.00    +0.000 A 
ATOM     21  C   UNL     1      -2.095  13.608  23.582  0.00  0.00    +0.000 A 
ATOM     22  C   UNL     1      -2.706  12.404  23.315  0.00  0.00    +0.000 A 
ATOM     23  O   UNL     1      -1.944  11.663  22.472  0.00  0.00    +0.000 OA
ENDBRANCH  18  19
ENDBRANCH   8  18
TORSDOF 4
ENDMDL
