MODEL 1
REMARK VINA RESULT:      -8.6      0.000      0.000
REMARK  Name = 
REMARK  5 active torsions:
REMARK  status: ('A' for Active; 'I' for Inactive)
REMARK    1  A    between atoms: C_1  and  C_2
REMARK    2  A    between atoms: C_2  and  O_3
REMARK    3  A    between atoms: O_3  and  C_4
REMARK    4  A    between atoms: C_7  and  C_8
REMARK    5  A    between atoms: N_13  and  C_14
REMARK                            x       y       z     vdW  Elec       q    Type
REMARK                         _______ _______ _______ _____ _____    ______ ____
ROOT
ATOM      1  C   UNL     1       2.482   4.009  18.608  0.00  0.00    +0.000 C 
ATOM      2  C   UNL     1       1.809   2.920  19.456  0.00  0.00    +0.000 C 
ATOM      3  N   UNL     1       2.867   2.472  20.319  0.00  0.00    +0.000 N 
ATOM      4  C   UNL     1       4.103   2.751  19.750  0.00  0.00    +0.000 C 
ATOM      5  O   UNL     1       5.148   2.314  20.202  0.00  0.00    +0.000 OA
ATOM      6  N   UNL     1       3.885   3.606  18.649  0.00  0.00    +0.000 N 
ATOM      7  H   UNL     1       2.796   1.810  21.080  0.00  0.00    +0.000 HD
ENDROOT
BRANCH   6   8
ATOM      8  C   UNL     1       4.868   4.056  17.737  0.00  0.00    +0.000 A 
ATOM      9  C   UNL     1       5.976   4.789  18.195  0.00  0.00    +0.000 A 
ATOM     10  C   UNL     1       6.986   5.229  17.326  0.00  0.00    +0.000 A 
ATOM     11  C   UNL     1       6.865   4.950  15.962  0.00  0.00    +0.000 A 
ATOM     12  N   UNL     1       7.696   5.269  14.918  0.00  0.00    +0.000 NA
ATOM     13  C   UNL     1       7.107   4.784  13.850  0.00  0.00    +0.000 A 
ATOM     14  N   UNL     1       5.928   4.168  14.157  0.00  0.00    +0.000 N 
ATOM     15  C   UNL     1       5.760   4.235  15.515  0.00  0.00    +0.000 A 
ATOM     16  C   UNL     1       4.760   3.752  16.367  0.00  0.00    +0.000 A 
ATOM     17  H   UNL     1       5.292   3.741  13.499  0.00  0.00    +0.000 HD
ENDBRANCH   6   8
BRANCH   1  21
ATOM     18  C   UNL     1       1.691   7.956  20.231  0.00  0.00    +0.000 A 
ATOM     19  C   UNL     1       1.433   6.823  20.997  0.00  0.00    +0.000 A 
ATOM     20  C   UNL     1       1.694   5.557  20.487  0.00  0.00    +0.000 A 
ATOM     21  C   UNL     1       2.208   5.390  19.194  0.00  0.00    +0.000 A 
ATOM     22  C   UNL     1       2.450   6.539  18.421  0.00  0.00    +0.000 A 
ATOM     23  C   UNL     1       2.190   7.812  18.935  0.00  0.00    +0.000 A 
BRANCH  18  24
ATOM     24  O   UNL     1       1.410   9.148  20.837  0.00  0.00    +0.000 OA
BRANCH  24  26
ATOM     25  C   UNL     1      -0.107   9.779  22.556  0.00  0.00    +0.000 C 
ATOM     26  C   UNL     1       1.207   9.089  22.248  0.00  0.00    +0.000 C 
ENDBRANCH  24  26
ENDBRANCH  18  24
ENDBRANCH   1  21
TORSDOF 4
ENDMDL
MODEL 2
REMARK VINA RESULT:      -8.4      2.630      6.629
REMARK  Name = 
REMARK  5 active torsions:
REMARK  status: ('A' for Active; 'I' for Inactive)
REMARK    1  A    between atoms: C_1  and  C_2
REMARK    2  A    between atoms: C_2  and  O_3
REMARK    3  A    between atoms: O_3  and  C_4
REMARK    4  A    between atoms: C_7  and  C_8
REMARK    5  A    between atoms: N_13  and  C_14
REMARK                            x       y       z     vdW  Elec       q    Type
REMARK                         _______ _______ _______ _____ _____    ______ ____
ROOT
ATOM      1  C   UNL     1       4.227   3.885  19.158  0.00  0.00    +0.000 C 
ATOM      2  C   UNL     1       4.054   2.362  19.242  0.00  0.00    +0.000 C 
ATOM      3  N   UNL     1       2.836   2.127  18.517  0.00  0.00    +0.000 N 
ATOM      4  C   UNL     1       2.057   3.277  18.501  0.00  0.00    +0.000 C 
ATOM      5  O   UNL     1       0.905   3.284  18.102  0.00  0.00    +0.000 OA
ATOM      6  N   UNL     1       2.852   4.340  18.977  0.00  0.00    +0.000 N 
ATOM      7  H   UNL     1       2.426   1.233  18.284  0.00  0.00    +0.000 HD
ENDROOT
BRANCH   6   8
ATOM      8  C   UNL     1       2.417   5.667  19.209  0.00  0.00    +0.000 A 
ATOM      9  C   UNL     1       1.912   6.036  20.467  0.00  0.00    +0.000 A 
ATOM     10  C   UNL     1       1.497   7.348  20.743  0.00  0.00    +0.000 A 
ATOM     11  C   UNL     1       1.565   8.302  19.725  0.00  0.00    +0.000 A 
ATOM     12  N   UNL     1       1.221   9.630  19.733  0.00  0.00    +0.000 NA
ATOM     13  C   UNL     1       1.469  10.057  18.517  0.00  0.00    +0.000 A 
ATOM     14  N   UNL     1       1.956   9.061  17.721  0.00  0.00    +0.000 N 
ATOM     15  C   UNL     1       2.055   7.925  18.479  0.00  0.00    +0.000 A 
ATOM     16  C   UNL     1       2.512   6.634  18.191  0.00  0.00    +0.000 A 
ATOM     17  H   UNL     1       2.198   9.147  16.744  0.00  0.00    +0.000 HD
ENDBRANCH   6   8
BRANCH   1  21
ATOM     18  C   UNL     1       6.941   4.924  15.934  0.00  0.00    +0.000 A 
ATOM     19  C   UNL     1       5.654   4.477  15.646  0.00  0.00    +0.000 A 
ATOM     20  C   UNL     1       4.778   4.154  16.674  0.00  0.00    +0.000 A 
ATOM     21  C   UNL     1       5.167   4.255  18.016  0.00  0.00    +0.000 A 
ATOM     22  C   UNL     1       6.474   4.691  18.298  0.00  0.00    +0.000 A 
ATOM     23  C   UNL     1       7.355   5.019  17.263  0.00  0.00    +0.000 A 
BRANCH  18  24
ATOM     24  O   UNL     1       7.712   5.227  14.847  0.00  0.00    +0.000 OA
BRANCH  24  26
ATOM     25  C   UNL     1       7.964   5.503  12.499  0.00  0.00    +0.000 C 
ATOM     26  C   UNL     1       7.214   4.767  13.592  0.00  0.00    +0.000 C 
ENDBRANCH  24  26
ENDBRANCH  18  24
ENDBRANCH   1  21
TORSDOF 4
ENDMDL
MODEL 3
REMARK VINA RESULT:      -8.4      0.316      1.042
REMARK  Name = 
REMARK  5 active torsions:
REMARK  status: ('A' for Active; 'I' for Inactive)
REMARK    1  A    between atoms: C_1  and  C_2
REMARK    2  A    between atoms: C_2  and  O_3
REMARK    3  A    between atoms: O_3  and  C_4
REMARK    4  A    between atoms: C_7  and  C_8
REMARK    5  A    between atoms: N_13  and  C_14
REMARK                            x       y       z     vdW  Elec       q    Type
REMARK                         _______ _______ _______ _____ _____    ______ ____
ROOT
ATOM      1  C   UNL     1       2.480   3.974  18.595  0.00  0.00    +0.000 C 
ATOM      2  C   UNL     1       1.820   2.864  19.426  0.00  0.00    +0.000 C 
ATOM      3  N   UNL     1       2.882   2.417  20.284  0.00  0.00    +0.000 N 
ATOM      4  C   UNL     1       4.115   2.721  19.720  0.00  0.00    +0.000 C 
ATOM      5  O   UNL     1       5.165   2.291  20.168  0.00  0.00    +0.000 OA
ATOM      6  N   UNL     1       3.887   3.589  18.633  0.00  0.00    +0.000 N 
ATOM      7  H   UNL     1       2.819   1.742  21.034  0.00  0.00    +0.000 HD
ENDROOT
BRANCH   6   8
ATOM      8  C   UNL     1       4.866   4.066  17.729  0.00  0.00    +0.000 A 
ATOM      9  C   UNL     1       5.926   4.864  18.191  0.00  0.00    +0.000 A 
ATOM     10  C   UNL     1       6.932   5.333  17.330  0.00  0.00    +0.000 A 
ATOM     11  C   UNL     1       6.853   5.017  15.972  0.00  0.00    +0.000 A 
ATOM     12  N   UNL     1       7.688   5.352  14.937  0.00  0.00    +0.000 NA
ATOM     13  C   UNL     1       7.146   4.813  13.869  0.00  0.00    +0.000 A 
ATOM     14  N   UNL     1       5.993   4.146  14.169  0.00  0.00    +0.000 N 
ATOM     15  C   UNL     1       5.793   4.237  15.521  0.00  0.00    +0.000 A 
ATOM     16  C   UNL     1       4.801   3.725  16.365  0.00  0.00    +0.000 A 
ATOM     17  H   UNL     1       5.392   3.673  13.510  0.00  0.00    +0.000 HD
ENDBRANCH   6   8
BRANCH   1  21
ATOM     18  C   UNL     1       1.652   7.850  20.365  0.00  0.00    +0.000 A 
ATOM     19  C   UNL     1       2.187   7.769  19.082  0.00  0.00    +0.000 A 
ATOM     20  C   UNL     1       2.445   6.531  18.507  0.00  0.00    +0.000 A 
ATOM     21  C   UNL     1       2.186   5.342  19.201  0.00  0.00    +0.000 A 
ATOM     22  C   UNL     1       1.660   5.433  20.502  0.00  0.00    +0.000 A 
ATOM     23  C   UNL     1       1.399   6.678  21.080  0.00  0.00    +0.000 A 
BRANCH  18  24
ATOM     24  O   UNL     1       1.426   9.116  20.826  0.00  0.00    +0.000 OA
BRANCH  24  26
ATOM     25  C   UNL     1      -0.036   9.657  22.621  0.00  0.00    +0.000 C 
ATOM     26  C   UNL     1       0.068   9.430  21.126  0.00  0.00    +0.000 C 
ENDBRANCH  24  26
ENDBRANCH  18  24
ENDBRANCH   1  21
TORSDOF 4
ENDMDL
MODEL 4
REMARK VINA RESULT:      -8.3      3.154      7.464
REMARK  Name = 
REMARK  5 active torsions:
REMARK  status: ('A' for Active; 'I' for Inactive)
REMARK    1  A    between atoms: C_1  and  C_2
REMARK    2  A    between atoms: C_2  and  O_3
REMARK    3  A    between atoms: O_3  and  C_4
REMARK    4  A    between atoms: C_7  and  C_8
REMARK    5  A    between atoms: N_13  and  C_14
REMARK                            x       y       z     vdW  Elec       q    Type
REMARK                         _______ _______ _______ _____ _____    ______ ____
ROOT
ATOM      1  C   UNL     1       5.777   6.376  17.269  0.00  0.00    +0.000 C 
ATOM      2  C   UNL     1       6.887   7.422  17.447  0.00  0.00    +0.000 C 
ATOM      3  N   UNL     1       7.811   6.776  18.338  0.00  0.00    +0.000 N 
ATOM      4  C   UNL     1       7.162   5.792  19.073  0.00  0.00    +0.000 C 
ATOM      5  O   UNL     1       7.685   5.225  20.017  0.00  0.00    +0.000 OA
ATOM      6  N   UNL     1       5.887   5.601  18.501  0.00  0.00    +0.000 N 
ATOM      7  H   UNL     1       8.715   7.118  18.634  0.00  0.00    +0.000 HD
ENDROOT
BRANCH   6   8
ATOM      8  C   UNL     1       4.868   4.755  19.000  0.00  0.00    +0.000 A 
ATOM      9  C   UNL     1       4.968   3.361  18.848  0.00  0.00    +0.000 A 
ATOM     10  C   UNL     1       3.993   2.488  19.355  0.00  0.00    +0.000 A 
ATOM     11  C   UNL     1       2.880   3.029  20.002  0.00  0.00    +0.000 A 
ATOM     12  N   UNL     1       1.799   2.405  20.572  0.00  0.00    +0.000 NA
ATOM     13  C   UNL     1       1.041   3.376  21.026  0.00  0.00    +0.000 A 
ATOM     14  N   UNL     1       1.584   4.602  20.772  0.00  0.00    +0.000 N 
ATOM     15  C   UNL     1       2.782   4.409  20.138  0.00  0.00    +0.000 A 
ATOM     16  C   UNL     1       3.760   5.298  19.677  0.00  0.00    +0.000 A 
ATOM     17  H   UNL     1       1.173   5.494  21.008  0.00  0.00    +0.000 HD
ENDBRANCH   6   8
BRANCH   1  21
ATOM     18  C   UNL     1       6.372   4.082  13.633  0.00  0.00    +0.000 A 
ATOM     19  C   UNL     1       7.412   4.851  14.150  0.00  0.00    +0.000 A 
ATOM     20  C   UNL     1       7.230   5.579  15.319  0.00  0.00    +0.000 A 
ATOM     21  C   UNL     1       6.003   5.568  15.996  0.00  0.00    +0.000 A 
ATOM     22  C   UNL     1       4.954   4.802  15.458  0.00  0.00    +0.000 A 
ATOM     23  C   UNL     1       5.137   4.067  14.283  0.00  0.00    +0.000 A 
BRANCH  18  24
ATOM     24  O   UNL     1       6.667   3.396  12.488  0.00  0.00    +0.000 OA
BRANCH  24  26
ATOM     25  C   UNL     1       6.101   1.457  11.234  0.00  0.00    +0.000 C 
ATOM     26  C   UNL     1       5.569   2.725  11.873  0.00  0.00    +0.000 C 
ENDBRANCH  24  26
ENDBRANCH  18  24
ENDBRANCH   1  21
TORSDOF 4
ENDMDL
MODEL 5
REMARK VINA RESULT:      -8.2      2.620      6.870
REMARK  Name = 
REMARK  5 active torsions:
REMARK  status: ('A' for Active; 'I' for Inactive)
REMARK    1  A    between atoms: C_1  and  C_2
REMARK    2  A    between atoms: C_2  and  O_3
REMARK    3  A    between atoms: O_3  and  C_4
REMARK    4  A    between atoms: C_7  and  C_8
REMARK    5  A    between atoms: N_13  and  C_14
REMARK                            x       y       z     vdW  Elec       q    Type
REMARK                         _______ _______ _______ _____ _____    ______ ____
ROOT
ATOM      1  C   UNL     1       4.301   4.100  19.498  0.00  0.00    +0.000 C 
ATOM      2  C   UNL     1       4.127   2.602  19.789  0.00  0.00    +0.000 C 
ATOM      3  N   UNL     1       2.898   2.276  19.120  0.00  0.00    +0.000 N 
ATOM      4  C   UNL     1       2.121   3.416  18.960  0.00  0.00    +0.000 C 
ATOM      5  O   UNL     1       0.963   3.373  18.580  0.00  0.00    +0.000 OA
ATOM      6  N   UNL     1       2.924   4.531  19.277  0.00  0.00    +0.000 N 
ATOM      7  H   UNL     1       2.484   1.360  19.015  0.00  0.00    +0.000 HD
ENDROOT
BRANCH   6   8
ATOM      8  C   UNL     1       2.495   5.878  19.334  0.00  0.00    +0.000 A 
ATOM      9  C   UNL     1       2.590   6.699  18.198  0.00  0.00    +0.000 A 
ATOM     10  C   UNL     1       2.149   8.032  18.206  0.00  0.00    +0.000 A 
ATOM     11  C   UNL     1       1.626   8.557  19.390  0.00  0.00    +0.000 A 
ATOM     12  N   UNL     1       1.140   9.811  19.662  0.00  0.00    +0.000 NA
ATOM     13  C   UNL     1       0.791   9.778  20.927  0.00  0.00    +0.000 A 
ATOM     14  N   UNL     1       1.034   8.557  21.487  0.00  0.00    +0.000 N 
ATOM     15  C   UNL     1       1.546   7.742  20.514  0.00  0.00    +0.000 A 
ATOM     16  C   UNL     1       1.943   6.399  20.519  0.00  0.00    +0.000 A 
ATOM     17  H   UNL     1       0.868   8.302  22.450  0.00  0.00    +0.000 HD
ENDBRANCH   6   8
BRANCH   1  21
ATOM     18  C   UNL     1       6.969   4.689  16.126  0.00  0.00    +0.000 A 
ATOM     19  C   UNL     1       5.709   4.132  15.929  0.00  0.00    +0.000 A 
ATOM     20  C   UNL     1       4.847   3.951  17.003  0.00  0.00    +0.000 A 
ATOM     21  C   UNL     1       5.225   4.310  18.303  0.00  0.00    +0.000 A 
ATOM     22  C   UNL     1       6.506   4.857  18.496  0.00  0.00    +0.000 A 
ATOM     23  C   UNL     1       7.372   5.041  17.415  0.00  0.00    +0.000 A 
BRANCH  18  24
ATOM     24  O   UNL     1       7.727   4.834  14.998  0.00  0.00    +0.000 OA
BRANCH  24  26
ATOM     25  C   UNL     1       7.904   5.338  12.681  0.00  0.00    +0.000 C 
ATOM     26  C   UNL     1       7.017   4.756  13.764  0.00  0.00    +0.000 C 
ENDBRANCH  24  26
ENDBRANCH  18  24
ENDBRANCH   1  21
TORSDOF 4
ENDMDL
MODEL 6
REMARK VINA RESULT:      -8.1      2.851      7.345
REMARK  Name = 
REMARK  5 active torsions:
REMARK  status: ('A' for Active; 'I' for Inactive)
REMARK    1  A    between atoms: C_1  and  C_2
REMARK    2  A    between atoms: C_2  and  O_3
REMARK    3  A    between atoms: O_3  and  C_4
REMARK    4  A    between atoms: C_7  and  C_8
REMARK    5  A    between atoms: N_13  and  C_14
REMARK                            x       y       z     vdW  Elec       q    Type
REMARK                         _______ _______ _______ _____ _____    ______ ____
ROOT
ATOM      1  C   UNL     1       5.822   6.497  17.080  0.00  0.00    +0.000 C 
ATOM      2  C   UNL     1       7.087   7.308  17.399  0.00  0.00    +0.000 C 
ATOM      3  N   UNL     1       7.750   6.510  18.392  0.00  0.00    +0.000 N 
ATOM      4  C   UNL     1       6.835   5.688  19.038  0.00  0.00    +0.000 C 
ATOM      5  O   UNL     1       7.119   5.046  20.036  0.00  0.00    +0.000 OA
ATOM      6  N   UNL     1       5.627   5.739  18.312  0.00  0.00    +0.000 N 
ATOM      7  H   UNL     1       8.661   6.674  18.799  0.00  0.00    +0.000 HD
ENDROOT
BRANCH   6   8
ATOM      8  C   UNL     1       4.409   5.119  18.679  0.00  0.00    +0.000 A 
ATOM      9  C   UNL     1       3.398   5.864  19.309  0.00  0.00    +0.000 A 
ATOM     10  C   UNL     1       2.166   5.292  19.663  0.00  0.00    +0.000 A 
ATOM     11  C   UNL     1       1.957   3.935  19.402  0.00  0.00    +0.000 A 
ATOM     12  N   UNL     1       0.863   3.146  19.652  0.00  0.00    +0.000 NA
ATOM     13  C   UNL     1       1.198   1.950  19.225  0.00  0.00    +0.000 A 
ATOM     14  N   UNL     1       2.463   1.931  18.714  0.00  0.00    +0.000 N 
ATOM     15  C   UNL     1       2.967   3.202  18.789  0.00  0.00    +0.000 A 
ATOM     16  C   UNL     1       4.188   3.759  18.391  0.00  0.00    +0.000 A 
ATOM     17  H   UNL     1       2.943   1.122  18.348  0.00  0.00    +0.000 HD
ENDBRANCH   6   8
BRANCH   1  21
ATOM     18  C   UNL     1       6.387   4.053  13.538  0.00  0.00    +0.000 A 
ATOM     19  C   UNL     1       7.450   4.792  14.052  0.00  0.00    +0.000 A 
ATOM     20  C   UNL     1       7.277   5.568  15.191  0.00  0.00    +0.000 A 
ATOM     21  C   UNL     1       6.037   5.636  15.840  0.00  0.00    +0.000 A 
ATOM     22  C   UNL     1       4.966   4.899  15.305  0.00  0.00    +0.000 A 
ATOM     23  C   UNL     1       5.140   4.117  14.160  0.00  0.00    +0.000 A 
BRANCH  18  24
ATOM     24  O   UNL     1       6.673   3.316  12.423  0.00  0.00    +0.000 OA
BRANCH  24  26
ATOM     25  C   UNL     1       6.107   1.365  11.187  0.00  0.00    +0.000 C 
ATOM     26  C   UNL     1       5.570   2.622  11.843  0.00  0.00    +0.000 C 
ENDBRANCH  24  26
ENDBRANCH  18  24
ENDBRANCH   1  21
TORSDOF 4
ENDMDL
MODEL 7
REMARK VINA RESULT:      -8.0      2.742      6.929
REMARK  Name = 
REMARK  5 active torsions:
REMARK  status: ('A' for Active; 'I' for Inactive)
REMARK    1  A    between atoms: C_1  and  C_2
REMARK    2  A    between atoms: C_2  and  O_3
REMARK    3  A    between atoms: O_3  and  C_4
REMARK    4  A    between atoms: C_7  and  C_8
REMARK    5  A    between atoms: N_13  and  C_14
REMARK                            x       y       z     vdW  Elec       q    Type
REMARK                         _______ _______ _______ _____ _____    ______ ____
ROOT
ATOM      1  C   UNL     1       4.410   4.468  19.381  0.00  0.00    +0.000 C 
ATOM      2  C   UNL     1       4.306   2.967  19.689  0.00  0.00    +0.000 C 
ATOM      3  N   UNL     1       3.065   2.587  19.072  0.00  0.00    +0.000 N 
ATOM      4  C   UNL     1       2.238   3.695  18.936  0.00  0.00    +0.000 C 
ATOM      5  O   UNL     1       1.068   3.604  18.605  0.00  0.00    +0.000 OA
ATOM      6  N   UNL     1       3.009   4.843  19.213  0.00  0.00    +0.000 N 
ATOM      7  H   UNL     1       2.683   1.655  18.991  0.00  0.00    +0.000 HD
ENDROOT
BRANCH   6   8
ATOM      8  C   UNL     1       2.530   6.172  19.278  0.00  0.00    +0.000 A 
ATOM      9  C   UNL     1       2.572   6.996  18.141  0.00  0.00    +0.000 A 
ATOM     10  C   UNL     1       2.081   8.311  18.158  0.00  0.00    +0.000 A 
ATOM     11  C   UNL     1       1.561   8.817  19.352  0.00  0.00    +0.000 A 
ATOM     12  N   UNL     1       1.033  10.052  19.633  0.00  0.00    +0.000 NA
ATOM     13  C   UNL     1       0.709  10.006  20.905  0.00  0.00    +0.000 A 
ATOM     14  N   UNL     1       1.009   8.796  21.459  0.00  0.00    +0.000 N 
ATOM     15  C   UNL     1       1.533   8.000  20.476  0.00  0.00    +0.000 A 
ATOM     16  C   UNL     1       1.981   6.673  20.474  0.00  0.00    +0.000 A 
ATOM     17  H   UNL     1       0.871   8.535  22.425  0.00  0.00    +0.000 HD
ENDBRANCH   6   8
BRANCH   1  21
ATOM     18  C   UNL     1       6.834   5.127  15.842  0.00  0.00    +0.000 A 
ATOM     19  C   UNL     1       7.109   5.824  17.015  0.00  0.00    +0.000 A 
ATOM     20  C   UNL     1       6.343   5.610  18.154  0.00  0.00    +0.000 A 
ATOM     21  C   UNL     1       5.275   4.703  18.148  0.00  0.00    +0.000 A 
ATOM     22  C   UNL     1       4.994   4.015  16.954  0.00  0.00    +0.000 A 
ATOM     23  C   UNL     1       5.766   4.229  15.809  0.00  0.00    +0.000 A 
BRANCH  18  24
ATOM     24  O   UNL     1       7.660   5.406  14.789  0.00  0.00    +0.000 OA
BRANCH  24  26
ATOM     25  C   UNL     1       8.028   5.575  12.446  0.00  0.00    +0.000 C 
ATOM     26  C   UNL     1       7.275   4.841  13.538  0.00  0.00    +0.000 C 
ENDBRANCH  24  26
ENDBRANCH  18  24
ENDBRANCH   1  21
TORSDOF 4
ENDMDL
MODEL 8
REMARK VINA RESULT:      -7.8      2.796      7.407
REMARK  Name = 
REMARK  5 active torsions:
REMARK  status: ('A' for Active; 'I' for Inactive)
REMARK    1  A    between atoms: C_1  and  C_2
REMARK    2  A    between atoms: C_2  and  O_3
REMARK    3  A    between atoms: O_3  and  C_4
REMARK    4  A    between atoms: C_7  and  C_8
REMARK    5  A    between atoms: N_13  and  C_14
REMARK                            x       y       z     vdW  Elec       q    Type
REMARK                         _______ _______ _______ _____ _____    ______ ____
ROOT
ATOM      1  C   UNL     1       5.989   6.607  17.317  0.00  0.00    +0.000 C 
ATOM      2  C   UNL     1       7.350   7.297  17.492  0.00  0.00    +0.000 C 
ATOM      3  N   UNL     1       8.017   6.472  18.461  0.00  0.00    +0.000 N 
ATOM      4  C   UNL     1       7.086   5.770  19.216  0.00  0.00    +0.000 C 
ATOM      5  O   UNL     1       7.392   5.139  20.214  0.00  0.00    +0.000 OA
ATOM      6  N   UNL     1       5.829   5.918  18.593  0.00  0.00    +0.000 N 
ATOM      7  H   UNL     1       8.972   6.556  18.782  0.00  0.00    +0.000 HD
ENDROOT
BRANCH   6   8
ATOM      8  C   UNL     1       4.593   5.438  19.087  0.00  0.00    +0.000 A 
ATOM      9  C   UNL     1       3.518   6.322  19.280  0.00  0.00    +0.000 A 
ATOM     10  C   UNL     1       2.268   5.880  19.742  0.00  0.00    +0.000 A 
ATOM     11  C   UNL     1       2.105   4.526  20.043  0.00  0.00    +0.000 A 
ATOM     12  N   UNL     1       1.006   3.851  20.511  0.00  0.00    +0.000 NA
ATOM     13  C   UNL     1       1.397   2.604  20.637  0.00  0.00    +0.000 A 
ATOM     14  N   UNL     1       2.703   2.444  20.275  0.00  0.00    +0.000 N 
ATOM     15  C   UNL     1       3.178   3.660  19.862  0.00  0.00    +0.000 A 
ATOM     16  C   UNL     1       4.421   4.069  19.365  0.00  0.00    +0.000 A 
ATOM     17  H   UNL     1       3.228   1.581  20.310  0.00  0.00    +0.000 HD
ENDBRANCH   6   8
BRANCH   1  21
ATOM     18  C   UNL     1       6.094   3.979  13.864  0.00  0.00    +0.000 A 
ATOM     19  C   UNL     1       4.972   4.002  14.689  0.00  0.00    +0.000 A 
ATOM     20  C   UNL     1       4.929   4.849  15.790  0.00  0.00    +0.000 A 
ATOM     21  C   UNL     1       6.009   5.685  16.102  0.00  0.00    +0.000 A 
ATOM     22  C   UNL     1       7.144   5.643  15.273  0.00  0.00    +0.000 A 
ATOM     23  C   UNL     1       7.187   4.793  14.165  0.00  0.00    +0.000 A 
BRANCH  18  24
ATOM     24  O   UNL     1       6.022   3.119  12.804  0.00  0.00    +0.000 OA
BRANCH  24  26
ATOM     25  C   UNL     1       7.214   1.960  11.104  0.00  0.00    +0.000 C 
ATOM     26  C   UNL     1       7.021   3.293  11.802  0.00  0.00    +0.000 C 
ENDBRANCH  24  26
ENDBRANCH  18  24
ENDBRANCH   1  21
TORSDOF 4
ENDMDL
MODEL 9
REMARK VINA RESULT:      -7.7      2.799      6.646
REMARK  Name = 
REMARK  5 active torsions:
REMARK  status: ('A' for Active; 'I' for Inactive)
REMARK    1  A    between atoms: C_1  and  C_2
REMARK    2  A    between atoms: C_2  and  O_3
REMARK    3  A    between atoms: O_3  and  C_4
REMARK    4  A    between atoms: C_7  and  C_8
REMARK    5  A    between atoms: N_13  and  C_14
REMARK                            x       y       z     vdW  Elec       q    Type
REMARK                         _______ _______ _______ _____ _____    ______ ____
ROOT
ATOM      1  C   UNL     1       4.276   4.533  19.425  0.00  0.00    +0.000 C 
ATOM      2  C   UNL     1       4.169   3.021  19.672  0.00  0.00    +0.000 C 
ATOM      3  N   UNL     1       2.928   2.670  19.040  0.00  0.00    +0.000 N 
ATOM      4  C   UNL     1       2.103   3.783  18.948  0.00  0.00    +0.000 C 
ATOM      5  O   UNL     1       0.933   3.708  18.612  0.00  0.00    +0.000 OA
ATOM      6  N   UNL     1       2.877   4.918  19.271  0.00  0.00    +0.000 N 
ATOM      7  H   UNL     1       2.544   1.742  18.920  0.00  0.00    +0.000 HD
ENDROOT
BRANCH   6   8
ATOM      8  C   UNL     1       2.400   6.245  19.390  0.00  0.00    +0.000 A 
ATOM      9  C   UNL     1       1.857   6.696  20.605  0.00  0.00    +0.000 A 
ATOM     10  C   UNL     1       1.400   8.013  20.770  0.00  0.00    +0.000 A 
ATOM     11  C   UNL     1       1.463   8.885  19.681  0.00  0.00    +0.000 A 
ATOM     12  N   UNL     1       1.081  10.199  19.578  0.00  0.00    +0.000 NA
ATOM     13  C   UNL     1       1.343  10.538  18.337  0.00  0.00    +0.000 A 
ATOM     14  N   UNL     1       1.875   9.498  17.631  0.00  0.00    +0.000 N 
ATOM     15  C   UNL     1       1.990   8.428  18.478  0.00  0.00    +0.000 A 
ATOM     16  C   UNL     1       2.489   7.132  18.301  0.00  0.00    +0.000 A 
ATOM     17  H   UNL     1       2.135   9.514  16.655  0.00  0.00    +0.000 HD
ENDBRANCH   6   8
BRANCH   1  21
ATOM     18  C   UNL     1       6.709   5.368  15.929  0.00  0.00    +0.000 A 
ATOM     19  C   UNL     1       7.316   5.075  17.147  0.00  0.00    +0.000 A 
ATOM     20  C   UNL     1       6.543   4.796  18.267  0.00  0.00    +0.000 A 
ATOM     21  C   UNL     1       5.143   4.816  18.203  0.00  0.00    +0.000 A 
ATOM     22  C   UNL     1       4.538   5.129  16.973  0.00  0.00    +0.000 A 
ATOM     23  C   UNL     1       5.317   5.407  15.846  0.00  0.00    +0.000 A 
BRANCH  18  24
ATOM     24  O   UNL     1       7.566   5.611  14.893  0.00  0.00    +0.000 OA
BRANCH  24  26
ATOM     25  C   UNL     1       8.070   5.532  12.570  0.00  0.00    +0.000 C 
ATOM     26  C   UNL     1       7.329   4.856  13.707  0.00  0.00    +0.000 C 
ENDBRANCH  24  26
ENDBRANCH  18  24
ENDBRANCH   1  21
TORSDOF 4
ENDMDL
