MODEL 1
REMARK VINA RESULT:      -5.8      0.000      0.000
REMARK  Name = 
REMARK  3 active torsions:
REMARK  status: ('A' for Active; 'I' for Inactive)
REMARK    1  A    between atoms: C_2  and  C_10
REMARK    2  A    between atoms: N_3  and  C_4
REMARK    3  A    between atoms: C_4  and  C_5
REMARK                            x       y       z     vdW  Elec       q    Type
REMARK                         _______ _______ _______ _____ _____    ______ ____
ROOT
ATOM      1  O   UNL     1       4.966   3.783  17.044  0.00  0.00    +0.000 OA
ATOM      2  C   UNL     1       5.542   4.208  18.047  0.00  0.00    +0.000 C 
ATOM      3  N   UNL     1       5.405   3.578  19.264  0.00  0.00    +0.000 N 
ATOM      4  H   UNL     1       5.771   4.033  20.090  0.00  0.00    +0.000 HD
ENDROOT
BRANCH   2   5
ATOM      5  C   UNL     1       6.389   5.392  18.011  0.00  0.00    +0.000 A 
ATOM      6  C   UNL     1       7.481   5.636  18.828  0.00  0.00    +0.000 A 
ATOM      7  C   UNL     1       8.098   6.891  18.568  0.00  0.00    +0.000 A 
ATOM      8  C   UNL     1       7.460   7.572  17.556  0.00  0.00    +0.000 A 
ATOM      9  S   UNL     1       6.134   6.692  16.925  0.00  0.00    +0.000 S 
ENDBRANCH   2   5
BRANCH   3  10
ATOM     10  C   UNL     1       4.526   2.443  19.410  0.00  0.00    +0.000 C 
BRANCH  10  11
ATOM     11  C   UNL     1       3.232   2.891  20.008  0.00  0.00    +0.000 A 
ATOM     12  C   UNL     1       2.785   2.557  21.331  0.00  0.00    +0.000 A 
ATOM     13  C   UNL     1       1.535   3.059  21.616  0.00  0.00    +0.000 A 
ATOM     14  S   UNL     1       0.884   3.933  20.301  0.00  0.00    +0.000 S 
ATOM     15  C   UNL     1       2.274   3.641  19.348  0.00  0.00    +0.000 A 
ENDBRANCH  10  11
ENDBRANCH   3  10
TORSDOF 3
ENDMDL
MODEL 2
REMARK VINA RESULT:      -5.7      2.339      2.873
REMARK  Name = 
REMARK  3 active torsions:
REMARK  status: ('A' for Active; 'I' for Inactive)
REMARK    1  A    between atoms: C_2  and  C_10
REMARK    2  A    between atoms: N_3  and  C_4
REMARK    3  A    between atoms: C_4  and  C_5
REMARK                            x       y       z     vdW  Elec       q    Type
REMARK                         _______ _______ _______ _____ _____    ______ ____
ROOT
ATOM      1  O   UNL     1       5.431   5.320  19.613  0.00  0.00    +0.000 OA
ATOM      2  C   UNL     1       4.883   5.536  18.532  0.00  0.00    +0.000 C 
ATOM      3  N   UNL     1       3.582   5.985  18.472  0.00  0.00    +0.000 N 
ATOM      4  H   UNL     1       3.119   6.011  17.574  0.00  0.00    +0.000 HD
ENDROOT
BRANCH   2   5
ATOM      5  C   UNL     1       5.565   5.327  17.262  0.00  0.00    +0.000 A 
ATOM      6  C   UNL     1       5.044   5.590  16.006  0.00  0.00    +0.000 A 
ATOM      7  C   UNL     1       5.944   5.263  14.954  0.00  0.00    +0.000 A 
ATOM      8  C   UNL     1       7.130   4.759  15.436  0.00  0.00    +0.000 A 
ATOM      9  S   UNL     1       7.152   4.693  17.147  0.00  0.00    +0.000 S 
ENDBRANCH   2   5
BRANCH   3  10
ATOM     10  C   UNL     1       2.805   6.148  19.677  0.00  0.00    +0.000 C 
BRANCH  10  11
ATOM     11  C   UNL     1       2.207   4.834  20.063  0.00  0.00    +0.000 A 
ATOM     12  C   UNL     1       1.377   4.032  19.207  0.00  0.00    +0.000 A 
ATOM     13  C   UNL     1       0.918   2.891  19.826  0.00  0.00    +0.000 A 
ATOM     14  S   UNL     1       1.474   2.769  21.436  0.00  0.00    +0.000 S 
ATOM     15  C   UNL     1       2.330   4.245  21.309  0.00  0.00    +0.000 A 
ENDBRANCH  10  11
ENDBRANCH   3  10
TORSDOF 3
ENDMDL
MODEL 3
REMARK VINA RESULT:      -5.7      0.716      1.040
REMARK  Name = 
REMARK  3 active torsions:
REMARK  status: ('A' for Active; 'I' for Inactive)
REMARK    1  A    between atoms: C_2  and  C_10
REMARK    2  A    between atoms: N_3  and  C_4
REMARK    3  A    between atoms: C_4  and  C_5
REMARK                            x       y       z     vdW  Elec       q    Type
REMARK                         _______ _______ _______ _____ _____    ______ ____
ROOT
ATOM      1  O   UNL     1       4.886   3.623  17.106  0.00  0.00    +0.000 OA
ATOM      2  C   UNL     1       5.463   4.099  18.084  0.00  0.00    +0.000 C 
ATOM      3  N   UNL     1       5.373   3.501  19.322  0.00  0.00    +0.000 N 
ATOM      4  H   UNL     1       5.735   3.994  20.127  0.00  0.00    +0.000 HD
ENDROOT
BRANCH   2   5
ATOM      5  C   UNL     1       6.265   5.311  17.998  0.00  0.00    +0.000 A 
ATOM      6  C   UNL     1       7.409   5.584  18.730  0.00  0.00    +0.000 A 
ATOM      7  C   UNL     1       7.960   6.863  18.439  0.00  0.00    +0.000 A 
ATOM      8  C   UNL     1       7.221   7.532  17.490  0.00  0.00    +0.000 A 
ATOM      9  S   UNL     1       5.880   6.614  16.953  0.00  0.00    +0.000 S 
ENDBRANCH   2   5
BRANCH   3  10
ATOM     10  C   UNL     1       4.540   2.339  19.517  0.00  0.00    +0.000 C 
BRANCH  10  11
ATOM     11  C   UNL     1       3.115   2.767  19.654  0.00  0.00    +0.000 A 
ATOM     12  C   UNL     1       2.024   2.232  18.887  0.00  0.00    +0.000 A 
ATOM     13  C   UNL     1       0.821   2.835  19.176  0.00  0.00    +0.000 A 
ATOM     14  S   UNL     1       0.985   4.047  20.368  0.00  0.00    +0.000 S 
ATOM     15  C   UNL     1       2.667   3.768  20.499  0.00  0.00    +0.000 A 
ENDBRANCH  10  11
ENDBRANCH   3  10
TORSDOF 3
ENDMDL
MODEL 4
REMARK VINA RESULT:      -5.6      1.318      1.549
REMARK  Name = 
REMARK  3 active torsions:
REMARK  status: ('A' for Active; 'I' for Inactive)
REMARK    1  A    between atoms: C_2  and  C_10
REMARK    2  A    between atoms: N_3  and  C_4
REMARK    3  A    between atoms: C_4  and  C_5
REMARK                            x       y       z     vdW  Elec       q    Type
REMARK                         _______ _______ _______ _____ _____    ______ ____
ROOT
ATOM      1  O   UNL     1       5.597   3.500  19.201  0.00  0.00    +0.000 OA
ATOM      2  C   UNL     1       5.362   4.391  18.385  0.00  0.00    +0.000 C 
ATOM      3  N   UNL     1       4.228   4.358  17.604  0.00  0.00    +0.000 N 
ATOM      4  H   UNL     1       4.139   5.023  16.847  0.00  0.00    +0.000 HD
ENDROOT
BRANCH   2   5
ATOM      5  C   UNL     1       6.259   5.522  18.191  0.00  0.00    +0.000 A 
ATOM      6  C   UNL     1       7.434   5.756  18.887  0.00  0.00    +0.000 A 
ATOM      7  C   UNL     1       8.084   6.957  18.487  0.00  0.00    +0.000 A 
ATOM      8  C   UNL     1       7.388   7.606  17.493  0.00  0.00    +0.000 A 
ATOM      9  S   UNL     1       5.967   6.763  17.047  0.00  0.00    +0.000 S 
ENDBRANCH   2   5
BRANCH   3  10
ATOM     10  C   UNL     1       3.320   3.238  17.674  0.00  0.00    +0.000 C 
BRANCH  10  11
ATOM     11  C   UNL     1       2.490   3.349  18.912  0.00  0.00    +0.000 A 
ATOM     12  C   UNL     1       1.766   4.525  19.307  0.00  0.00    +0.000 A 
ATOM     13  C   UNL     1       1.122   4.375  20.515  0.00  0.00    +0.000 A 
ATOM     14  S   UNL     1       1.378   2.826  21.187  0.00  0.00    +0.000 S 
ATOM     15  C   UNL     1       2.353   2.354  19.864  0.00  0.00    +0.000 A 
ENDBRANCH  10  11
ENDBRANCH   3  10
TORSDOF 3
ENDMDL
MODEL 5
REMARK VINA RESULT:      -5.6      0.886      1.116
REMARK  Name = 
REMARK  3 active torsions:
REMARK  status: ('A' for Active; 'I' for Inactive)
REMARK    1  A    between atoms: C_2  and  C_10
REMARK    2  A    between atoms: N_3  and  C_4
REMARK    3  A    between atoms: C_4  and  C_5
REMARK                            x       y       z     vdW  Elec       q    Type
REMARK                         _______ _______ _______ _____ _____    ______ ____
ROOT
ATOM      1  O   UNL     1       4.752   4.071  16.887  0.00  0.00    +0.000 OA
ATOM      2  C   UNL     1       5.438   4.302  17.883  0.00  0.00    +0.000 C 
ATOM      3  N   UNL     1       5.358   3.501  19.001  0.00  0.00    +0.000 N 
ATOM      4  H   UNL     1       5.822   3.801  19.848  0.00  0.00    +0.000 HD
ENDROOT
BRANCH   2   5
ATOM      5  C   UNL     1       6.361   5.426  17.946  0.00  0.00    +0.000 A 
ATOM      6  C   UNL     1       6.506   6.414  16.986  0.00  0.00    +0.000 A 
ATOM      7  C   UNL     1       7.506   7.369  17.320  0.00  0.00    +0.000 A 
ATOM      8  C   UNL     1       8.098   7.084  18.530  0.00  0.00    +0.000 A 
ATOM      9  S   UNL     1       7.439   5.679  19.253  0.00  0.00    +0.000 S 
ENDBRANCH   2   5
BRANCH   3  10
ATOM     10  C   UNL     1       4.416   2.409  19.057  0.00  0.00    +0.000 C 
BRANCH  10  11
ATOM     11  C   UNL     1       3.194   2.846  19.799  0.00  0.00    +0.000 A 
ATOM     12  C   UNL     1       2.937   2.568  21.184  0.00  0.00    +0.000 A 
ATOM     13  C   UNL     1       1.716   3.043  21.607  0.00  0.00    +0.000 A 
ATOM     14  S   UNL     1       0.865   3.826  20.350  0.00  0.00    +0.000 S 
ATOM     15  C   UNL     1       2.129   3.529  19.237  0.00  0.00    +0.000 A 
ENDBRANCH  10  11
ENDBRANCH   3  10
TORSDOF 3
ENDMDL
MODEL 6
REMARK VINA RESULT:      -5.6      1.729      5.876
REMARK  Name = 
REMARK  3 active torsions:
REMARK  status: ('A' for Active; 'I' for Inactive)
REMARK    1  A    between atoms: C_2  and  C_10
REMARK    2  A    between atoms: N_3  and  C_4
REMARK    3  A    between atoms: C_4  and  C_5
REMARK                            x       y       z     vdW  Elec       q    Type
REMARK                         _______ _______ _______ _____ _____    ______ ____
ROOT
ATOM      1  O   UNL     1       5.273   2.864  19.525  0.00  0.00    +0.000 OA
ATOM      2  C   UNL     1       4.415   3.742  19.617  0.00  0.00    +0.000 C 
ATOM      3  N   UNL     1       4.697   5.049  19.290  0.00  0.00    +0.000 N 
ATOM      4  H   UNL     1       4.018   5.764  19.514  0.00  0.00    +0.000 HD
ENDROOT
BRANCH   2   5
ATOM      5  C   UNL     1       3.062   3.458  20.077  0.00  0.00    +0.000 A 
ATOM      6  C   UNL     1       2.713   2.971  21.326  0.00  0.00    +0.000 A 
ATOM      7  C   UNL     1       1.312   2.775  21.472  0.00  0.00    +0.000 A 
ATOM      8  C   UNL     1       0.628   3.119  20.328  0.00  0.00    +0.000 A 
ATOM      9  S   UNL     1       1.675   3.682  19.097  0.00  0.00    +0.000 S 
ENDBRANCH   2   5
BRANCH   3  10
ATOM     10  C   UNL     1       6.031   5.437  18.897  0.00  0.00    +0.000 C 
BRANCH  10  11
ATOM     11  C   UNL     1       6.152   5.359  17.409  0.00  0.00    +0.000 A 
ATOM     12  C   UNL     1       5.244   5.974  16.483  0.00  0.00    +0.000 A 
ATOM     13  C   UNL     1       5.557   5.707  15.169  0.00  0.00    +0.000 A 
ATOM     14  S   UNL     1       6.942   4.716  15.032  0.00  0.00    +0.000 S 
ATOM     15  C   UNL     1       7.123   4.642  16.731  0.00  0.00    +0.000 A 
ENDBRANCH  10  11
ENDBRANCH   3  10
TORSDOF 3
ENDMDL
MODEL 7
REMARK VINA RESULT:      -5.6      2.299      2.744
REMARK  Name = 
REMARK  3 active torsions:
REMARK  status: ('A' for Active; 'I' for Inactive)
REMARK    1  A    between atoms: C_2  and  C_10
REMARK    2  A    between atoms: N_3  and  C_4
REMARK    3  A    between atoms: C_4  and  C_5
REMARK                            x       y       z     vdW  Elec       q    Type
REMARK                         _______ _______ _______ _____ _____    ______ ____
ROOT
ATOM      1  O   UNL     1       5.432   5.149  19.428  0.00  0.00    +0.000 OA
ATOM      2  C   UNL     1       4.908   5.439  18.352  0.00  0.00    +0.000 C 
ATOM      3  N   UNL     1       3.638   5.970  18.300  0.00  0.00    +0.000 N 
ATOM      4  H   UNL     1       3.186   6.059  17.400  0.00  0.00    +0.000 HD
ENDROOT
BRANCH   2   5
ATOM      5  C   UNL     1       5.589   5.237  17.080  0.00  0.00    +0.000 A 
ATOM      6  C   UNL     1       5.054   5.476  15.825  0.00  0.00    +0.000 A 
ATOM      7  C   UNL     1       5.956   5.164  14.770  0.00  0.00    +0.000 A 
ATOM      8  C   UNL     1       7.158   4.695  15.250  0.00  0.00    +0.000 A 
ATOM      9  S   UNL     1       7.191   4.645  16.961  0.00  0.00    +0.000 S 
ENDBRANCH   2   5
BRANCH   3  10
ATOM     10  C   UNL     1       2.861   6.134  19.505  0.00  0.00    +0.000 C 
BRANCH  10  11
ATOM     11  C   UNL     1       2.150   4.856  19.815  0.00  0.00    +0.000 A 
ATOM     12  C   UNL     1       2.065   4.266  21.121  0.00  0.00    +0.000 A 
ATOM     13  C   UNL     1       1.394   3.064  21.122  0.00  0.00    +0.000 A 
ATOM     14  S   UNL     1       0.860   2.630  19.559  0.00  0.00    +0.000 S 
ATOM     15  C   UNL     1       1.528   4.050  18.878  0.00  0.00    +0.000 A 
ENDBRANCH  10  11
ENDBRANCH   3  10
TORSDOF 3
ENDMDL
MODEL 8
REMARK VINA RESULT:      -5.6      1.330      1.713
REMARK  Name = 
REMARK  3 active torsions:
REMARK  status: ('A' for Active; 'I' for Inactive)
REMARK    1  A    between atoms: C_2  and  C_10
REMARK    2  A    between atoms: N_3  and  C_4
REMARK    3  A    between atoms: C_4  and  C_5
REMARK                            x       y       z     vdW  Elec       q    Type
REMARK                         _______ _______ _______ _____ _____    ______ ____
ROOT
ATOM      1  O   UNL     1       3.882   4.964  16.908  0.00  0.00    +0.000 OA
ATOM      2  C   UNL     1       4.840   4.667  17.622  0.00  0.00    +0.000 C 
ATOM      3  N   UNL     1       4.894   3.452  18.269  0.00  0.00    +0.000 N 
ATOM      4  H   UNL     1       5.619   3.301  18.958  0.00  0.00    +0.000 HD
ENDROOT
BRANCH   2   5
ATOM      5  C   UNL     1       5.963   5.572  17.829  0.00  0.00    +0.000 A 
ATOM      6  C   UNL     1       6.321   6.625  17.004  0.00  0.00    +0.000 A 
ATOM      7  C   UNL     1       7.479   7.316  17.459  0.00  0.00    +0.000 A 
ATOM      8  C   UNL     1       7.972   6.770  18.622  0.00  0.00    +0.000 A 
ATOM      9  S   UNL     1       7.035   5.442  19.158  0.00  0.00    +0.000 S 
ENDBRANCH   2   5
BRANCH   3  10
ATOM     10  C   UNL     1       3.792   2.524  18.183  0.00  0.00    +0.000 C 
BRANCH  10  11
ATOM     11  C   UNL     1       2.836   2.784  19.301  0.00  0.00    +0.000 A 
ATOM     12  C   UNL     1       1.558   3.422  19.151  0.00  0.00    +0.000 A 
ATOM     13  C   UNL     1       0.896   3.581  20.348  0.00  0.00    +0.000 A 
ATOM     14  S   UNL     1       1.798   2.970  21.663  0.00  0.00    +0.000 S 
ATOM     15  C   UNL     1       3.077   2.491  20.633  0.00  0.00    +0.000 A 
ENDBRANCH  10  11
ENDBRANCH   3  10
TORSDOF 3
ENDMDL
MODEL 9
REMARK VINA RESULT:      -5.5      1.586      1.914
REMARK  Name = 
REMARK  3 active torsions:
REMARK  status: ('A' for Active; 'I' for Inactive)
REMARK    1  A    between atoms: C_2  and  C_10
REMARK    2  A    between atoms: N_3  and  C_4
REMARK    3  A    between atoms: C_4  and  C_5
REMARK                            x       y       z     vdW  Elec       q    Type
REMARK                         _______ _______ _______ _____ _____    ______ ____
ROOT
ATOM      1  O   UNL     1       5.550   3.561  19.236  0.00  0.00    +0.000 OA
ATOM      2  C   UNL     1       5.346   4.447  18.405  0.00  0.00    +0.000 C 
ATOM      3  N   UNL     1       4.237   4.413  17.589  0.00  0.00    +0.000 N 
ATOM      4  H   UNL     1       4.177   5.072  16.824  0.00  0.00    +0.000 HD
ENDROOT
BRANCH   2   5
ATOM      5  C   UNL     1       6.255   5.571  18.231  0.00  0.00    +0.000 A 
ATOM      6  C   UNL     1       6.122   6.589  17.302  0.00  0.00    +0.000 A 
ATOM      7  C   UNL     1       7.182   7.536  17.361  0.00  0.00    +0.000 A 
ATOM      8  C   UNL     1       8.097   7.214  18.338  0.00  0.00    +0.000 A 
ATOM      9  S   UNL     1       7.667   5.786  19.177  0.00  0.00    +0.000 S 
ENDBRANCH   2   5
BRANCH   3  10
ATOM     10  C   UNL     1       3.321   3.299  17.638  0.00  0.00    +0.000 C 
BRANCH  10  11
ATOM     11  C   UNL     1       2.489   3.396  18.875  0.00  0.00    +0.000 A 
ATOM     12  C   UNL     1       1.794   4.578  19.302  0.00  0.00    +0.000 A 
ATOM     13  C   UNL     1       1.140   4.411  20.502  0.00  0.00    +0.000 A 
ATOM     14  S   UNL     1       1.351   2.837  21.129  0.00  0.00    +0.000 S 
ATOM     15  C   UNL     1       2.320   2.377  19.797  0.00  0.00    +0.000 A 
ENDBRANCH  10  11
ENDBRANCH   3  10
TORSDOF 3
ENDMDL
