MODEL 1
REMARK VINA RESULT:      -8.0      0.000      0.000
REMARK  Name = 
REMARK  9 active torsions:
REMARK  status: ('A' for Active; 'I' for Inactive)
REMARK    1  A    between atoms: C_1  and  S_2
REMARK    2  A    between atoms: S_2  and  C_3
REMARK    3  A    between atoms: C_7  and  N_8
REMARK    4  A    between atoms: N_8  and  C_24
REMARK    5  A    between atoms: C_9  and  C_11
REMARK    6  A    between atoms: C_16  and  C_17
REMARK    7  A    between atoms: C_24  and  C_25
REMARK    8  A    between atoms: C_24  and  C_26
REMARK    9  A    between atoms: N_28  and  C_29
REMARK                            x       y       z     vdW  Elec       q    Type
REMARK                         _______ _______ _______ _____ _____    ______ ____
ROOT
ATOM      1  N   UNL     1       0.770  10.258  20.508  0.00  0.00    +0.000 N 
ATOM      2  C   UNL     1       1.332   9.224  21.299  0.00  0.00    +0.000 C 
ATOM      3  O   UNL     1       1.662   9.467  22.464  0.00  0.00    +0.000 OA
ENDROOT
BRANCH   2   4
ATOM      4  C   UNL     1       1.649   7.877  20.782  0.00  0.00    +0.000 A 
ATOM      5  C   UNL     1       0.979   6.736  21.222  0.00  0.00    +0.000 A 
ATOM      6  C   UNL     1       1.374   5.610  20.465  0.00  0.00    +0.000 A 
ATOM      7  C   UNL     1       0.969   4.265  20.450  0.00  0.00    +0.000 A 
ATOM      8  C   UNL     1       1.589   3.365  19.582  0.00  0.00    +0.000 A 
ATOM      9  C   UNL     1       2.630   3.778  18.742  0.00  0.00    +0.000 A 
ATOM     10  C   UNL     1       3.020   5.142  18.723  0.00  0.00    +0.000 A 
ATOM     11  C   UNL     1       2.361   6.047  19.593  0.00  0.00    +0.000 A 
ATOM     12  N   UNL     1       2.480   7.420  19.768  0.00  0.00    +0.000 N 
ATOM     13  H   UNL     1       3.045   7.993  19.161  0.00  0.00    +0.000 HD
BRANCH   9  14
ATOM     14  C   UNL     1       3.340   2.747  17.888  0.00  0.00    +0.000 C 
ATOM     15  F   UNL     1       4.296   3.278  17.070  0.00  0.00    +0.000 F 
ATOM     16  F   UNL     1       3.976   1.794  18.625  0.00  0.00    +0.000 F 
ATOM     17  F   UNL     1       2.486   2.076  17.065  0.00  0.00    +0.000 F 
ENDBRANCH   9  14
ENDBRANCH   2   4
BRANCH   1  22
ATOM     18  C   UNL     1      -0.460  13.328  22.316  0.00  0.00    +0.000 A 
ATOM     19  C   UNL     1       0.455  14.290  21.881  0.00  0.00    +0.000 A 
ATOM     20  C   UNL     1       1.534  13.906  21.095  0.00  0.00    +0.000 A 
ATOM     21  C   UNL     1       1.667  12.573  20.699  0.00  0.00    +0.000 A 
ATOM     22  C   UNL     1       0.722  11.600  21.062  0.00  0.00    +0.000 A 
ATOM     23  C   UNL     1      -0.326  11.990  21.911  0.00  0.00    +0.000 A 
BRANCH  18  25
ATOM     24  C   UNL     1      -2.814  12.318  23.216  0.00  0.00    +0.000 C 
ATOM     25  S   UNL     1      -1.803  13.815  23.382  0.00  0.00    +0.000 S 
ENDBRANCH  18  25
ENDBRANCH   1  22
BRANCH   1  26
ATOM     26  C   UNL     1       0.372  10.117  19.089  0.00  0.00    +0.000 C 
ATOM     27  C   UNL     1       1.548  10.125  18.113  0.00  0.00    +0.000 C 
BRANCH  26  28
ATOM     28  C   UNL     1      -0.771  11.072  18.626  0.00  0.00    +0.000 C 
ATOM     29  O   UNL     1      -0.545  12.135  18.050  0.00  0.00    +0.000 OA
ATOM     30  N   UNL     1      -2.050  10.547  18.735  0.00  0.00    +0.000 N 
ATOM     31  H   UNL     1      -2.198   9.814  19.422  0.00  0.00    +0.000 HD
BRANCH  30  32
ATOM     32  C   UNL     1      -3.203  11.283  18.259  0.00  0.00    +0.000 C 
ATOM     33  C   UNL     1      -4.330  10.391  17.749  0.00  0.00    +0.000 C 
ATOM     34  C   UNL     1      -5.509  11.353  17.640  0.00  0.00    +0.000 C 
ATOM     35  C   UNL     1      -5.288  12.398  18.736  0.00  0.00    +0.000 C 
ATOM     36  C   UNL     1      -3.910  12.104  19.335  0.00  0.00    +0.000 C 
ENDBRANCH  30  32
ENDBRANCH  26  28
ENDBRANCH   1  26
TORSDOF 7
ENDMDL
MODEL 2
REMARK VINA RESULT:      -8.0      1.207      1.509
REMARK  Name = 
REMARK  9 active torsions:
REMARK  status: ('A' for Active; 'I' for Inactive)
REMARK    1  A    between atoms: C_1  and  S_2
REMARK    2  A    between atoms: S_2  and  C_3
REMARK    3  A    between atoms: C_7  and  N_8
REMARK    4  A    between atoms: N_8  and  C_24
REMARK    5  A    between atoms: C_9  and  C_11
REMARK    6  A    between atoms: C_16  and  C_17
REMARK    7  A    between atoms: C_24  and  C_25
REMARK    8  A    between atoms: C_24  and  C_26
REMARK    9  A    between atoms: N_28  and  C_29
REMARK                            x       y       z     vdW  Elec       q    Type
REMARK                         _______ _______ _______ _____ _____    ______ ____
ROOT
ATOM      1  N   UNL     1       0.688  11.214  20.559  0.00  0.00    +0.000 N 
ATOM      2  C   UNL     1       0.915  10.027  21.301  0.00  0.00    +0.000 C 
ATOM      3  O   UNL     1       0.786  10.049  22.529  0.00  0.00    +0.000 OA
ENDROOT
BRANCH   2   4
ATOM      4  C   UNL     1       1.406   8.768  20.704  0.00  0.00    +0.000 A 
ATOM      5  C   UNL     1       1.212   7.531  21.315  0.00  0.00    +0.000 A 
ATOM      6  C   UNL     1       1.647   6.488  20.467  0.00  0.00    +0.000 A 
ATOM      7  C   UNL     1       1.617   5.087  20.564  0.00  0.00    +0.000 A 
ATOM      8  C   UNL     1       2.168   4.310  19.545  0.00  0.00    +0.000 A 
ATOM      9  C   UNL     1       2.776   4.908  18.434  0.00  0.00    +0.000 A 
ATOM     10  C   UNL     1       2.776   6.322  18.309  0.00  0.00    +0.000 A 
ATOM     11  C   UNL     1       2.188   7.094  19.343  0.00  0.00    +0.000 A 
ATOM     12  N   UNL     1       1.995   8.461  19.484  0.00  0.00    +0.000 N 
ATOM     13  H   UNL     1       2.190   9.113  18.739  0.00  0.00    +0.000 HD
BRANCH   9  14
ATOM     14  C   UNL     1       3.448   4.028  17.399  0.00  0.00    +0.000 C 
ATOM     15  F   UNL     1       4.321   3.125  17.933  0.00  0.00    +0.000 F 
ATOM     16  F   UNL     1       2.562   3.295  16.670  0.00  0.00    +0.000 F 
ATOM     17  F   UNL     1       4.172   4.748  16.497  0.00  0.00    +0.000 F 
ENDBRANCH   9  14
ENDBRANCH   2   4
BRANCH   1  22
ATOM     18  C   UNL     1      -1.095  13.893  22.521  0.00  0.00    +0.000 A 
ATOM     19  C   UNL     1      -0.186  14.950  22.435  0.00  0.00    +0.000 A 
ATOM     20  C   UNL     1       1.051  14.745  21.838  0.00  0.00    +0.000 A 
ATOM     21  C   UNL     1       1.357  13.502  21.279  0.00  0.00    +0.000 A 
ATOM     22  C   UNL     1       0.434  12.444  21.289  0.00  0.00    +0.000 A 
ATOM     23  C   UNL     1      -0.786  12.646  21.954  0.00  0.00    +0.000 A 
BRANCH  18  25
ATOM     24  C   UNL     1      -3.155  12.404  23.476  0.00  0.00    +0.000 C 
ATOM     25  S   UNL     1      -2.653  14.142  23.350  0.00  0.00    +0.000 S 
ENDBRANCH  18  25
ENDBRANCH   1  22
BRANCH   1  26
ATOM     26  C   UNL     1       0.849  11.340  19.093  0.00  0.00    +0.000 C 
ATOM     27  C   UNL     1       2.125  12.070  18.672  0.00  0.00    +0.000 C 
BRANCH  26  28
ATOM     28  C   UNL     1      -0.402  11.878  18.335  0.00  0.00    +0.000 C 
ATOM     29  O   UNL     1      -0.586  13.078  18.139  0.00  0.00    +0.000 OA
ATOM     30  N   UNL     1      -1.184  10.902  17.733  0.00  0.00    +0.000 N 
ATOM     31  H   UNL     1      -1.143   9.965  18.122  0.00  0.00    +0.000 HD
BRANCH  30  32
ATOM     32  C   UNL     1      -2.327  11.257  16.918  0.00  0.00    +0.000 C 
ATOM     33  C   UNL     1      -2.663  10.221  15.851  0.00  0.00    +0.000 C 
ATOM     34  C   UNL     1      -4.052  10.644  15.384  0.00  0.00    +0.000 C 
ATOM     35  C   UNL     1      -4.718  11.281  16.606  0.00  0.00    +0.000 C 
ATOM     36  C   UNL     1      -3.640  11.355  17.690  0.00  0.00    +0.000 C 
ENDBRANCH  30  32
ENDBRANCH  26  28
ENDBRANCH   1  26
TORSDOF 7
ENDMDL
MODEL 3
REMARK VINA RESULT:      -8.0      1.968      2.761
REMARK  Name = 
REMARK  9 active torsions:
REMARK  status: ('A' for Active; 'I' for Inactive)
REMARK    1  A    between atoms: C_1  and  S_2
REMARK    2  A    between atoms: S_2  and  C_3
REMARK    3  A    between atoms: C_7  and  N_8
REMARK    4  A    between atoms: N_8  and  C_24
REMARK    5  A    between atoms: C_9  and  C_11
REMARK    6  A    between atoms: C_16  and  C_17
REMARK    7  A    between atoms: C_24  and  C_25
REMARK    8  A    between atoms: C_24  and  C_26
REMARK    9  A    between atoms: N_28  and  C_29
REMARK                            x       y       z     vdW  Elec       q    Type
REMARK                         _______ _______ _______ _____ _____    ______ ____
ROOT
ATOM      1  N   UNL     1      -0.390  11.210  20.805  0.00  0.00    +0.000 N 
ATOM      2  C   UNL     1      -0.124   9.857  21.136  0.00  0.00    +0.000 C 
ATOM      3  O   UNL     1      -0.681   9.354  22.118  0.00  0.00    +0.000 OA
ENDROOT
BRANCH   2   4
ATOM      4  C   UNL     1       0.871   9.021  20.433  0.00  0.00    +0.000 A 
ATOM      5  C   UNL     1       1.311   7.802  20.944  0.00  0.00    +0.000 A 
ATOM      6  C   UNL     1       2.144   7.147  20.009  0.00  0.00    +0.000 A 
ATOM      7  C   UNL     1       2.781   5.895  19.993  0.00  0.00    +0.000 A 
ATOM      8  C   UNL     1       3.582   5.540  18.907  0.00  0.00    +0.000 A 
ATOM      9  C   UNL     1       3.783   6.426  17.842  0.00  0.00    +0.000 A 
ATOM     10  C   UNL     1       3.113   7.677  17.832  0.00  0.00    +0.000 A 
ATOM     11  C   UNL     1       2.282   8.010  18.932  0.00  0.00    +0.000 A 
ATOM     12  N   UNL     1       1.475   9.111  19.186  0.00  0.00    +0.000 N 
ATOM     13  H   UNL     1       1.304   9.825  18.494  0.00  0.00    +0.000 HD
BRANCH   9  14
ATOM     14  C   UNL     1       4.739   6.039  16.731  0.00  0.00    +0.000 C 
ATOM     15  F   UNL     1       4.723   6.900  15.672  0.00  0.00    +0.000 F 
ATOM     16  F   UNL     1       6.037   5.986  17.142  0.00  0.00    +0.000 F 
ATOM     17  F   UNL     1       4.460   4.811  16.210  0.00  0.00    +0.000 F 
ENDBRANCH   9  14
ENDBRANCH   2   4
BRANCH   1  22
ATOM     18  C   UNL     1      -3.369  12.977  22.292  0.00  0.00    +0.000 A 
ATOM     19  C   UNL     1      -2.763  13.759  23.278  0.00  0.00    +0.000 A 
ATOM     20  C   UNL     1      -1.404  13.617  23.528  0.00  0.00    +0.000 A 
ATOM     21  C   UNL     1      -0.643  12.736  22.757  0.00  0.00    +0.000 A 
ATOM     22  C   UNL     1      -1.214  11.991  21.712  0.00  0.00    +0.000 A 
ATOM     23  C   UNL     1      -2.599  12.095  21.515  0.00  0.00    +0.000 A 
BRANCH  18  25
ATOM     24  C   UNL     1      -5.657  13.001  23.754  0.00  0.00    +0.000 C 
ATOM     25  S   UNL     1      -5.126  13.111  22.023  0.00  0.00    +0.000 S 
ENDBRANCH  18  25
ENDBRANCH   1  22
BRANCH   1  26
ATOM     26  C   UNL     1       0.238  11.947  19.686  0.00  0.00    +0.000 C 
ATOM     27  C   UNL     1       1.003  13.197  20.122  0.00  0.00    +0.000 C 
BRANCH  26  28
ATOM     28  C   UNL     1      -0.701  12.236  18.475  0.00  0.00    +0.000 C 
ATOM     29  O   UNL     1      -0.668  13.299  17.858  0.00  0.00    +0.000 OA
ATOM     30  N   UNL     1      -1.430  11.143  18.029  0.00  0.00    +0.000 N 
ATOM     31  H   UNL     1      -1.613  10.400  18.695  0.00  0.00    +0.000 HD
BRANCH  30  32
ATOM     32  C   UNL     1      -2.275  11.237  16.856  0.00  0.00    +0.000 C 
ATOM     33  C   UNL     1      -2.321   9.955  16.031  0.00  0.00    +0.000 C 
ATOM     34  C   UNL     1      -3.500  10.191  15.093  0.00  0.00    +0.000 C 
ATOM     35  C   UNL     1      -4.471  11.083  15.871  0.00  0.00    +0.000 C 
ATOM     36  C   UNL     1      -3.752  11.468  17.166  0.00  0.00    +0.000 C 
ENDBRANCH  30  32
ENDBRANCH  26  28
ENDBRANCH   1  26
TORSDOF 7
ENDMDL
MODEL 4
REMARK VINA RESULT:      -7.6      0.799      1.428
REMARK  Name = 
REMARK  9 active torsions:
REMARK  status: ('A' for Active; 'I' for Inactive)
REMARK    1  A    between atoms: C_1  and  S_2
REMARK    2  A    between atoms: S_2  and  C_3
REMARK    3  A    between atoms: C_7  and  N_8
REMARK    4  A    between atoms: N_8  and  C_24
REMARK    5  A    between atoms: C_9  and  C_11
REMARK    6  A    between atoms: C_16  and  C_17
REMARK    7  A    between atoms: C_24  and  C_25
REMARK    8  A    between atoms: C_24  and  C_26
REMARK    9  A    between atoms: N_28  and  C_29
REMARK                            x       y       z     vdW  Elec       q    Type
REMARK                         _______ _______ _______ _____ _____    ______ ____
ROOT
ATOM      1  N   UNL     1       0.735  10.490  20.380  0.00  0.00    +0.000 N 
ATOM      2  C   UNL     1       1.250   9.386  21.105  0.00  0.00    +0.000 C 
ATOM      3  O   UNL     1       1.542   9.529  22.297  0.00  0.00    +0.000 OA
ENDROOT
BRANCH   2   4
ATOM      4  C   UNL     1       1.565   8.078  20.493  0.00  0.00    +0.000 A 
ATOM      5  C   UNL     1       2.229   7.970  19.272  0.00  0.00    +0.000 A 
ATOM      6  C   UNL     1       2.530   6.618  18.993  0.00  0.00    +0.000 A 
ATOM      7  C   UNL     1       3.230   5.978  17.957  0.00  0.00    +0.000 A 
ATOM      8  C   UNL     1       3.332   4.586  17.947  0.00  0.00    +0.000 A 
ATOM      9  C   UNL     1       2.722   3.814  18.943  0.00  0.00    +0.000 A 
ATOM     10  C   UNL     1       2.046   4.454  20.014  0.00  0.00    +0.000 A 
ATOM     11  C   UNL     1       1.976   5.870  20.021  0.00  0.00    +0.000 A 
ATOM     12  N   UNL     1       1.439   6.768  20.934  0.00  0.00    +0.000 N 
ATOM     13  H   UNL     1       1.087   6.476  21.833  0.00  0.00    +0.000 HD
BRANCH   9  14
ATOM     14  C   UNL     1       2.775   2.302  18.839  0.00  0.00    +0.000 C 
ATOM     15  F   UNL     1       1.810   1.670  19.569  0.00  0.00    +0.000 F 
ATOM     16  F   UNL     1       2.623   1.853  17.562  0.00  0.00    +0.000 F 
ATOM     17  F   UNL     1       3.959   1.792  19.279  0.00  0.00    +0.000 F 
ENDBRANCH   9  14
ENDBRANCH   2   4
BRANCH   1  22
ATOM     18  C   UNL     1      -0.509  13.424  22.392  0.00  0.00    +0.000 A 
ATOM     19  C   UNL     1       0.431  14.403  22.063  0.00  0.00    +0.000 A 
ATOM     20  C   UNL     1       1.527  14.068  21.280  0.00  0.00    +0.000 A 
ATOM     21  C   UNL     1       1.655  12.769  20.781  0.00  0.00    +0.000 A 
ATOM     22  C   UNL     1       0.687  11.784  21.039  0.00  0.00    +0.000 A 
ATOM     23  C   UNL     1      -0.380  12.120  21.885  0.00  0.00    +0.000 A 
BRANCH  18  25
ATOM     24  C   UNL     1      -3.068  12.628  22.830  0.00  0.00    +0.000 C 
ATOM     25  S   UNL     1      -1.877  13.844  23.456  0.00  0.00    +0.000 S 
ENDBRANCH  18  25
ENDBRANCH   1  22
BRANCH   1  26
ATOM     26  C   UNL     1       0.386  10.470  18.941  0.00  0.00    +0.000 C 
ATOM     27  C   UNL     1       1.594  10.591  18.011  0.00  0.00    +0.000 C 
BRANCH  26  28
ATOM     28  C   UNL     1      -0.763  11.439  18.527  0.00  0.00    +0.000 C 
ATOM     29  O   UNL     1      -0.544  12.556  18.060  0.00  0.00    +0.000 OA
ATOM     30  N   UNL     1      -2.032  10.878  18.539  0.00  0.00    +0.000 N 
ATOM     31  H   UNL     1      -2.184  10.082  19.149  0.00  0.00    +0.000 HD
BRANCH  30  32
ATOM     32  C   UNL     1      -3.186  11.631  18.091  0.00  0.00    +0.000 C 
ATOM     33  C   UNL     1      -4.025  10.899  17.049  0.00  0.00    +0.000 C 
ATOM     34  C   UNL     1      -5.311  11.717  17.006  0.00  0.00    +0.000 C 
ATOM     35  C   UNL     1      -5.484  12.284  18.417  0.00  0.00    +0.000 C 
ATOM     36  C   UNL     1      -4.212  11.913  19.184  0.00  0.00    +0.000 C 
ENDBRANCH  30  32
ENDBRANCH  26  28
ENDBRANCH   1  26
TORSDOF 7
ENDMDL
MODEL 5
REMARK VINA RESULT:      -7.6      0.736      1.068
REMARK  Name = 
REMARK  9 active torsions:
REMARK  status: ('A' for Active; 'I' for Inactive)
REMARK    1  A    between atoms: C_1  and  S_2
REMARK    2  A    between atoms: S_2  and  C_3
REMARK    3  A    between atoms: C_7  and  N_8
REMARK    4  A    between atoms: N_8  and  C_24
REMARK    5  A    between atoms: C_9  and  C_11
REMARK    6  A    between atoms: C_16  and  C_17
REMARK    7  A    between atoms: C_24  and  C_25
REMARK    8  A    between atoms: C_24  and  C_26
REMARK    9  A    between atoms: N_28  and  C_29
REMARK                            x       y       z     vdW  Elec       q    Type
REMARK                         _______ _______ _______ _____ _____    ______ ____
ROOT
ATOM      1  N   UNL     1       0.823  10.243  20.377  0.00  0.00    +0.000 N 
ATOM      2  C   UNL     1       1.288   9.187  21.201  0.00  0.00    +0.000 C 
ATOM      3  O   UNL     1       1.505   9.404  22.397  0.00  0.00    +0.000 OA
ENDROOT
BRANCH   2   4
ATOM      4  C   UNL     1       1.634   7.843  20.694  0.00  0.00    +0.000 A 
ATOM      5  C   UNL     1       1.096   6.680  21.242  0.00  0.00    +0.000 A 
ATOM      6  C   UNL     1       1.477   5.553  20.480  0.00  0.00    +0.000 A 
ATOM      7  C   UNL     1       1.163   4.186  20.554  0.00  0.00    +0.000 A 
ATOM      8  C   UNL     1       1.740   3.294  19.649  0.00  0.00    +0.000 A 
ATOM      9  C   UNL     1       2.651   3.738  18.683  0.00  0.00    +0.000 A 
ATOM     10  C   UNL     1       2.944   5.123  18.577  0.00  0.00    +0.000 A 
ATOM     11  C   UNL     1       2.328   6.018  19.488  0.00  0.00    +0.000 A 
ATOM     12  N   UNL     1       2.375   7.400  19.606  0.00  0.00    +0.000 N 
ATOM     13  H   UNL     1       2.828   7.984  18.920  0.00  0.00    +0.000 HD
BRANCH   9  14
ATOM     14  C   UNL     1       3.328   2.721  17.785  0.00  0.00    +0.000 C 
ATOM     15  F   UNL     1       4.188   3.276  16.882  0.00  0.00    +0.000 F 
ATOM     16  F   UNL     1       4.062   1.807  18.478  0.00  0.00    +0.000 F 
ATOM     17  F   UNL     1       2.435   2.004  17.047  0.00  0.00    +0.000 F 
ENDBRANCH   9  14
ENDBRANCH   2   4
BRANCH   1  22
ATOM     18  C   UNL     1      -0.489  13.260  22.217  0.00  0.00    +0.000 A 
ATOM     19  C   UNL     1       0.407  14.248  21.801  0.00  0.00    +0.000 A 
ATOM     20  C   UNL     1       1.499  13.900  21.017  0.00  0.00    +0.000 A 
ATOM     21  C   UNL     1       1.665  12.576  20.604  0.00  0.00    +0.000 A 
ATOM     22  C   UNL     1       0.741  11.576  20.949  0.00  0.00    +0.000 A 
ATOM     23  C   UNL     1      -0.321  11.931  21.796  0.00  0.00    +0.000 A 
BRANCH  18  25
ATOM     24  C   UNL     1      -1.140  15.215  23.985  0.00  0.00    +0.000 C 
ATOM     25  S   UNL     1      -1.849  13.702  23.280  0.00  0.00    +0.000 S 
ENDBRANCH  18  25
ENDBRANCH   1  22
BRANCH   1  26
ATOM     26  C   UNL     1       0.564  10.133  18.924  0.00  0.00    +0.000 C 
ATOM     27  C   UNL     1       1.728  10.606  18.052  0.00  0.00    +0.000 C 
BRANCH  26  28
ATOM     28  C   UNL     1      -0.796  10.728  18.448  0.00  0.00    +0.000 C 
ATOM     29  O   UNL     1      -0.906  11.893  18.070  0.00  0.00    +0.000 OA
ATOM     30  N   UNL     1      -1.817   9.802  18.297  0.00  0.00    +0.000 N 
ATOM     31  H   UNL     1      -1.758   8.947  18.842  0.00  0.00    +0.000 HD
BRANCH  30  32
ATOM     32  C   UNL     1      -3.110  10.193  17.775  0.00  0.00    +0.000 C 
ATOM     33  C   UNL     1      -3.681  11.446  18.432  0.00  0.00    +0.000 C 
ATOM     34  C   UNL     1      -4.829  11.830  17.504  0.00  0.00    +0.000 C 
ATOM     35  C   UNL     1      -4.401  11.366  16.109  0.00  0.00    +0.000 C 
ATOM     36  C   UNL     1      -3.098  10.585  16.300  0.00  0.00    +0.000 C 
ENDBRANCH  30  32
ENDBRANCH  26  28
ENDBRANCH   1  26
TORSDOF 7
ENDMDL
MODEL 6
REMARK VINA RESULT:      -7.6      1.093      1.656
REMARK  Name = 
REMARK  9 active torsions:
REMARK  status: ('A' for Active; 'I' for Inactive)
REMARK    1  A    between atoms: C_1  and  S_2
REMARK    2  A    between atoms: S_2  and  C_3
REMARK    3  A    between atoms: C_7  and  N_8
REMARK    4  A    between atoms: N_8  and  C_24
REMARK    5  A    between atoms: C_9  and  C_11
REMARK    6  A    between atoms: C_16  and  C_17
REMARK    7  A    between atoms: C_24  and  C_25
REMARK    8  A    between atoms: C_24  and  C_26
REMARK    9  A    between atoms: N_28  and  C_29
REMARK                            x       y       z     vdW  Elec       q    Type
REMARK                         _______ _______ _______ _____ _____    ______ ____
ROOT
ATOM      1  N   UNL     1       0.839  10.609  20.376  0.00  0.00    +0.000 N 
ATOM      2  C   UNL     1       1.180   9.466  21.143  0.00  0.00    +0.000 C 
ATOM      3  O   UNL     1       1.256   9.564  22.372  0.00  0.00    +0.000 OA
ENDROOT
BRANCH   2   4
ATOM      4  C   UNL     1       1.557   8.166  20.552  0.00  0.00    +0.000 A 
ATOM      5  C   UNL     1       2.123   8.063  19.282  0.00  0.00    +0.000 A 
ATOM      6  C   UNL     1       2.519   6.731  19.025  0.00  0.00    +0.000 A 
ATOM      7  C   UNL     1       3.183   6.110  17.954  0.00  0.00    +0.000 A 
ATOM      8  C   UNL     1       3.407   4.733  17.984  0.00  0.00    +0.000 A 
ATOM      9  C   UNL     1       2.956   3.954  19.057  0.00  0.00    +0.000 A 
ATOM     10  C   UNL     1       2.318   4.579  20.160  0.00  0.00    +0.000 A 
ATOM     11  C   UNL     1       2.122   5.983  20.124  0.00  0.00    +0.000 A 
ATOM     12  N   UNL     1       1.587   6.869  21.048  0.00  0.00    +0.000 N 
ATOM     13  H   UNL     1       1.339   6.587  21.985  0.00  0.00    +0.000 HD
BRANCH   9  14
ATOM     14  C   UNL     1       3.134   2.450  19.002  0.00  0.00    +0.000 C 
ATOM     15  F   UNL     1       3.274   1.962  17.734  0.00  0.00    +0.000 F 
ATOM     16  F   UNL     1       4.232   2.021  19.684  0.00  0.00    +0.000 F 
ATOM     17  F   UNL     1       2.074   1.781  19.537  0.00  0.00    +0.000 F 
ENDBRANCH   9  14
ENDBRANCH   2   4
BRANCH   1  22
ATOM     18  C   UNL     1      -0.600  13.451  22.391  0.00  0.00    +0.000 A 
ATOM     19  C   UNL     1       0.320  14.469  22.129  0.00  0.00    +0.000 A 
ATOM     20  C   UNL     1       1.463  14.189  21.393  0.00  0.00    +0.000 A 
ATOM     21  C   UNL     1       1.660  12.908  20.873  0.00  0.00    +0.000 A 
ATOM     22  C   UNL     1       0.716  11.885  21.061  0.00  0.00    +0.000 A 
ATOM     23  C   UNL     1      -0.402  12.165  21.862  0.00  0.00    +0.000 A 
BRANCH  18  25
ATOM     24  C   UNL     1      -2.832  12.178  23.267  0.00  0.00    +0.000 C 
ATOM     25  S   UNL     1      -2.031  13.799  23.396  0.00  0.00    +0.000 S 
ENDBRANCH  18  25
ENDBRANCH   1  22
BRANCH   1  26
ATOM     26  C   UNL     1       0.755  10.644  18.899  0.00  0.00    +0.000 C 
ATOM     27  C   UNL     1       1.845  11.489  18.238  0.00  0.00    +0.000 C 
BRANCH  26  28
ATOM     28  C   UNL     1      -0.658  10.969  18.325  0.00  0.00    +0.000 C 
ATOM     29  O   UNL     1      -1.010  12.116  18.058  0.00  0.00    +0.000 OA
ATOM     30  N   UNL     1      -1.407   9.860  17.957  0.00  0.00    +0.000 N 
ATOM     31  H   UNL     1      -1.194   8.980  18.414  0.00  0.00    +0.000 HD
BRANCH  30  32
ATOM     32  C   UNL     1      -2.701  10.009  17.325  0.00  0.00    +0.000 C 
ATOM     33  C   UNL     1      -3.549  11.127  17.924  0.00  0.00    +0.000 C 
ATOM     34  C   UNL     1      -4.665  11.299  16.900  0.00  0.00    +0.000 C 
ATOM     35  C   UNL     1      -4.042  10.939  15.549  0.00  0.00    +0.000 C 
ATOM     36  C   UNL     1      -2.637  10.413  15.854  0.00  0.00    +0.000 C 
ENDBRANCH  30  32
ENDBRANCH  26  28
ENDBRANCH   1  26
TORSDOF 7
ENDMDL
MODEL 7
REMARK VINA RESULT:      -7.6      1.198      1.346
REMARK  Name = 
REMARK  9 active torsions:
REMARK  status: ('A' for Active; 'I' for Inactive)
REMARK    1  A    between atoms: C_1  and  S_2
REMARK    2  A    between atoms: S_2  and  C_3
REMARK    3  A    between atoms: C_7  and  N_8
REMARK    4  A    between atoms: N_8  and  C_24
REMARK    5  A    between atoms: C_9  and  C_11
REMARK    6  A    between atoms: C_16  and  C_17
REMARK    7  A    between atoms: C_24  and  C_25
REMARK    8  A    between atoms: C_24  and  C_26
REMARK    9  A    between atoms: N_28  and  C_29
REMARK                            x       y       z     vdW  Elec       q    Type
REMARK                         _______ _______ _______ _____ _____    ______ ____
ROOT
ATOM      1  N   UNL     1       0.266  11.090  20.785  0.00  0.00    +0.000 N 
ATOM      2  C   UNL     1       0.698   9.941  21.495  0.00  0.00    +0.000 C 
ATOM      3  O   UNL     1       0.675   9.951  22.730  0.00  0.00    +0.000 OA
ENDROOT
BRANCH   2   4
ATOM      4  C   UNL     1       1.281   8.748  20.848  0.00  0.00    +0.000 A 
ATOM      5  C   UNL     1       1.164   7.473  21.397  0.00  0.00    +0.000 A 
ATOM      6  C   UNL     1       1.680   6.503  20.508  0.00  0.00    +0.000 A 
ATOM      7  C   UNL     1       1.745   5.101  20.539  0.00  0.00    +0.000 A 
ATOM      8  C   UNL     1       2.361   4.413  19.494  0.00  0.00    +0.000 A 
ATOM      9  C   UNL     1       2.941   5.103  18.423  0.00  0.00    +0.000 A 
ATOM     10  C   UNL     1       2.847   6.518  18.364  0.00  0.00    +0.000 A 
ATOM     11  C   UNL     1       2.194   7.198  19.423  0.00  0.00    +0.000 A 
ATOM     12  N   UNL     1       1.905   8.541  19.625  0.00  0.00    +0.000 N 
ATOM     13  H   UNL     1       2.066   9.239  18.915  0.00  0.00    +0.000 HD
BRANCH   9  14
ATOM     14  C   UNL     1       3.686   4.321  17.359  0.00  0.00    +0.000 C 
ATOM     15  F   UNL     1       4.225   5.106  16.380  0.00  0.00    +0.000 F 
ATOM     16  F   UNL     1       4.723   3.596  17.861  0.00  0.00    +0.000 F 
ATOM     17  F   UNL     1       2.883   3.430  16.712  0.00  0.00    +0.000 F 
ENDBRANCH   9  14
ENDBRANCH   2   4
BRANCH   1  22
ATOM     18  C   UNL     1      -1.681  13.586  22.832  0.00  0.00    +0.000 A 
ATOM     19  C   UNL     1      -0.858  14.711  22.751  0.00  0.00    +0.000 A 
ATOM     20  C   UNL     1       0.379  14.615  22.128  0.00  0.00    +0.000 A 
ATOM     21  C   UNL     1       0.770  13.410  21.539  0.00  0.00    +0.000 A 
ATOM     22  C   UNL     1      -0.069  12.283  21.544  0.00  0.00    +0.000 A 
ATOM     23  C   UNL     1      -1.287  12.377  22.234  0.00  0.00    +0.000 A 
BRANCH  18  25
ATOM     24  C   UNL     1      -3.146  15.448  24.158  0.00  0.00    +0.000 C 
ATOM     25  S   UNL     1      -3.238  13.697  23.693  0.00  0.00    +0.000 S 
ENDBRANCH  18  25
ENDBRANCH   1  22
BRANCH   1  26
ATOM     26  C   UNL     1       0.282  11.230  19.312  0.00  0.00    +0.000 C 
ATOM     27  C   UNL     1       1.584  11.812  18.760  0.00  0.00    +0.000 C 
BRANCH  26  28
ATOM     28  C   UNL     1      -0.970  11.932  18.702  0.00  0.00    +0.000 C 
ATOM     29  O   UNL     1      -0.878  12.866  17.908  0.00  0.00    +0.000 OA
ATOM     30  N   UNL     1      -2.178  11.302  18.965  0.00  0.00    +0.000 N 
ATOM     31  H   UNL     1      -2.230  10.720  19.795  0.00  0.00    +0.000 HD
BRANCH  30  32
ATOM     32  C   UNL     1      -3.415  11.787  18.389  0.00  0.00    +0.000 C 
ATOM     33  C   UNL     1      -4.206  10.715  17.647  0.00  0.00    +0.000 C 
ATOM     34  C   UNL     1      -5.569  11.368  17.447  0.00  0.00    +0.000 C 
ATOM     35  C   UNL     1      -5.758  12.299  18.647  0.00  0.00    +0.000 C 
ATOM     36  C   UNL     1      -4.433  12.280  19.414  0.00  0.00    +0.000 C 
ENDBRANCH  30  32
ENDBRANCH  26  28
ENDBRANCH   1  26
TORSDOF 7
ENDMDL
MODEL 8
REMARK VINA RESULT:      -7.4      2.679      3.954
REMARK  Name = 
REMARK  9 active torsions:
REMARK  status: ('A' for Active; 'I' for Inactive)
REMARK    1  A    between atoms: C_1  and  S_2
REMARK    2  A    between atoms: S_2  and  C_3
REMARK    3  A    between atoms: C_7  and  N_8
REMARK    4  A    between atoms: N_8  and  C_24
REMARK    5  A    between atoms: C_9  and  C_11
REMARK    6  A    between atoms: C_16  and  C_17
REMARK    7  A    between atoms: C_24  and  C_25
REMARK    8  A    between atoms: C_24  and  C_26
REMARK    9  A    between atoms: N_28  and  C_29
REMARK                            x       y       z     vdW  Elec       q    Type
REMARK                         _______ _______ _______ _____ _____    ______ ____
ROOT
ATOM      1  N   UNL     1      -0.133  11.427  20.482  0.00  0.00    +0.000 N 
ATOM      2  C   UNL     1      -0.068  10.015  20.599  0.00  0.00    +0.000 C 
ATOM      3  O   UNL     1      -0.855   9.435  21.354  0.00  0.00    +0.000 OA
ENDROOT
BRANCH   2   4
ATOM      4  C   UNL     1       0.964   9.185  19.944  0.00  0.00    +0.000 A 
ATOM      5  C   UNL     1       1.447   8.010  20.518  0.00  0.00    +0.000 A 
ATOM      6  C   UNL     1       2.311   7.342  19.622  0.00  0.00    +0.000 A 
ATOM      7  C   UNL     1       2.996   6.117  19.672  0.00  0.00    +0.000 A 
ATOM      8  C   UNL     1       3.819   5.740  18.610  0.00  0.00    +0.000 A 
ATOM      9  C   UNL     1       3.994   6.579  17.504  0.00  0.00    +0.000 A 
ATOM     10  C   UNL     1       3.277   7.802  17.427  0.00  0.00    +0.000 A 
ATOM     11  C   UNL     1       2.425   8.155  18.504  0.00  0.00    +0.000 A 
ATOM     12  N   UNL     1       1.574   9.236  18.698  0.00  0.00    +0.000 N 
ATOM     13  H   UNL     1       1.382   9.908  17.970  0.00  0.00    +0.000 HD
BRANCH   9  14
ATOM     14  C   UNL     1       4.974   6.175  16.419  0.00  0.00    +0.000 C 
ATOM     15  F   UNL     1       4.851   4.872  16.030  0.00  0.00    +0.000 F 
ATOM     16  F   UNL     1       4.840   6.912  15.282  0.00  0.00    +0.000 F 
ATOM     17  F   UNL     1       6.271   6.320  16.810  0.00  0.00    +0.000 F 
ENDBRANCH   9  14
ENDBRANCH   2   4
BRANCH   1  22
ATOM     18  C   UNL     1      -3.212  13.198  21.742  0.00  0.00    +0.000 A 
ATOM     19  C   UNL     1      -2.722  13.818  22.894  0.00  0.00    +0.000 A 
ATOM     20  C   UNL     1      -1.423  13.560  23.314  0.00  0.00    +0.000 A 
ATOM     21  C   UNL     1      -0.599  12.727  22.554  0.00  0.00    +0.000 A 
ATOM     22  C   UNL     1      -1.043  12.148  21.354  0.00  0.00    +0.000 A 
ATOM     23  C   UNL     1      -2.378  12.365  20.978  0.00  0.00    +0.000 A 
BRANCH  18  25
ATOM     24  C   UNL     1      -4.852  12.593  19.665  0.00  0.00    +0.000 C 
ATOM     25  S   UNL     1      -4.901  13.478  21.247  0.00  0.00    +0.000 S 
ENDBRANCH  18  25
ENDBRANCH   1  22
BRANCH   1  26
ATOM     26  C   UNL     1       0.774  12.250  19.651  0.00  0.00    +0.000 C 
ATOM     27  C   UNL     1       1.994  12.780  20.405  0.00  0.00    +0.000 C 
BRANCH  26  28
ATOM     28  C   UNL     1       0.075  13.370  18.821  0.00  0.00    +0.000 C 
ATOM     29  O   UNL     1      -0.728  13.119  17.924  0.00  0.00    +0.000 OA
ATOM     30  N   UNL     1       0.274  14.658  19.296  0.00  0.00    +0.000 N 
ATOM     31  H   UNL     1       1.109  14.829  19.848  0.00  0.00    +0.000 HD
BRANCH  30  32
ATOM     32  C   UNL     1      -0.387  15.792  18.683  0.00  0.00    +0.000 C 
ATOM     33  C   UNL     1      -1.349  16.518  19.617  0.00  0.00    +0.000 C 
ATOM     34  C   UNL     1      -1.634  17.819  18.875  0.00  0.00    +0.000 C 
ATOM     35  C   UNL     1      -0.360  18.127  18.084  0.00  0.00    +0.000 C 
ATOM     36  C   UNL     1       0.557  16.915  18.263  0.00  0.00    +0.000 C 
ENDBRANCH  30  32
ENDBRANCH  26  28
ENDBRANCH   1  26
TORSDOF 7
ENDMDL
MODEL 9
REMARK VINA RESULT:      -7.4      1.113      1.871
REMARK  Name = 
REMARK  9 active torsions:
REMARK  status: ('A' for Active; 'I' for Inactive)
REMARK    1  A    between atoms: C_1  and  S_2
REMARK    2  A    between atoms: S_2  and  C_3
REMARK    3  A    between atoms: C_7  and  N_8
REMARK    4  A    between atoms: N_8  and  C_24
REMARK    5  A    between atoms: C_9  and  C_11
REMARK    6  A    between atoms: C_16  and  C_17
REMARK    7  A    between atoms: C_24  and  C_25
REMARK    8  A    between atoms: C_24  and  C_26
REMARK    9  A    between atoms: N_28  and  C_29
REMARK                            x       y       z     vdW  Elec       q    Type
REMARK                         _______ _______ _______ _____ _____    ______ ____
ROOT
ATOM      1  N   UNL     1       0.450  10.484  20.401  0.00  0.00    +0.000 N 
ATOM      2  C   UNL     1       1.128   9.506  21.172  0.00  0.00    +0.000 C 
ATOM      3  O   UNL     1       1.512   9.794  22.310  0.00  0.00    +0.000 OA
ENDROOT
BRANCH   2   4
ATOM      4  C   UNL     1       1.504   8.173  20.658  0.00  0.00    +0.000 A 
ATOM      5  C   UNL     1       1.049   6.994  21.245  0.00  0.00    +0.000 A 
ATOM      6  C   UNL     1       1.436   5.876  20.474  0.00  0.00    +0.000 A 
ATOM      7  C   UNL     1       1.187   4.498  20.576  0.00  0.00    +0.000 A 
ATOM      8  C   UNL     1       1.752   3.621  19.649  0.00  0.00    +0.000 A 
ATOM      9  C   UNL     1       2.587   4.094  18.630  0.00  0.00    +0.000 A 
ATOM     10  C   UNL     1       2.813   5.489  18.495  0.00  0.00    +0.000 A 
ATOM     11  C   UNL     1       2.210   6.366  19.431  0.00  0.00    +0.000 A 
ATOM     12  N   UNL     1       2.202   7.751  19.534  0.00  0.00    +0.000 N 
ATOM     13  H   UNL     1       2.591   8.346  18.819  0.00  0.00    +0.000 HD
BRANCH   9  14
ATOM     14  C   UNL     1       3.257   3.097  17.704  0.00  0.00    +0.000 C 
ATOM     15  F   UNL     1       2.430   2.092  17.293  0.00  0.00    +0.000 F 
ATOM     16  F   UNL     1       3.735   3.670  16.565  0.00  0.00    +0.000 F 
ATOM     17  F   UNL     1       4.322   2.480  18.289  0.00  0.00    +0.000 F 
ENDBRANCH   9  14
ENDBRANCH   2   4
BRANCH   1  22
ATOM     18  C   UNL     1       1.296  14.053  21.269  0.00  0.00    +0.000 A 
ATOM     19  C   UNL     1       0.318  14.345  22.223  0.00  0.00    +0.000 A 
ATOM     20  C   UNL     1      -0.679  13.416  22.491  0.00  0.00    +0.000 A 
ATOM     21  C   UNL     1      -0.667  12.177  21.846  0.00  0.00    +0.000 A 
ATOM     22  C   UNL     1       0.345  11.831  20.936  0.00  0.00    +0.000 A 
ATOM     23  C   UNL     1       1.307  12.804  20.626  0.00  0.00    +0.000 A 
BRANCH  18  25
ATOM     24  C   UNL     1       2.859  15.855  22.566  0.00  0.00    +0.000 C 
ATOM     25  S   UNL     1       2.532  15.277  20.878  0.00  0.00    +0.000 S 
ENDBRANCH  18  25
ENDBRANCH   1  22
BRANCH   1  26
ATOM     26  C   UNL     1      -0.024  10.289  19.012  0.00  0.00    +0.000 C 
ATOM     27  C   UNL     1       1.103  10.125  17.992  0.00  0.00    +0.000 C 
BRANCH  26  28
ATOM     28  C   UNL     1      -1.097  11.313  18.530  0.00  0.00    +0.000 C 
ATOM     29  O   UNL     1      -0.809  12.290  17.840  0.00  0.00    +0.000 OA
ATOM     30  N   UNL     1      -2.411  10.937  18.769  0.00  0.00    +0.000 N 
ATOM     31  H   UNL     1      -2.580  10.289  19.531  0.00  0.00    +0.000 HD
BRANCH  30  32
ATOM     32  C   UNL     1      -3.516  11.744  18.296  0.00  0.00    +0.000 C 
ATOM     33  C   UNL     1      -4.421  11.020  17.304  0.00  0.00    +0.000 C 
ATOM     34  C   UNL     1      -5.648  11.924  17.234  0.00  0.00    +0.000 C 
ATOM     35  C   UNL     1      -5.758  12.573  18.615  0.00  0.00    +0.000 C 
ATOM     36  C   UNL     1      -4.503  12.154  19.385  0.00  0.00    +0.000 C 
ENDBRANCH  30  32
ENDBRANCH  26  28
ENDBRANCH   1  26
TORSDOF 7
ENDMDL
