MODEL 1
REMARK VINA RESULT:      -6.9      0.000      0.000
REMARK  Name = 
REMARK  7 active torsions:
REMARK  status: ('A' for Active; 'I' for Inactive)
REMARK    1  A    between atoms: C_1  and  C_2
REMARK    2  A    between atoms: C_2  and  O_3
REMARK    3  A    between atoms: O_3  and  N_4
REMARK    4  A    between atoms: N_6  and  C_7
REMARK    5  A    between atoms: C_11  and  S_12
REMARK    6  A    between atoms: S_12  and  C_14
REMARK    7  A    between atoms: C_14  and  C_15
REMARK                            x       y       z     vdW  Elec       q    Type
REMARK                         _______ _______ _______ _____ _____    ______ ____
ROOT
ATOM      1  C   UNL     1       5.347   4.941  16.357  0.00  0.00    +0.000 A 
ATOM      2  C   UNL     1       4.568   6.010  16.801  0.00  0.00    +0.000 A 
ATOM      3  C   UNL     1       3.494   5.801  17.688  0.00  0.00    +0.000 A 
ATOM      4 CL   UNL     1       2.615   7.217  18.166  0.00  0.00    +0.000 Cl
ATOM      5  C   UNL     1       3.160   4.512  18.154  0.00  0.00    +0.000 A 
ATOM      6  C   UNL     1       3.903   3.437  17.648  0.00  0.00    +0.000 A 
ATOM      7 CL   UNL     1       3.570   1.772  17.986  0.00  0.00    +0.000 Cl
ATOM      8  C   UNL     1       4.987   3.660  16.787  0.00  0.00    +0.000 A 
ENDROOT
BRANCH   1  11
ATOM      9  N   UNL     1       5.981   3.895  13.643  0.00  0.00    +0.000 NA
ATOM     10  C   UNL     1       6.728   4.704  14.316  0.00  0.00    +0.000 C 
ATOM     11  N   UNL     1       6.502   5.177  15.591  0.00  0.00    +0.000 N 
ATOM     12  H   UNL     1       7.255   5.671  16.050  0.00  0.00    +0.000 HD
BRANCH   9  13
ATOM     13  O   UNL     1       6.535   3.641  12.386  0.00  0.00    +0.000 OA
BRANCH  13  15
ATOM     14  C   UNL     1       4.353   3.238  11.472  0.00  0.00    +0.000 C 
ATOM     15  C   UNL     1       5.717   2.650  11.754  0.00  0.00    +0.000 C 
ENDBRANCH  13  15
ENDBRANCH   9  13
ENDBRANCH   1  11
BRANCH   5  16
ATOM     16  S   UNL     1       1.768   4.321  19.302  0.00  0.00    +0.000 S 
ATOM     17  O   UNL     1       0.842   3.202  18.704  0.00  0.00    +0.000 OA
BRANCH  16  18
ATOM     18  C   UNL     1       2.620   3.642  20.762  0.00  0.00    +0.000 C 
ATOM     19  C   UNL     1       1.684   2.754  21.563  0.00  0.00    +0.000 C 
ENDBRANCH  16  18
ENDBRANCH   5  16
TORSDOF 5
ENDMDL
MODEL 2
REMARK VINA RESULT:      -6.7      0.554      2.229
REMARK  Name = 
REMARK  7 active torsions:
REMARK  status: ('A' for Active; 'I' for Inactive)
REMARK    1  A    between atoms: C_1  and  C_2
REMARK    2  A    between atoms: C_2  and  O_3
REMARK    3  A    between atoms: O_3  and  N_4
REMARK    4  A    between atoms: N_6  and  C_7
REMARK    5  A    between atoms: C_11  and  S_12
REMARK    6  A    between atoms: S_12  and  C_14
REMARK    7  A    between atoms: C_14  and  C_15
REMARK                            x       y       z     vdW  Elec       q    Type
REMARK                         _______ _______ _______ _____ _____    ______ ____
ROOT
ATOM      1  C   UNL     1       5.833   5.172  16.259  0.00  0.00    +0.000 A 
ATOM      2  C   UNL     1       5.384   3.910  16.648  0.00  0.00    +0.000 A 
ATOM      3  C   UNL     1       4.184   3.761  17.368  0.00  0.00    +0.000 A 
ATOM      4 CL   UNL     1       3.739   2.136  17.780  0.00  0.00    +0.000 Cl
ATOM      5  C   UNL     1       3.395   4.874  17.730  0.00  0.00    +0.000 A 
ATOM      6  C   UNL     1       3.888   6.142  17.397  0.00  0.00    +0.000 A 
ATOM      7 CL   UNL     1       3.147   7.635  17.864  0.00  0.00    +0.000 Cl
ATOM      8  C   UNL     1       5.072   6.276  16.656  0.00  0.00    +0.000 A 
ENDROOT
BRANCH   1  11
ATOM      9  N   UNL     1       6.201   4.041  13.530  0.00  0.00    +0.000 NA
ATOM     10  C   UNL     1       7.056   4.791  14.140  0.00  0.00    +0.000 C 
ATOM     11  N   UNL     1       6.953   5.298  15.418  0.00  0.00    +0.000 N 
ATOM     12  H   UNL     1       7.773   5.733  15.820  0.00  0.00    +0.000 HD
BRANCH   9  13
ATOM     13  O   UNL     1       6.651   3.724  12.246  0.00  0.00    +0.000 OA
BRANCH  13  15
ATOM     14  C   UNL     1       4.434   3.195  11.495  0.00  0.00    +0.000 C 
ATOM     15  C   UNL     1       5.824   2.663  11.757  0.00  0.00    +0.000 C 
ENDBRANCH  13  15
ENDBRANCH   9  13
ENDBRANCH   1  11
BRANCH   5  16
ATOM     16  S   UNL     1       1.856   4.604  18.651  0.00  0.00    +0.000 S 
ATOM     17  O   UNL     1       1.082   3.457  17.909  0.00  0.00    +0.000 OA
BRANCH  16  18
ATOM     18  C   UNL     1       2.506   3.940  20.218  0.00  0.00    +0.000 C 
ATOM     19  C   UNL     1       1.384   3.349  21.054  0.00  0.00    +0.000 C 
ENDBRANCH  16  18
ENDBRANCH   5  16
TORSDOF 5
ENDMDL
MODEL 3
REMARK VINA RESULT:      -6.3      3.552      4.314
REMARK  Name = 
REMARK  7 active torsions:
REMARK  status: ('A' for Active; 'I' for Inactive)
REMARK    1  A    between atoms: C_1  and  C_2
REMARK    2  A    between atoms: C_2  and  O_3
REMARK    3  A    between atoms: O_3  and  N_4
REMARK    4  A    between atoms: N_6  and  C_7
REMARK    5  A    between atoms: C_11  and  S_12
REMARK    6  A    between atoms: S_12  and  C_14
REMARK    7  A    between atoms: C_14  and  C_15
REMARK                            x       y       z     vdW  Elec       q    Type
REMARK                         _______ _______ _______ _____ _____    ______ ____
ROOT
ATOM      1  C   UNL     1       5.710   4.802  18.867  0.00  0.00    +0.000 A 
ATOM      2  C   UNL     1       4.770   5.746  19.281  0.00  0.00    +0.000 A 
ATOM      3  C   UNL     1       3.412   5.401  19.417  0.00  0.00    +0.000 A 
ATOM      4 CL   UNL     1       2.353   6.668  19.949  0.00  0.00    +0.000 Cl
ATOM      5  C   UNL     1       2.948   4.099  19.136  0.00  0.00    +0.000 A 
ATOM      6  C   UNL     1       3.886   3.176  18.653  0.00  0.00    +0.000 A 
ATOM      7 CL   UNL     1       3.501   1.574  18.123  0.00  0.00    +0.000 Cl
ATOM      8  C   UNL     1       5.240   3.524  18.547  0.00  0.00    +0.000 A 
ENDROOT
BRANCH   1  11
ATOM      9  N   UNL     1       7.051   7.151  17.620  0.00  0.00    +0.000 NA
ATOM     10  C   UNL     1       7.647   6.244  18.319  0.00  0.00    +0.000 C 
ATOM     11  N   UNL     1       7.080   5.117  18.874  0.00  0.00    +0.000 N 
ATOM     12  H   UNL     1       7.702   4.415  19.253  0.00  0.00    +0.000 HD
BRANCH   9  13
ATOM     13  O   UNL     1       7.951   8.143  17.226  0.00  0.00    +0.000 OA
BRANCH  13  15
ATOM     14  C   UNL     1       8.783  10.181  18.181  0.00  0.00    +0.000 C 
ATOM     15  C   UNL     1       8.500   8.715  18.418  0.00  0.00    +0.000 C 
ENDBRANCH  13  15
ENDBRANCH   9  13
ENDBRANCH   1  11
BRANCH   5  16
ATOM     16  S   UNL     1       1.185   3.724  19.342  0.00  0.00    +0.000 S 
ATOM     17  O   UNL     1       0.731   2.966  18.045  0.00  0.00    +0.000 OA
BRANCH  16  18
ATOM     18  C   UNL     1       1.248   2.528  20.715  0.00  0.00    +0.000 C 
ATOM     19  C   UNL     1       2.113   3.057  21.847  0.00  0.00    +0.000 C 
ENDBRANCH  16  18
ENDBRANCH   5  16
TORSDOF 5
ENDMDL
MODEL 4
REMARK VINA RESULT:      -6.3      1.950      3.093
REMARK  Name = 
REMARK  7 active torsions:
REMARK  status: ('A' for Active; 'I' for Inactive)
REMARK    1  A    between atoms: C_1  and  C_2
REMARK    2  A    between atoms: C_2  and  O_3
REMARK    3  A    between atoms: O_3  and  N_4
REMARK    4  A    between atoms: N_6  and  C_7
REMARK    5  A    between atoms: C_11  and  S_12
REMARK    6  A    between atoms: S_12  and  C_14
REMARK    7  A    between atoms: C_14  and  C_15
REMARK                            x       y       z     vdW  Elec       q    Type
REMARK                         _______ _______ _______ _____ _____    ______ ____
ROOT
ATOM      1  C   UNL     1       5.524   4.950  18.809  0.00  0.00    +0.000 A 
ATOM      2  C   UNL     1       5.141   3.622  18.625  0.00  0.00    +0.000 A 
ATOM      3  C   UNL     1       3.804   3.223  18.813  0.00  0.00    +0.000 A 
ATOM      4 CL   UNL     1       3.464   1.544  18.541  0.00  0.00    +0.000 Cl
ATOM      5  C   UNL     1       2.806   4.142  19.201  0.00  0.00    +0.000 A 
ATOM      6  C   UNL     1       3.212   5.459  19.452  0.00  0.00    +0.000 A 
ATOM      7 CL   UNL     1       2.176   6.704  20.063  0.00  0.00    +0.000 Cl
ATOM      8  C   UNL     1       4.542   5.850  19.235  0.00  0.00    +0.000 A 
ENDROOT
BRANCH   1  11
ATOM      9  N   UNL     1       6.685   5.324  16.093  0.00  0.00    +0.000 NA
ATOM     10  C   UNL     1       7.303   5.567  17.200  0.00  0.00    +0.000 C 
ATOM     11  N   UNL     1       6.827   5.365  18.478  0.00  0.00    +0.000 N 
ATOM     12  H   UNL     1       7.482   5.445  19.244  0.00  0.00    +0.000 HD
BRANCH   9  13
ATOM     13  O   UNL     1       7.487   5.655  14.998  0.00  0.00    +0.000 OA
BRANCH  13  15
ATOM     14  C   UNL     1       5.767   4.185  14.199  0.00  0.00    +0.000 C 
ATOM     15  C   UNL     1       7.136   4.767  13.932  0.00  0.00    +0.000 C 
ENDBRANCH  13  15
ENDBRANCH   9  13
ENDBRANCH   1  11
BRANCH   5  16
ATOM     16  S   UNL     1       1.102   3.558  19.416  0.00  0.00    +0.000 S 
ATOM     17  O   UNL     1       0.772   2.662  18.170  0.00  0.00    +0.000 OA
BRANCH  16  18
ATOM     18  C   UNL     1       1.293   2.474  20.868  0.00  0.00    +0.000 C 
ATOM     19  C   UNL     1       2.102   3.168  21.951  0.00  0.00    +0.000 C 
ENDBRANCH  16  18
ENDBRANCH   5  16
TORSDOF 5
ENDMDL
MODEL 5
REMARK VINA RESULT:      -6.3      1.909      2.202
REMARK  Name = 
REMARK  7 active torsions:
REMARK  status: ('A' for Active; 'I' for Inactive)
REMARK    1  A    between atoms: C_1  and  C_2
REMARK    2  A    between atoms: C_2  and  O_3
REMARK    3  A    between atoms: O_3  and  N_4
REMARK    4  A    between atoms: N_6  and  C_7
REMARK    5  A    between atoms: C_11  and  S_12
REMARK    6  A    between atoms: S_12  and  C_14
REMARK    7  A    between atoms: C_14  and  C_15
REMARK                            x       y       z     vdW  Elec       q    Type
REMARK                         _______ _______ _______ _____ _____    ______ ____
ROOT
ATOM      1  C   UNL     1       5.457   4.537  18.557  0.00  0.00    +0.000 A 
ATOM      2  C   UNL     1       4.581   5.547  18.956  0.00  0.00    +0.000 A 
ATOM      3  C   UNL     1       3.247   5.253  19.294  0.00  0.00    +0.000 A 
ATOM      4 CL   UNL     1       2.270   6.601  19.782  0.00  0.00    +0.000 Cl
ATOM      5  C   UNL     1       2.742   3.937  19.236  0.00  0.00    +0.000 A 
ATOM      6  C   UNL     1       3.607   2.941  18.768  0.00  0.00    +0.000 A 
ATOM      7 CL   UNL     1       3.148   1.294  18.494  0.00  0.00    +0.000 Cl
ATOM      8  C   UNL     1       4.942   3.240  18.460  0.00  0.00    +0.000 A 
ENDROOT
BRANCH   1  11
ATOM      9  N   UNL     1       6.847   5.155  15.998  0.00  0.00    +0.000 NA
ATOM     10  C   UNL     1       7.409   5.143  17.160  0.00  0.00    +0.000 C 
ATOM     11  N   UNL     1       6.821   4.817  18.363  0.00  0.00    +0.000 N 
ATOM     12  H   UNL     1       7.426   4.693  19.165  0.00  0.00    +0.000 HD
BRANCH   9  13
ATOM     13  O   UNL     1       7.760   5.536  15.012  0.00  0.00    +0.000 OA
BRANCH  13  15
ATOM     14  C   UNL     1       6.074   4.140  14.028  0.00  0.00    +0.000 C 
ATOM     15  C   UNL     1       7.366   4.890  13.797  0.00  0.00    +0.000 C 
ENDBRANCH  13  15
ENDBRANCH   9  13
ENDBRANCH   1  11
BRANCH   5  16
ATOM     16  S   UNL     1       1.013   3.633  19.695  0.00  0.00    +0.000 S 
ATOM     17  O   UNL     1       0.387   2.769  18.544  0.00  0.00    +0.000 OA
BRANCH  16  18
ATOM     18  C   UNL     1       1.229   2.571  21.159  0.00  0.00    +0.000 C 
ATOM     19  C   UNL     1       2.231   3.185  22.122  0.00  0.00    +0.000 C 
ENDBRANCH  16  18
ENDBRANCH   5  16
TORSDOF 5
ENDMDL
MODEL 6
REMARK VINA RESULT:      -6.3      1.631      2.640
REMARK  Name = 
REMARK  7 active torsions:
REMARK  status: ('A' for Active; 'I' for Inactive)
REMARK    1  A    between atoms: C_1  and  C_2
REMARK    2  A    between atoms: C_2  and  O_3
REMARK    3  A    between atoms: O_3  and  N_4
REMARK    4  A    between atoms: N_6  and  C_7
REMARK    5  A    between atoms: C_11  and  S_12
REMARK    6  A    between atoms: S_12  and  C_14
REMARK    7  A    between atoms: C_14  and  C_15
REMARK                            x       y       z     vdW  Elec       q    Type
REMARK                         _______ _______ _______ _____ _____    ______ ____
ROOT
ATOM      1  C   UNL     1       6.236   5.537  16.626  0.00  0.00    +0.000 A 
ATOM      2  C   UNL     1       6.114   4.470  17.515  0.00  0.00    +0.000 A 
ATOM      3  C   UNL     1       5.010   4.377  18.384  0.00  0.00    +0.000 A 
ATOM      4 CL   UNL     1       4.979   2.994  19.430  0.00  0.00    +0.000 Cl
ATOM      5  C   UNL     1       3.994   5.356  18.396  0.00  0.00    +0.000 A 
ATOM      6  C   UNL     1       4.160   6.460  17.550  0.00  0.00    +0.000 A 
ATOM      7 CL   UNL     1       3.103   7.830  17.509  0.00  0.00    +0.000 Cl
ATOM      8  C   UNL     1       5.250   6.528  16.670  0.00  0.00    +0.000 A 
ENDROOT
BRANCH   1  11
ATOM      9  N   UNL     1       6.212   4.294  13.920  0.00  0.00    +0.000 NA
ATOM     10  C   UNL     1       7.185   4.991  14.404  0.00  0.00    +0.000 C 
ATOM     11  N   UNL     1       7.263   5.545  15.664  0.00  0.00    +0.000 N 
ATOM     12  H   UNL     1       8.154   5.923  15.959  0.00  0.00    +0.000 HD
BRANCH   9  13
ATOM     13  O   UNL     1       6.491   3.902  12.609  0.00  0.00    +0.000 OA
BRANCH  13  15
ATOM     14  C   UNL     1       4.426   3.387  11.500  0.00  0.00    +0.000 C 
ATOM     15  C   UNL     1       5.594   2.835  12.286  0.00  0.00    +0.000 C 
ENDBRANCH  13  15
ENDBRANCH   9  13
ENDBRANCH   1  11
BRANCH   5  16
ATOM     16  S   UNL     1       2.597   5.165  19.537  0.00  0.00    +0.000 S 
ATOM     17  O   UNL     1       2.090   6.612  19.874  0.00  0.00    +0.000 OA
BRANCH  16  18
ATOM     18  C   UNL     1       1.373   4.367  18.449  0.00  0.00    +0.000 C 
ATOM     19  C   UNL     1       1.189   2.908  18.832  0.00  0.00    +0.000 C 
ENDBRANCH  16  18
ENDBRANCH   5  16
TORSDOF 5
ENDMDL
MODEL 7
REMARK VINA RESULT:      -6.2      1.717      1.957
REMARK  Name = 
REMARK  7 active torsions:
REMARK  status: ('A' for Active; 'I' for Inactive)
REMARK    1  A    between atoms: C_1  and  C_2
REMARK    2  A    between atoms: C_2  and  O_3
REMARK    3  A    between atoms: O_3  and  N_4
REMARK    4  A    between atoms: N_6  and  C_7
REMARK    5  A    between atoms: C_11  and  S_12
REMARK    6  A    between atoms: S_12  and  C_14
REMARK    7  A    between atoms: C_14  and  C_15
REMARK                            x       y       z     vdW  Elec       q    Type
REMARK                         _______ _______ _______ _____ _____    ______ ____
ROOT
ATOM      1  C   UNL     1       5.689   5.740  18.012  0.00  0.00    +0.000 A 
ATOM      2  C   UNL     1       4.513   6.472  17.849  0.00  0.00    +0.000 A 
ATOM      3  C   UNL     1       3.285   5.985  18.337  0.00  0.00    +0.000 A 
ATOM      4 CL   UNL     1       1.904   7.001  18.075  0.00  0.00    +0.000 Cl
ATOM      5  C   UNL     1       3.193   4.743  18.999  0.00  0.00    +0.000 A 
ATOM      6  C   UNL     1       4.365   3.982  19.097  0.00  0.00    +0.000 A 
ATOM      7 CL   UNL     1       4.442   2.380  19.749  0.00  0.00    +0.000 Cl
ATOM      8  C   UNL     1       5.587   4.489  18.631  0.00  0.00    +0.000 A 
ENDROOT
BRANCH   1  11
ATOM      9  N   UNL     1       7.157   5.420  15.442  0.00  0.00    +0.000 NA
ATOM     10  C   UNL     1       7.546   6.156  16.428  0.00  0.00    +0.000 C 
ATOM     11  N   UNL     1       6.928   6.299  17.652  0.00  0.00    +0.000 N 
ATOM     12  H   UNL     1       7.435   6.779  18.383  0.00  0.00    +0.000 HD
BRANCH   9  13
ATOM     13  O   UNL     1       8.040   5.531  14.365  0.00  0.00    +0.000 OA
BRANCH  13  15
ATOM     14  C   UNL     1       6.356   3.971  13.667  0.00  0.00    +0.000 C 
ATOM     15  C   UNL     1       7.379   4.989  13.217  0.00  0.00    +0.000 C 
ENDBRANCH  13  15
ENDBRANCH   9  13
ENDBRANCH   1  11
BRANCH   5  16
ATOM     16  S   UNL     1       1.579   4.184  19.609  0.00  0.00    +0.000 S 
ATOM     17  O   UNL     1       1.314   2.779  18.961  0.00  0.00    +0.000 OA
BRANCH  16  18
ATOM     18  C   UNL     1       1.946   3.942  21.377  0.00  0.00    +0.000 C 
ATOM     19  C   UNL     1       1.581   2.532  21.811  0.00  0.00    +0.000 C 
ENDBRANCH  16  18
ENDBRANCH   5  16
TORSDOF 5
ENDMDL
MODEL 8
REMARK VINA RESULT:      -6.1      2.969      4.301
REMARK  Name = 
REMARK  7 active torsions:
REMARK  status: ('A' for Active; 'I' for Inactive)
REMARK    1  A    between atoms: C_1  and  C_2
REMARK    2  A    between atoms: C_2  and  O_3
REMARK    3  A    between atoms: O_3  and  N_4
REMARK    4  A    between atoms: N_6  and  C_7
REMARK    5  A    between atoms: C_11  and  S_12
REMARK    6  A    between atoms: S_12  and  C_14
REMARK    7  A    between atoms: C_14  and  C_15
REMARK                            x       y       z     vdW  Elec       q    Type
REMARK                         _______ _______ _______ _____ _____    ______ ____
ROOT
ATOM      1  C   UNL     1       5.394   5.594  16.791  0.00  0.00    +0.000 A 
ATOM      2  C   UNL     1       4.384   6.454  17.222  0.00  0.00    +0.000 A 
ATOM      3  C   UNL     1       3.250   5.957  17.891  0.00  0.00    +0.000 A 
ATOM      4 CL   UNL     1       2.077   7.137  18.381  0.00  0.00    +0.000 Cl
ATOM      5  C   UNL     1       3.085   4.579  18.145  0.00  0.00    +0.000 A 
ATOM      6  C   UNL     1       4.070   3.715  17.647  0.00  0.00    +0.000 A 
ATOM      7 CL   UNL     1       3.991   1.987  17.731  0.00  0.00    +0.000 Cl
ATOM      8  C   UNL     1       5.208   4.224  17.005  0.00  0.00    +0.000 A 
ENDROOT
BRANCH   1  11
ATOM      9  N   UNL     1       7.418   7.299  18.156  0.00  0.00    +0.000 NA
ATOM     10  C   UNL     1       7.516   6.862  16.946  0.00  0.00    +0.000 C 
ATOM     11  N   UNL     1       6.587   6.113  16.256  0.00  0.00    +0.000 N 
ATOM     12  H   UNL     1       6.729   5.984  15.262  0.00  0.00    +0.000 HD
BRANCH   9  13
ATOM     13  O   UNL     1       8.558   8.023  18.514  0.00  0.00    +0.000 OA
BRANCH  13  15
ATOM     14  C   UNL     1       9.366  10.264  18.801  0.00  0.00    +0.000 C 
ATOM     15  C   UNL     1       8.328   9.386  18.140  0.00  0.00    +0.000 C 
ENDBRANCH  13  15
ENDBRANCH   9  13
ENDBRANCH   1  11
BRANCH   5  16
ATOM     16  S   UNL     1       1.601   4.012  19.020  0.00  0.00    +0.000 S 
ATOM     17  O   UNL     1       1.032   2.799  18.203  0.00  0.00    +0.000 OA
BRANCH  16  18
ATOM     18  C   UNL     1       2.335   3.374  20.561  0.00  0.00    +0.000 C 
ATOM     19  C   UNL     1       1.259   2.805  21.470  0.00  0.00    +0.000 C 
ENDBRANCH  16  18
ENDBRANCH   5  16
TORSDOF 5
ENDMDL
MODEL 9
REMARK VINA RESULT:      -6.1      1.759      2.843
REMARK  Name = 
REMARK  7 active torsions:
REMARK  status: ('A' for Active; 'I' for Inactive)
REMARK    1  A    between atoms: C_1  and  C_2
REMARK    2  A    between atoms: C_2  and  O_3
REMARK    3  A    between atoms: O_3  and  N_4
REMARK    4  A    between atoms: N_6  and  C_7
REMARK    5  A    between atoms: C_11  and  S_12
REMARK    6  A    between atoms: S_12  and  C_14
REMARK    7  A    between atoms: C_14  and  C_15
REMARK                            x       y       z     vdW  Elec       q    Type
REMARK                         _______ _______ _______ _____ _____    ______ ____
ROOT
ATOM      1  C   UNL     1       5.795   5.812  18.179  0.00  0.00    +0.000 A 
ATOM      2  C   UNL     1       5.660   4.555  18.770  0.00  0.00    +0.000 A 
ATOM      3  C   UNL     1       4.389   4.035  19.077  0.00  0.00    +0.000 A 
ATOM      4 CL   UNL     1       4.365   2.458  19.800  0.00  0.00    +0.000 Cl
ATOM      5  C   UNL     1       3.208   4.759  18.809  0.00  0.00    +0.000 A 
ATOM      6  C   UNL     1       3.356   6.048  18.280  0.00  0.00    +0.000 A 
ATOM      7 CL   UNL     1       2.048   7.150  18.005  0.00  0.00    +0.000 Cl
ATOM      8  C   UNL     1       4.626   6.546  17.954  0.00  0.00    +0.000 A 
ENDROOT
BRANCH   1  11
ATOM      9  N   UNL     1       7.014   5.493  15.482  0.00  0.00    +0.000 NA
ATOM     10  C   UNL     1       7.556   6.126  16.467  0.00  0.00    +0.000 C 
ATOM     11  N   UNL     1       7.055   6.259  17.745  0.00  0.00    +0.000 N 
ATOM     12  H   UNL     1       7.667   6.641  18.454  0.00  0.00    +0.000 HD
BRANCH   9  13
ATOM     13  O   UNL     1       7.817   5.574  14.341  0.00  0.00    +0.000 OA
BRANCH  13  15
ATOM     14  C   UNL     1       6.010   4.051  13.923  0.00  0.00    +0.000 C 
ATOM     15  C   UNL     1       7.291   4.648  13.385  0.00  0.00    +0.000 C 
ENDBRANCH  13  15
ENDBRANCH   9  13
ENDBRANCH   1  11
BRANCH   5  16
ATOM     16  S   UNL     1       1.604   4.021  19.223  0.00  0.00    +0.000 S 
ATOM     17  O   UNL     1       1.654   2.531  18.732  0.00  0.00    +0.000 OA
BRANCH  16  18
ATOM     18  C   UNL     1       1.684   4.029  21.043  0.00  0.00    +0.000 C 
ATOM     19  C   UNL     1       1.329   2.661  21.601  0.00  0.00    +0.000 C 
ENDBRANCH  16  18
ENDBRANCH   5  16
TORSDOF 5
ENDMDL
