MODEL 1
REMARK VINA RESULT:      -8.3      0.000      0.000
REMARK  Name = 
REMARK  2 active torsions:
REMARK  status: ('A' for Active; 'I' for Inactive)
REMARK    1  A    between atoms: C_4  and  C_5
REMARK    2  A    between atoms: C_14  and  C_15
REMARK                            x       y       z     vdW  Elec       q    Type
REMARK                         _______ _______ _______ _____ _____    ______ ____
ROOT
ATOM      1  N   UNL     1       7.774   5.005  18.841  0.00  0.00    +0.000 N 
ATOM      2  C   UNL     1       6.938   4.625  17.821  0.00  0.00    +0.000 A 
ATOM      3  N   UNL     1       7.312   4.694  16.571  0.00  0.00    +0.000 NA
ATOM      4  C   UNL     1       6.398   4.301  15.604  0.00  0.00    +0.000 A 
ATOM      5  C   UNL     1       5.167   3.808  15.858  0.00  0.00    +0.000 A 
ATOM      6  C   UNL     1       4.766   3.692  17.202  0.00  0.00    +0.000 A 
ATOM      7  N   UNL     1       3.689   3.250  17.809  0.00  0.00    +0.000 NA
ATOM      8  C   UNL     1       3.968   3.471  19.144  0.00  0.00    +0.000 A 
ATOM      9  N   UNL     1       5.182   3.994  19.392  0.00  0.00    +0.000 NA
ATOM     10  N   UNL     1       5.661   4.130  18.136  0.00  0.00    +0.000 N 
ATOM     11  H   UNL     1       8.758   5.006  18.602  0.00  0.00    +0.000 HD
ATOM     12  H   UNL     1       7.544   4.635  19.761  0.00  0.00    +0.000 HD
ENDROOT
BRANCH   4  13
ATOM     13  C   UNL     1       6.798   4.471  14.197  0.00  0.00    +0.000 A 
ATOM     14  C   UNL     1       7.715   5.470  13.846  0.00  0.00    +0.000 A 
ATOM     15  C   UNL     1       8.101   5.636  12.515  0.00  0.00    +0.000 A 
ATOM     16  C   UNL     1       7.575   4.803  11.528  0.00  0.00    +0.000 A 
ATOM     17  C   UNL     1       6.661   3.806  11.869  0.00  0.00    +0.000 A 
ATOM     18  C   UNL     1       6.272   3.640  13.200  0.00  0.00    +0.000 A 
ENDBRANCH   4  13
BRANCH   8  19
ATOM     19  C   UNL     1       2.974   3.163  20.214  0.00  0.00    +0.000 A 
ATOM     20  C   UNL     1       1.619   3.436  20.143  0.00  0.00    +0.000 A 
ATOM     21  C   UNL     1       1.049   3.015  21.369  0.00  0.00    +0.000 A 
ATOM     22  C   UNL     1       2.087   2.514  22.116  0.00  0.00    +0.000 A 
ATOM     23  O   UNL     1       3.253   2.581  21.423  0.00  0.00    +0.000 OA
ENDBRANCH   8  19
TORSDOF 2
ENDMDL
MODEL 2
REMARK VINA RESULT:      -8.3      0.033      1.055
REMARK  Name = 
REMARK  2 active torsions:
REMARK  status: ('A' for Active; 'I' for Inactive)
REMARK    1  A    between atoms: C_4  and  C_5
REMARK    2  A    between atoms: C_14  and  C_15
REMARK                            x       y       z     vdW  Elec       q    Type
REMARK                         _______ _______ _______ _____ _____    ______ ____
ROOT
ATOM      1  N   UNL     1       7.762   5.053  18.863  0.00  0.00    +0.000 N 
ATOM      2  C   UNL     1       6.935   4.657  17.843  0.00  0.00    +0.000 A 
ATOM      3  N   UNL     1       7.311   4.724  16.594  0.00  0.00    +0.000 NA
ATOM      4  C   UNL     1       6.407   4.314  15.625  0.00  0.00    +0.000 A 
ATOM      5  C   UNL     1       5.181   3.806  15.878  0.00  0.00    +0.000 A 
ATOM      6  C   UNL     1       4.777   3.692  17.222  0.00  0.00    +0.000 A 
ATOM      7  N   UNL     1       3.704   3.239  17.827  0.00  0.00    +0.000 NA
ATOM      8  C   UNL     1       3.976   3.471  19.162  0.00  0.00    +0.000 A 
ATOM      9  N   UNL     1       5.182   4.011  19.411  0.00  0.00    +0.000 NA
ATOM     10  N   UNL     1       5.664   4.147  18.156  0.00  0.00    +0.000 N 
ATOM     11  H   UNL     1       8.746   5.066  18.627  0.00  0.00    +0.000 HD
ATOM     12  H   UNL     1       7.534   4.685  19.784  0.00  0.00    +0.000 HD
ENDROOT
BRANCH   4  13
ATOM     13  C   UNL     1       6.809   4.481  14.219  0.00  0.00    +0.000 A 
ATOM     14  C   UNL     1       6.257   3.654  13.232  0.00  0.00    +0.000 A 
ATOM     15  C   UNL     1       6.631   3.808  11.895  0.00  0.00    +0.000 A 
ATOM     16  C   UNL     1       7.556   4.788  11.538  0.00  0.00    +0.000 A 
ATOM     17  C   UNL     1       8.111   5.614  12.516  0.00  0.00    +0.000 A 
ATOM     18  C   UNL     1       7.739   5.461  13.854  0.00  0.00    +0.000 A 
ENDBRANCH   4  13
BRANCH   8  19
ATOM     19  C   UNL     1       2.982   3.155  20.231  0.00  0.00    +0.000 A 
ATOM     20  C   UNL     1       1.633   3.460  20.177  0.00  0.00    +0.000 A 
ATOM     21  C   UNL     1       1.062   3.019  21.395  0.00  0.00    +0.000 A 
ATOM     22  C   UNL     1       2.094   2.474  22.121  0.00  0.00    +0.000 A 
ATOM     23  O   UNL     1       3.256   2.535  21.421  0.00  0.00    +0.000 OA
ENDBRANCH   8  19
TORSDOF 2
ENDMDL
MODEL 3
REMARK VINA RESULT:      -8.0      2.337      7.469
REMARK  Name = 
REMARK  2 active torsions:
REMARK  status: ('A' for Active; 'I' for Inactive)
REMARK    1  A    between atoms: C_4  and  C_5
REMARK    2  A    between atoms: C_14  and  C_15
REMARK                            x       y       z     vdW  Elec       q    Type
REMARK                         _______ _______ _______ _____ _____    ______ ____
ROOT
ATOM      1  N   UNL     1       7.754   4.948  18.937  0.00  0.00    +0.000 N 
ATOM      2  C   UNL     1       6.499   4.601  18.505  0.00  0.00    +0.000 A 
ATOM      3  N   UNL     1       5.535   4.340  19.348  0.00  0.00    +0.000 NA
ATOM      4  C   UNL     1       4.301   3.984  18.825  0.00  0.00    +0.000 A 
ATOM      5  C   UNL     1       4.005   3.933  17.508  0.00  0.00    +0.000 A 
ATOM      6  C   UNL     1       5.024   4.250  16.589  0.00  0.00    +0.000 A 
ATOM      7  N   UNL     1       5.095   4.327  15.280  0.00  0.00    +0.000 NA
ATOM      8  C   UNL     1       6.418   4.656  15.057  0.00  0.00    +0.000 A 
ATOM      9  N   UNL     1       7.158   4.821  16.168  0.00  0.00    +0.000 NA
ATOM     10  N   UNL     1       6.245   4.549  17.125  0.00  0.00    +0.000 N 
ATOM     11  H   UNL     1       7.789   5.312  19.882  0.00  0.00    +0.000 HD
ATOM     12  H   UNL     1       8.337   5.430  18.257  0.00  0.00    +0.000 HD
ENDROOT
BRANCH   4  13
ATOM     13  C   UNL     1       3.251   3.604  19.784  0.00  0.00    +0.000 A 
ATOM     14  C   UNL     1       1.983   4.195  19.703  0.00  0.00    +0.000 A 
ATOM     15  C   UNL     1       0.981   3.838  20.607  0.00  0.00    +0.000 A 
ATOM     16  C   UNL     1       1.239   2.888  21.595  0.00  0.00    +0.000 A 
ATOM     17  C   UNL     1       2.499   2.296  21.682  0.00  0.00    +0.000 A 
ATOM     18  C   UNL     1       3.503   2.653  20.779  0.00  0.00    +0.000 A 
ENDBRANCH   4  13
BRANCH   8  19
ATOM     19  C   UNL     1       6.969   4.792  13.676  0.00  0.00    +0.000 A 
ATOM     20  C   UNL     1       6.657   3.966  12.610  0.00  0.00    +0.000 A 
ATOM     21  C   UNL     1       7.412   4.420  11.502  0.00  0.00    +0.000 A 
ATOM     22  C   UNL     1       8.142   5.492  11.956  0.00  0.00    +0.000 A 
ATOM     23  O   UNL     1       7.870   5.738  13.264  0.00  0.00    +0.000 OA
ENDBRANCH   8  19
TORSDOF 2
ENDMDL
MODEL 4
REMARK VINA RESULT:      -8.0      2.339      7.473
REMARK  Name = 
REMARK  2 active torsions:
REMARK  status: ('A' for Active; 'I' for Inactive)
REMARK    1  A    between atoms: C_4  and  C_5
REMARK    2  A    between atoms: C_14  and  C_15
REMARK                            x       y       z     vdW  Elec       q    Type
REMARK                         _______ _______ _______ _____ _____    ______ ____
ROOT
ATOM      1  N   UNL     1       7.729   5.039  18.954  0.00  0.00    +0.000 N 
ATOM      2  C   UNL     1       6.481   4.663  18.524  0.00  0.00    +0.000 A 
ATOM      3  N   UNL     1       5.519   4.401  19.368  0.00  0.00    +0.000 NA
ATOM      4  C   UNL     1       4.293   4.016  18.847  0.00  0.00    +0.000 A 
ATOM      5  C   UNL     1       4.002   3.937  17.530  0.00  0.00    +0.000 A 
ATOM      6  C   UNL     1       5.018   4.256  16.610  0.00  0.00    +0.000 A 
ATOM      7  N   UNL     1       5.092   4.312  15.300  0.00  0.00    +0.000 NA
ATOM      8  C   UNL     1       6.411   4.660  15.075  0.00  0.00    +0.000 A 
ATOM      9  N   UNL     1       7.144   4.856  16.186  0.00  0.00    +0.000 NA
ATOM     10  N   UNL     1       6.232   4.584  17.144  0.00  0.00    +0.000 N 
ATOM     11  H   UNL     1       7.755   5.419  19.892  0.00  0.00    +0.000 HD
ATOM     12  H   UNL     1       8.306   5.519  18.268  0.00  0.00    +0.000 HD
ENDROOT
BRANCH   4  13
ATOM     13  C   UNL     1       3.246   3.634  19.809  0.00  0.00    +0.000 A 
ATOM     14  C   UNL     1       3.492   2.619  20.743  0.00  0.00    +0.000 A 
ATOM     15  C   UNL     1       2.506   2.253  21.661  0.00  0.00    +0.000 A 
ATOM     16  C   UNL     1       1.269   2.898  21.651  0.00  0.00    +0.000 A 
ATOM     17  C   UNL     1       1.016   3.908  20.723  0.00  0.00    +0.000 A 
ATOM     18  C   UNL     1       2.002   4.276  19.803  0.00  0.00    +0.000 A 
ENDBRANCH   4  13
BRANCH   8  19
ATOM     19  C   UNL     1       6.964   4.782  13.694  0.00  0.00    +0.000 A 
ATOM     20  C   UNL     1       6.660   3.941  12.638  0.00  0.00    +0.000 A 
ATOM     21  C   UNL     1       7.414   4.386  11.526  0.00  0.00    +0.000 A 
ATOM     22  C   UNL     1       8.137   5.469  11.968  0.00  0.00    +0.000 A 
ATOM     23  O   UNL     1       7.860   5.728  13.272  0.00  0.00    +0.000 OA
ENDBRANCH   8  19
TORSDOF 2
ENDMDL
MODEL 5
REMARK VINA RESULT:      -7.7      4.782      5.706
REMARK  Name = 
REMARK  2 active torsions:
REMARK  status: ('A' for Active; 'I' for Inactive)
REMARK    1  A    between atoms: C_4  and  C_5
REMARK    2  A    between atoms: C_14  and  C_15
REMARK                            x       y       z     vdW  Elec       q    Type
REMARK                         _______ _______ _______ _____ _____    ______ ____
ROOT
ATOM      1  N   UNL     1       2.150   4.508  21.164  0.00  0.00    +0.000 N 
ATOM      2  C   UNL     1       2.484   5.357  20.139  0.00  0.00    +0.000 A 
ATOM      3  N   UNL     1       3.197   4.951  19.122  0.00  0.00    +0.000 NA
ATOM      4  C   UNL     1       3.501   5.878  18.137  0.00  0.00    +0.000 A 
ATOM      5  C   UNL     1       3.074   7.160  18.124  0.00  0.00    +0.000 A 
ATOM      6  C   UNL     1       2.272   7.600  19.194  0.00  0.00    +0.000 A 
ATOM      7  N   UNL     1       1.678   8.731  19.497  0.00  0.00    +0.000 NA
ATOM      8  C   UNL     1       1.092   8.459  20.719  0.00  0.00    +0.000 A 
ATOM      9  N   UNL     1       1.266   7.203  21.166  0.00  0.00    +0.000 NA
ATOM     10  N   UNL     1       2.028   6.685  20.178  0.00  0.00    +0.000 N 
ATOM     11  H   UNL     1       2.186   3.525  20.926  0.00  0.00    +0.000 HD
ATOM     12  H   UNL     1       1.357   4.796  21.734  0.00  0.00    +0.000 HD
ENDROOT
BRANCH   4  13
ATOM     13  C   UNL     1       4.381   5.432  17.045  0.00  0.00    +0.000 A 
ATOM     14  C   UNL     1       4.953   6.374  16.179  0.00  0.00    +0.000 A 
ATOM     15  C   UNL     1       5.791   5.960  15.143  0.00  0.00    +0.000 A 
ATOM     16  C   UNL     1       6.063   4.604  14.965  0.00  0.00    +0.000 A 
ATOM     17  C   UNL     1       5.496   3.660  15.822  0.00  0.00    +0.000 A 
ATOM     18  C   UNL     1       4.656   4.072  16.860  0.00  0.00    +0.000 A 
ENDBRANCH   4  13
BRANCH   8  19
ATOM     19  C   UNL     1       0.343   9.504  21.478  0.00  0.00    +0.000 A 
ATOM     20  C   UNL     1      -0.305   9.300  22.685  0.00  0.00    +0.000 A 
ATOM     21  C   UNL     1      -0.908  10.530  23.041  0.00  0.00    +0.000 A 
ATOM     22  C   UNL     1      -0.598  11.410  22.033  0.00  0.00    +0.000 A 
ATOM     23  O   UNL     1       0.172  10.807  21.091  0.00  0.00    +0.000 OA
ENDBRANCH   8  19
TORSDOF 2
ENDMDL
MODEL 6
REMARK VINA RESULT:      -7.7      4.812      5.808
REMARK  Name = 
REMARK  2 active torsions:
REMARK  status: ('A' for Active; 'I' for Inactive)
REMARK    1  A    between atoms: C_4  and  C_5
REMARK    2  A    between atoms: C_14  and  C_15
REMARK                            x       y       z     vdW  Elec       q    Type
REMARK                         _______ _______ _______ _____ _____    ______ ____
ROOT
ATOM      1  N   UNL     1       2.120   4.539  21.162  0.00  0.00    +0.000 N 
ATOM      2  C   UNL     1       2.459   5.390  20.140  0.00  0.00    +0.000 A 
ATOM      3  N   UNL     1       3.179   4.987  19.127  0.00  0.00    +0.000 NA
ATOM      4  C   UNL     1       3.485   5.916  18.145  0.00  0.00    +0.000 A 
ATOM      5  C   UNL     1       3.056   7.197  18.131  0.00  0.00    +0.000 A 
ATOM      6  C   UNL     1       2.247   7.634  19.197  0.00  0.00    +0.000 A 
ATOM      7  N   UNL     1       1.647   8.763  19.497  0.00  0.00    +0.000 NA
ATOM      8  C   UNL     1       1.055   8.488  20.715  0.00  0.00    +0.000 A 
ATOM      9  N   UNL     1       1.230   7.232  21.162  0.00  0.00    +0.000 NA
ATOM     10  N   UNL     1       1.998   6.717  20.178  0.00  0.00    +0.000 N 
ATOM     11  H   UNL     1       2.160   3.556  20.924  0.00  0.00    +0.000 HD
ATOM     12  H   UNL     1       1.323   4.824  21.728  0.00  0.00    +0.000 HD
ENDROOT
BRANCH   4  13
ATOM     13  C   UNL     1       4.373   5.474  17.057  0.00  0.00    +0.000 A 
ATOM     14  C   UNL     1       4.639   4.109  16.883  0.00  0.00    +0.000 A 
ATOM     15  C   UNL     1       5.477   3.681  15.852  0.00  0.00    +0.000 A 
ATOM     16  C   UNL     1       6.054   4.613  14.990  0.00  0.00    +0.000 A 
ATOM     17  C   UNL     1       5.795   5.973  15.157  0.00  0.00    +0.000 A 
ATOM     18  C   UNL     1       4.957   6.404  16.189  0.00  0.00    +0.000 A 
ENDBRANCH   4  13
BRANCH   8  19
ATOM     19  C   UNL     1       0.298   9.530  21.471  0.00  0.00    +0.000 A 
ATOM     20  C   UNL     1      -0.273   9.350  22.719  0.00  0.00    +0.000 A 
ATOM     21  C   UNL     1      -0.914  10.566  23.058  0.00  0.00    +0.000 A 
ATOM     22  C   UNL     1      -0.700  11.414  21.998  0.00  0.00    +0.000 A 
ATOM     23  O   UNL     1       0.046  10.806  21.041  0.00  0.00    +0.000 OA
ENDBRANCH   8  19
TORSDOF 2
ENDMDL
MODEL 7
REMARK VINA RESULT:      -7.5      4.081      7.829
REMARK  Name = 
REMARK  2 active torsions:
REMARK  status: ('A' for Active; 'I' for Inactive)
REMARK    1  A    between atoms: C_4  and  C_5
REMARK    2  A    between atoms: C_14  and  C_15
REMARK                            x       y       z     vdW  Elec       q    Type
REMARK                         _______ _______ _______ _____ _____    ______ ____
ROOT
ATOM      1  N   UNL     1       3.266   3.542  18.850  0.00  0.00    +0.000 N 
ATOM      2  C   UNL     1       3.270   4.876  18.531  0.00  0.00    +0.000 A 
ATOM      3  N   UNL     1       2.612   5.750  19.245  0.00  0.00    +0.000 NA
ATOM      4  C   UNL     1       2.660   7.077  18.844  0.00  0.00    +0.000 A 
ATOM      5  C   UNL     1       3.376   7.543  17.797  0.00  0.00    +0.000 A 
ATOM      6  C   UNL     1       4.121   6.617  17.043  0.00  0.00    +0.000 A 
ATOM      7  N   UNL     1       4.924   6.705  16.008  0.00  0.00    +0.000 NA
ATOM      8  C   UNL     1       5.275   5.389  15.771  0.00  0.00    +0.000 A 
ATOM      9  N   UNL     1       4.754   4.498  16.634  0.00  0.00    +0.000 NA
ATOM     10  N   UNL     1       4.020   5.309  17.425  0.00  0.00    +0.000 N 
ATOM     11  H   UNL     1       3.028   3.338  19.813  0.00  0.00    +0.000 HD
ATOM     12  H   UNL     1       4.028   2.992  18.458  0.00  0.00    +0.000 HD
ENDROOT
BRANCH   4  13
ATOM     13  C   UNL     1       1.840   8.036  19.602  0.00  0.00    +0.000 A 
ATOM     14  C   UNL     1       1.502   7.767  20.934  0.00  0.00    +0.000 A 
ATOM     15  C   UNL     1       0.727   8.673  21.661  0.00  0.00    +0.000 A 
ATOM     16  C   UNL     1       0.288   9.853  21.062  0.00  0.00    +0.000 A 
ATOM     17  C   UNL     1       0.620  10.127  19.735  0.00  0.00    +0.000 A 
ATOM     18  C   UNL     1       1.394   9.222  19.005  0.00  0.00    +0.000 A 
ENDBRANCH   4  13
BRANCH   8  19
ATOM     19  C   UNL     1       6.151   5.006  14.624  0.00  0.00    +0.000 A 
ATOM     20  C   UNL     1       5.858   4.025  13.692  0.00  0.00    +0.000 A 
ATOM     21  C   UNL     1       6.956   3.962  12.801  0.00  0.00    +0.000 A 
ATOM     22  C   UNL     1       7.855   4.903  13.242  0.00  0.00    +0.000 A 
ATOM     23  O   UNL     1       7.372   5.553  14.332  0.00  0.00    +0.000 OA
ENDBRANCH   8  19
TORSDOF 2
ENDMDL
MODEL 8
REMARK VINA RESULT:      -7.4      3.709      7.641
REMARK  Name = 
REMARK  2 active torsions:
REMARK  status: ('A' for Active; 'I' for Inactive)
REMARK    1  A    between atoms: C_4  and  C_5
REMARK    2  A    between atoms: C_14  and  C_15
REMARK                            x       y       z     vdW  Elec       q    Type
REMARK                         _______ _______ _______ _____ _____    ______ ____
ROOT
ATOM      1  N   UNL     1       5.007   3.515  19.091  0.00  0.00    +0.000 N 
ATOM      2  C   UNL     1       4.521   4.701  18.602  0.00  0.00    +0.000 A 
ATOM      3  N   UNL     1       3.727   5.458  19.312  0.00  0.00    +0.000 NA
ATOM      4  C   UNL     1       3.273   6.634  18.735  0.00  0.00    +0.000 A 
ATOM      5  C   UNL     1       3.627   7.083  17.511  0.00  0.00    +0.000 A 
ATOM      6  C   UNL     1       4.513   6.296  16.751  0.00  0.00    +0.000 A 
ATOM      7  N   UNL     1       5.076   6.420  15.571  0.00  0.00    +0.000 NA
ATOM      8  C   UNL     1       5.801   5.250  15.446  0.00  0.00    +0.000 A 
ATOM      9  N   UNL     1       5.742   4.428  16.509  0.00  0.00    +0.000 NA
ATOM     10  N   UNL     1       4.909   5.118  17.317  0.00  0.00    +0.000 N 
ATOM     11  H   UNL     1       4.998   3.439  20.100  0.00  0.00    +0.000 HD
ATOM     12  H   UNL     1       5.839   3.155  18.628  0.00  0.00    +0.000 HD
ENDROOT
BRANCH   4  13
ATOM     13  C   UNL     1       2.307   7.431  19.510  0.00  0.00    +0.000 A 
ATOM     14  C   UNL     1       1.875   8.672  19.023  0.00  0.00    +0.000 A 
ATOM     15  C   UNL     1       0.957   9.432  19.750  0.00  0.00    +0.000 A 
ATOM     16  C   UNL     1       0.465   8.957  20.965  0.00  0.00    +0.000 A 
ATOM     17  C   UNL     1       0.892   7.723  21.457  0.00  0.00    +0.000 A 
ATOM     18  C   UNL     1       1.811   6.961  20.732  0.00  0.00    +0.000 A 
ENDBRANCH   4  13
BRANCH   8  19
ATOM     19  C   UNL     1       6.570   4.934  14.206  0.00  0.00    +0.000 A 
ATOM     20  C   UNL     1       6.246   3.939  13.300  0.00  0.00    +0.000 A 
ATOM     21  C   UNL     1       7.241   3.957  12.294  0.00  0.00    +0.000 A 
ATOM     22  C   UNL     1       8.115   4.957  12.645  0.00  0.00    +0.000 A 
ATOM     23  O   UNL     1       7.712   5.567  13.789  0.00  0.00    +0.000 OA
ENDBRANCH   8  19
TORSDOF 2
ENDMDL
MODEL 9
REMARK VINA RESULT:      -7.4      4.765      8.469
REMARK  Name = 
REMARK  2 active torsions:
REMARK  status: ('A' for Active; 'I' for Inactive)
REMARK    1  A    between atoms: C_4  and  C_5
REMARK    2  A    between atoms: C_14  and  C_15
REMARK                            x       y       z     vdW  Elec       q    Type
REMARK                         _______ _______ _______ _____ _____    ______ ____
ROOT
ATOM      1  N   UNL     1       1.973   4.453  21.026  0.00  0.00    +0.000 N 
ATOM      2  C   UNL     1       1.983   5.715  20.490  0.00  0.00    +0.000 A 
ATOM      3  N   UNL     1       1.339   6.702  21.054  0.00  0.00    +0.000 NA
ATOM      4  C   UNL     1       1.393   7.943  20.437  0.00  0.00    +0.000 A 
ATOM      5  C   UNL     1       2.101   8.221  19.321  0.00  0.00    +0.000 A 
ATOM      6  C   UNL     1       2.832   7.176  18.724  0.00  0.00    +0.000 A 
ATOM      7  N   UNL     1       3.626   7.083  17.683  0.00  0.00    +0.000 NA
ATOM      8  C   UNL     1       3.964   5.743  17.665  0.00  0.00    +0.000 A 
ATOM      9  N   UNL     1       3.446   5.013  18.669  0.00  0.00    +0.000 NA
ATOM     10  N   UNL     1       2.725   5.951  19.320  0.00  0.00    +0.000 N 
ATOM     11  H   UNL     1       1.743   4.415  22.012  0.00  0.00    +0.000 HD
ATOM     12  H   UNL     1       2.727   3.839  20.725  0.00  0.00    +0.000 HD
ENDROOT
BRANCH   4  13
ATOM     13  C   UNL     1       0.588   9.022  21.031  0.00  0.00    +0.000 A 
ATOM     14  C   UNL     1       0.077  10.042  20.218  0.00  0.00    +0.000 A 
ATOM     15  C   UNL     1      -0.690  11.068  20.773  0.00  0.00    +0.000 A 
ATOM     16  C   UNL     1      -0.951  11.081  22.143  0.00  0.00    +0.000 A 
ATOM     17  C   UNL     1      -0.444  10.069  22.960  0.00  0.00    +0.000 A 
ATOM     18  C   UNL     1       0.324   9.042  22.406  0.00  0.00    +0.000 A 
ENDBRANCH   4  13
BRANCH   8  19
ATOM     19  C   UNL     1       4.825   5.166  16.590  0.00  0.00    +0.000 A 
ATOM     20  C   UNL     1       5.325   5.870  15.508  0.00  0.00    +0.000 A 
ATOM     21  C   UNL     1       6.060   4.950  14.723  0.00  0.00    +0.000 A 
ATOM     22  C   UNL     1       5.964   3.741  15.368  0.00  0.00    +0.000 A 
ATOM     23  O   UNL     1       5.234   3.862  16.507  0.00  0.00    +0.000 OA
ENDBRANCH   8  19
TORSDOF 2
ENDMDL
