MODEL 1
REMARK VINA RESULT:      -8.7      0.000      0.000
REMARK  Name = 
REMARK  10 active torsions:
REMARK  status: ('A' for Active; 'I' for Inactive)
REMARK    1  A    between atoms: C_2  and  C_3
REMARK    2  A    between atoms: C_3  and  N_4
REMARK    3  A    between atoms: N_11  and  C_12
REMARK    4  A    between atoms: C_15  and  N_16
REMARK    5  A    between atoms: N_19  and  C_20
REMARK    6  A    between atoms: N_27  and  C_28
REMARK    7  A    between atoms: C_32  and  C_33
REMARK    8  A    between atoms: C_33  and  C_34
REMARK    9  A    between atoms: C_33  and  C_35
REMARK   10  A    between atoms: C_33  and  O_36
REMARK                            x       y       z     vdW  Elec       q    Type
REMARK                         _______ _______ _______ _____ _____    ______ ____
ROOT
ATOM      1  N   UNL     1       3.622   3.774  20.073  0.00  0.00    +0.000 N 
ATOM      2  C   UNL     1       2.411   3.962  20.720  0.00  0.00    +0.000 A 
ATOM      3  O   UNL     1       1.730   3.180  21.351  0.00  0.00    +0.000 OA
ATOM      4  C   UNL     1       2.037   5.340  20.489  0.00  0.00    +0.000 A 
ATOM      5  C   UNL     1       1.022   6.091  20.964  0.00  0.00    +0.000 A 
ATOM      6  N   UNL     1       0.927   7.382  20.615  0.00  0.00    +0.000 NA
ATOM      7  C   UNL     1       1.855   7.904  19.766  0.00  0.00    +0.000 A 
ATOM      8  N   UNL     1       1.735   9.257  19.431  0.00  0.00    +0.000 N 
ATOM      9  N   UNL     1       2.886   7.197  19.257  0.00  0.00    +0.000 NA
ATOM     10  C   UNL     1       2.951   5.902  19.632  0.00  0.00    +0.000 A 
ATOM     11  N   UNL     1       3.875   4.888  19.200  0.00  0.00    +0.000 N 
ATOM     12  H   UNL     1       2.490   9.541  18.814  0.00  0.00    +0.000 HD
ENDROOT
BRANCH   8  13
ATOM     13  C   UNL     1       0.527   9.948  19.245  0.00  0.00    +0.000 A 
ATOM     14  C   UNL     1      -0.207   9.808  18.062  0.00  0.00    +0.000 A 
ATOM     15  C   UNL     1      -1.456  10.437  17.903  0.00  0.00    +0.000 A 
ATOM     16  C   UNL     1      -2.010  11.217  18.941  0.00  0.00    +0.000 A 
ATOM     17  C   UNL     1      -1.243  11.372  20.087  0.00  0.00    +0.000 A 
ATOM     18  C   UNL     1      -0.014  10.761  20.251  0.00  0.00    +0.000 A 
BRANCH  16  19
ATOM     19  N   UNL     1      -3.292  11.719  18.877  0.00  0.00    +0.000 N 
ATOM     20  C   UNL     1      -3.743  12.706  19.871  0.00  0.00    +0.000 C 
ATOM     21  C   UNL     1      -5.248  12.501  20.147  0.00  0.00    +0.000 C 
ATOM     22  N   UNL     1      -6.057  12.562  18.906  0.00  0.00    +0.000 NA
ATOM     23  C   UNL     1      -7.469  12.347  19.199  0.00  0.00    +0.000 C 
ATOM     24  C   UNL     1      -5.554  11.538  17.955  0.00  0.00    +0.000 C 
ATOM     25  C   UNL     1      -4.054  11.723  17.623  0.00  0.00    +0.000 C 
ENDBRANCH  16  19
ENDBRANCH   8  13
BRANCH  11  26
ATOM     26  C   UNL     1       5.108   5.012  18.540  0.00  0.00    +0.000 A 
ATOM     27  C   UNL     1       6.306   5.215  19.248  0.00  0.00    +0.000 A 
ATOM     28  C   UNL     1       7.514   5.364  18.586  0.00  0.00    +0.000 A 
ATOM     29  C   UNL     1       7.560   5.298  17.197  0.00  0.00    +0.000 A 
ATOM     30  C   UNL     1       6.394   5.076  16.445  0.00  0.00    +0.000 A 
ATOM     31  C   UNL     1       5.188   4.918  17.145  0.00  0.00    +0.000 A 
BRANCH  30  32
ATOM     32  C   UNL     1       6.435   5.026  14.920  0.00  0.00    +0.000 C 
ATOM     33  C   UNL     1       6.221   3.596  14.407  0.00  0.00    +0.000 C 
ATOM     34  C   UNL     1       5.402   5.979  14.308  0.00  0.00    +0.000 C 
BRANCH  32  35
ATOM     35  O   UNL     1       7.712   5.458  14.433  0.00  0.00    +0.000 OA
ATOM     36  H   UNL     1       8.383   4.887  14.840  0.00  0.00    +0.000 HD
ENDBRANCH  32  35
ENDBRANCH  30  32
ENDBRANCH  11  26
BRANCH   1  37
ATOM     37  C   UNL     1       4.314   2.506  20.021  0.00  0.00    +0.000 C 
BRANCH  37  39
ATOM     38  C   UNL     1       3.106   1.981  17.890  0.00  0.00    +0.000 C 
ATOM     39  C   UNL     1       3.660   1.582  19.032  0.00  0.00    +0.000 C 
ENDBRANCH  37  39
ENDBRANCH   1  37
TORSDOF 7
ENDMDL
MODEL 2
REMARK VINA RESULT:      -7.9      3.813     11.994
REMARK  Name = 
REMARK  10 active torsions:
REMARK  status: ('A' for Active; 'I' for Inactive)
REMARK    1  A    between atoms: C_2  and  C_3
REMARK    2  A    between atoms: C_3  and  N_4
REMARK    3  A    between atoms: N_11  and  C_12
REMARK    4  A    between atoms: C_15  and  N_16
REMARK    5  A    between atoms: N_19  and  C_20
REMARK    6  A    between atoms: N_27  and  C_28
REMARK    7  A    between atoms: C_32  and  C_33
REMARK    8  A    between atoms: C_33  and  C_34
REMARK    9  A    between atoms: C_33  and  C_35
REMARK   10  A    between atoms: C_33  and  O_36
REMARK                            x       y       z     vdW  Elec       q    Type
REMARK                         _______ _______ _______ _____ _____    ______ ____
ROOT
ATOM      1  N   UNL     1      -2.021  14.635  20.789  0.00  0.00    +0.000 N 
ATOM      2  C   UNL     1      -0.643  14.675  20.646  0.00  0.00    +0.000 A 
ATOM      3  O   UNL     1       0.110  15.623  20.563  0.00  0.00    +0.000 OA
ATOM      4  C   UNL     1      -0.202  13.298  20.580  0.00  0.00    +0.000 A 
ATOM      5  C   UNL     1       1.028  12.746  20.549  0.00  0.00    +0.000 A 
ATOM      6  N   UNL     1       1.161  11.412  20.529  0.00  0.00    +0.000 NA
ATOM      7  C   UNL     1       0.039  10.640  20.521  0.00  0.00    +0.000 A 
ATOM      8  N   UNL     1       0.211   9.252  20.512  0.00  0.00    +0.000 N 
ATOM      9  N   UNL     1      -1.215  11.140  20.544  0.00  0.00    +0.000 NA
ATOM     10  C   UNL     1      -1.309  12.486  20.566  0.00  0.00    +0.000 A 
ATOM     11  N   UNL     1      -2.491  13.305  20.516  0.00  0.00    +0.000 N 
ATOM     12  H   UNL     1      -0.689   8.780  20.529  0.00  0.00    +0.000 HD
ENDROOT
BRANCH   8  13
ATOM     13  C   UNL     1       1.229   8.559  19.838  0.00  0.00    +0.000 A 
ATOM     14  C   UNL     1       1.832   7.433  20.410  0.00  0.00    +0.000 A 
ATOM     15  C   UNL     1       2.798   6.690  19.705  0.00  0.00    +0.000 A 
ATOM     16  C   UNL     1       3.175   7.054  18.394  0.00  0.00    +0.000 A 
ATOM     17  C   UNL     1       2.592   8.198  17.868  0.00  0.00    +0.000 A 
ATOM     18  C   UNL     1       1.645   8.936  18.553  0.00  0.00    +0.000 A 
BRANCH  16  19
ATOM     19  N   UNL     1       4.000   6.265  17.623  0.00  0.00    +0.000 N 
ATOM     20  C   UNL     1       5.111   6.877  16.875  0.00  0.00    +0.000 C 
ATOM     21  C   UNL     1       5.330   6.099  15.560  0.00  0.00    +0.000 C 
ATOM     22  N   UNL     1       5.557   4.654  15.796  0.00  0.00    +0.000 NA
ATOM     23  C   UNL     1       5.742   3.948  14.534  0.00  0.00    +0.000 C 
ATOM     24  C   UNL     1       4.399   4.102  16.544  0.00  0.00    +0.000 C 
ATOM     25  C   UNL     1       4.160   4.831  17.889  0.00  0.00    +0.000 C 
ENDBRANCH  16  19
ENDBRANCH   8  13
BRANCH  11  26
ATOM     26  C   UNL     1      -3.835  12.963  20.735  0.00  0.00    +0.000 A 
ATOM     27  C   UNL     1      -4.691  12.619  19.673  0.00  0.00    +0.000 A 
ATOM     28  C   UNL     1      -6.023  12.310  19.896  0.00  0.00    +0.000 A 
ATOM     29  C   UNL     1      -6.532  12.319  21.191  0.00  0.00    +0.000 A 
ATOM     30  C   UNL     1      -5.713  12.635  22.288  0.00  0.00    +0.000 A 
ATOM     31  C   UNL     1      -4.366  12.934  22.030  0.00  0.00    +0.000 A 
BRANCH  30  32
ATOM     32  C   UNL     1      -6.273  12.669  23.707  0.00  0.00    +0.000 C 
ATOM     33  C   UNL     1      -5.152  12.544  24.747  0.00  0.00    +0.000 C 
ATOM     34  C   UNL     1      -7.091  13.943  23.948  0.00  0.00    +0.000 C 
BRANCH  32  35
ATOM     35  O   UNL     1      -7.171  11.574  23.926  0.00  0.00    +0.000 OA
ATOM     36  H   UNL     1      -8.042  11.953  24.126  0.00  0.00    +0.000 HD
ENDBRANCH  32  35
ENDBRANCH  30  32
ENDBRANCH  11  26
BRANCH   1  37
ATOM     37  C   UNL     1      -2.854  15.815  20.843  0.00  0.00    +0.000 C 
BRANCH  37  39
ATOM     38  C   UNL     1      -2.966  15.883  23.345  0.00  0.00    +0.000 C 
ATOM     39  C   UNL     1      -2.739  16.489  22.182  0.00  0.00    +0.000 C 
ENDBRANCH  37  39
ENDBRANCH   1  37
TORSDOF 7
ENDMDL
MODEL 3
REMARK VINA RESULT:      -7.9      3.976     11.740
REMARK  Name = 
REMARK  10 active torsions:
REMARK  status: ('A' for Active; 'I' for Inactive)
REMARK    1  A    between atoms: C_2  and  C_3
REMARK    2  A    between atoms: C_3  and  N_4
REMARK    3  A    between atoms: N_11  and  C_12
REMARK    4  A    between atoms: C_15  and  N_16
REMARK    5  A    between atoms: N_19  and  C_20
REMARK    6  A    between atoms: N_27  and  C_28
REMARK    7  A    between atoms: C_32  and  C_33
REMARK    8  A    between atoms: C_33  and  C_34
REMARK    9  A    between atoms: C_33  and  C_35
REMARK   10  A    between atoms: C_33  and  O_36
REMARK                            x       y       z     vdW  Elec       q    Type
REMARK                         _______ _______ _______ _____ _____    ______ ____
ROOT
ATOM      1  N   UNL     1      -4.842  12.747  19.218  0.00  0.00    +0.000 N 
ATOM      2  C   UNL     1      -4.593  11.837  18.203  0.00  0.00    +0.000 A 
ATOM      3  O   UNL     1      -5.312  11.446  17.307  0.00  0.00    +0.000 OA
ATOM      4  C   UNL     1      -3.240  11.364  18.405  0.00  0.00    +0.000 A 
ATOM      5  C   UNL     1      -2.446  10.561  17.668  0.00  0.00    +0.000 A 
ATOM      6  N   UNL     1      -1.192  10.309  18.071  0.00  0.00    +0.000 NA
ATOM      7  C   UNL     1      -0.753  10.862  19.235  0.00  0.00    +0.000 A 
ATOM      8  N   UNL     1       0.564  10.591  19.621  0.00  0.00    +0.000 N 
ATOM      9  N   UNL     1      -1.507  11.668  20.013  0.00  0.00    +0.000 NA
ATOM     10  C   UNL     1      -2.762  11.900  19.575  0.00  0.00    +0.000 A 
ATOM     11  N   UNL     1      -3.814  12.642  20.217  0.00  0.00    +0.000 N 
ATOM     12  H   UNL     1       0.788  11.072  20.488  0.00  0.00    +0.000 HD
ENDROOT
BRANCH   8  13
ATOM     13  C   UNL     1       1.238   9.375  19.426  0.00  0.00    +0.000 A 
ATOM     14  C   UNL     1       1.329   8.431  20.455  0.00  0.00    +0.000 A 
ATOM     15  C   UNL     1       1.937   7.179  20.240  0.00  0.00    +0.000 A 
ATOM     16  C   UNL     1       2.459   6.837  18.974  0.00  0.00    +0.000 A 
ATOM     17  C   UNL     1       2.391   7.807  17.984  0.00  0.00    +0.000 A 
ATOM     18  C   UNL     1       1.800   9.040  18.186  0.00  0.00    +0.000 A 
BRANCH  16  19
ATOM     19  N   UNL     1       2.919   5.570  18.690  0.00  0.00    +0.000 N 
ATOM     20  C   UNL     1       2.206   4.733  17.710  0.00  0.00    +0.000 C 
ATOM     21  C   UNL     1       2.315   3.252  18.130  0.00  0.00    +0.000 C 
ATOM     22  N   UNL     1       3.723   2.820  18.299  0.00  0.00    +0.000 NA
ATOM     23  C   UNL     1       3.789   1.424  18.712  0.00  0.00    +0.000 C 
ATOM     24  C   UNL     1       4.376   3.699  19.303  0.00  0.00    +0.000 C 
ATOM     25  C   UNL     1       4.321   5.194  18.908  0.00  0.00    +0.000 C 
ENDBRANCH  16  19
ENDBRANCH   8  13
BRANCH  11  26
ATOM     26  C   UNL     1      -3.753  13.558  21.279  0.00  0.00    +0.000 A 
ATOM     27  C   UNL     1      -4.124  13.196  22.586  0.00  0.00    +0.000 A 
ATOM     28  C   UNL     1      -4.087  14.114  23.623  0.00  0.00    +0.000 A 
ATOM     29  C   UNL     1      -3.661  15.418  23.384  0.00  0.00    +0.000 A 
ATOM     30  C   UNL     1      -3.260  15.822  22.100  0.00  0.00    +0.000 A 
ATOM     31  C   UNL     1      -3.299  14.867  21.073  0.00  0.00    +0.000 A 
BRANCH  30  32
ATOM     32  C   UNL     1      -2.815  17.257  21.828  0.00  0.00    +0.000 C 
ATOM     33  C   UNL     1      -3.811  18.266  22.414  0.00  0.00    +0.000 C 
ATOM     34  C   UNL     1      -1.406  17.511  22.374  0.00  0.00    +0.000 C 
BRANCH  32  35
ATOM     35  O   UNL     1      -2.745  17.508  20.419  0.00  0.00    +0.000 OA
ATOM     36  H   UNL     1      -3.240  18.326  20.248  0.00  0.00    +0.000 HD
ENDBRANCH  32  35
ENDBRANCH  30  32
ENDBRANCH  11  26
BRANCH   1  37
ATOM     37  C   UNL     1      -6.111  13.414  19.401  0.00  0.00    +0.000 C 
BRANCH  37  39
ATOM     38  C   UNL     1      -7.322  12.157  21.199  0.00  0.00    +0.000 C 
ATOM     39  C   UNL     1      -7.149  12.453  19.914  0.00  0.00    +0.000 C 
ENDBRANCH  37  39
ENDBRANCH   1  37
TORSDOF 7
ENDMDL
MODEL 4
REMARK VINA RESULT:      -7.8      1.085      1.399
REMARK  Name = 
REMARK  10 active torsions:
REMARK  status: ('A' for Active; 'I' for Inactive)
REMARK    1  A    between atoms: C_2  and  C_3
REMARK    2  A    between atoms: C_3  and  N_4
REMARK    3  A    between atoms: N_11  and  C_12
REMARK    4  A    between atoms: C_15  and  N_16
REMARK    5  A    between atoms: N_19  and  C_20
REMARK    6  A    between atoms: N_27  and  C_28
REMARK    7  A    between atoms: C_32  and  C_33
REMARK    8  A    between atoms: C_33  and  C_34
REMARK    9  A    between atoms: C_33  and  C_35
REMARK   10  A    between atoms: C_33  and  O_36
REMARK                            x       y       z     vdW  Elec       q    Type
REMARK                         _______ _______ _______ _____ _____    ______ ____
ROOT
ATOM      1  N   UNL     1       3.665   4.612  19.843  0.00  0.00    +0.000 N 
ATOM      2  C   UNL     1       2.538   4.775  20.633  0.00  0.00    +0.000 A 
ATOM      3  O   UNL     1       2.019   4.015  21.424  0.00  0.00    +0.000 OA
ATOM      4  C   UNL     1       2.015   6.089  20.328  0.00  0.00    +0.000 A 
ATOM      5  C   UNL     1       1.009   6.806  20.868  0.00  0.00    +0.000 A 
ATOM      6  N   UNL     1       0.752   8.042  20.415  0.00  0.00    +0.000 NA
ATOM      7  C   UNL     1       1.509   8.540  19.399  0.00  0.00    +0.000 A 
ATOM      8  N   UNL     1       1.225   9.836  18.958  0.00  0.00    +0.000 N 
ATOM      9  N   UNL     1       2.523   7.863  18.818  0.00  0.00    +0.000 NA
ATOM     10  C   UNL     1       2.753   6.624  19.301  0.00  0.00    +0.000 A 
ATOM     11  N   UNL     1       3.699   5.643  18.841  0.00  0.00    +0.000 N 
ATOM     12  H   UNL     1       1.863  10.110  18.217  0.00  0.00    +0.000 HD
ENDROOT
BRANCH   8  13
ATOM     13  C   UNL     1      -0.054  10.410  18.880  0.00  0.00    +0.000 A 
ATOM     14  C   UNL     1      -0.908  10.120  17.809  0.00  0.00    +0.000 A 
ATOM     15  C   UNL     1      -2.219  10.632  17.766  0.00  0.00    +0.000 A 
ATOM     16  C   UNL     1      -2.713  11.442  18.812  0.00  0.00    +0.000 A 
ATOM     17  C   UNL     1      -1.833  11.746  19.840  0.00  0.00    +0.000 A 
ATOM     18  C   UNL     1      -0.543  11.252  19.889  0.00  0.00    +0.000 A 
BRANCH  16  19
ATOM     19  N   UNL     1      -4.034  11.830  18.876  0.00  0.00    +0.000 N 
ATOM     20  C   UNL     1      -5.062  11.047  18.170  0.00  0.00    +0.000 C 
ATOM     21  C   UNL     1      -6.176  11.996  17.678  0.00  0.00    +0.000 C 
ATOM     22  N   UNL     1      -6.757  12.797  18.782  0.00  0.00    +0.000 NA
ATOM     23  C   UNL     1      -7.791  13.693  18.280  0.00  0.00    +0.000 C 
ATOM     24  C   UNL     1      -5.669  13.564  19.441  0.00  0.00    +0.000 C 
ATOM     25  C   UNL     1      -4.542  12.651  19.980  0.00  0.00    +0.000 C 
ENDBRANCH  16  19
ENDBRANCH   8  13
BRANCH  11  26
ATOM     26  C   UNL     1       4.817   5.790  18.006  0.00  0.00    +0.000 A 
ATOM     27  C   UNL     1       5.828   6.728  18.284  0.00  0.00    +0.000 A 
ATOM     28  C   UNL     1       6.914   6.886  17.439  0.00  0.00    +0.000 A 
ATOM     29  C   UNL     1       7.029   6.096  16.298  0.00  0.00    +0.000 A 
ATOM     30  C   UNL     1       6.057   5.130  15.988  0.00  0.00    +0.000 A 
ATOM     31  C   UNL     1       4.975   4.988  16.869  0.00  0.00    +0.000 A 
BRANCH  30  32
ATOM     32  C   UNL     1       6.167   4.278  14.726  0.00  0.00    +0.000 C 
ATOM     33  C   UNL     1       4.862   4.312  13.921  0.00  0.00    +0.000 C 
ATOM     34  C   UNL     1       7.348   4.726  13.858  0.00  0.00    +0.000 C 
BRANCH  32  35
ATOM     35  O   UNL     1       6.417   2.907  15.060  0.00  0.00    +0.000 OA
ATOM     36  H   UNL     1       7.374   2.762  14.980  0.00  0.00    +0.000 HD
ENDBRANCH  32  35
ENDBRANCH  30  32
ENDBRANCH  11  26
BRANCH   1  37
ATOM     37  C   UNL     1       4.455   3.402  19.814  0.00  0.00    +0.000 C 
BRANCH  37  39
ATOM     38  C   UNL     1       3.649   1.760  18.102  0.00  0.00    +0.000 C 
ATOM     39  C   UNL     1       3.629   2.237  19.344  0.00  0.00    +0.000 C 
ENDBRANCH  37  39
ENDBRANCH   1  37
TORSDOF 7
ENDMDL
MODEL 5
REMARK VINA RESULT:      -7.7      3.831     11.930
REMARK  Name = 
REMARK  10 active torsions:
REMARK  status: ('A' for Active; 'I' for Inactive)
REMARK    1  A    between atoms: C_2  and  C_3
REMARK    2  A    between atoms: C_3  and  N_4
REMARK    3  A    between atoms: N_11  and  C_12
REMARK    4  A    between atoms: C_15  and  N_16
REMARK    5  A    between atoms: N_19  and  C_20
REMARK    6  A    between atoms: N_27  and  C_28
REMARK    7  A    between atoms: C_32  and  C_33
REMARK    8  A    between atoms: C_33  and  C_34
REMARK    9  A    between atoms: C_33  and  C_35
REMARK   10  A    between atoms: C_33  and  O_36
REMARK                            x       y       z     vdW  Elec       q    Type
REMARK                         _______ _______ _______ _____ _____    ______ ____
ROOT
ATOM      1  N   UNL     1      -5.380  12.915  19.399  0.00  0.00    +0.000 N 
ATOM      2  C   UNL     1      -5.243  11.787  18.605  0.00  0.00    +0.000 A 
ATOM      3  O   UNL     1      -6.080  11.148  18.002  0.00  0.00    +0.000 OA
ATOM      4  C   UNL     1      -3.838  11.443  18.627  0.00  0.00    +0.000 A 
ATOM      5  C   UNL     1      -3.127  10.513  17.957  0.00  0.00    +0.000 A 
ATOM      6  N   UNL     1      -1.801  10.430  18.137  0.00  0.00    +0.000 NA
ATOM      7  C   UNL     1      -1.201  11.282  19.014  0.00  0.00    +0.000 A 
ATOM      8  N   UNL     1       0.184  11.178  19.169  0.00  0.00    +0.000 N 
ATOM      9  N   UNL     1      -1.866  12.225  19.715  0.00  0.00    +0.000 NA
ATOM     10  C   UNL     1      -3.198  12.281  19.506  0.00  0.00    +0.000 A 
ATOM     11  N   UNL     1      -4.174  13.116  20.155  0.00  0.00    +0.000 N 
ATOM     12  H   UNL     1       0.524  11.873  19.827  0.00  0.00    +0.000 HD
ENDROOT
BRANCH   8  13
ATOM     13  C   UNL     1       0.923   9.984  19.137  0.00  0.00    +0.000 A 
ATOM     14  C   UNL     1       1.029   9.173  20.274  0.00  0.00    +0.000 A 
ATOM     15  C   UNL     1       1.702   7.938  20.224  0.00  0.00    +0.000 A 
ATOM     16  C   UNL     1       2.278   7.476  19.020  0.00  0.00    +0.000 A 
ATOM     17  C   UNL     1       2.192   8.317  17.920  0.00  0.00    +0.000 A 
ATOM     18  C   UNL     1       1.537   9.533  17.960  0.00  0.00    +0.000 A 
BRANCH  16  19
ATOM     19  N   UNL     1       2.807   6.210  18.901  0.00  0.00    +0.000 N 
ATOM     20  C   UNL     1       3.774   5.918  17.829  0.00  0.00    +0.000 C 
ATOM     21  C   UNL     1       3.592   4.458  17.362  0.00  0.00    +0.000 C 
ATOM     22  N   UNL     1       3.707   3.494  18.483  0.00  0.00    +0.000 NA
ATOM     23  C   UNL     1       3.513   2.128  18.011  0.00  0.00    +0.000 C 
ATOM     24  C   UNL     1       2.702   3.842  19.519  0.00  0.00    +0.000 C 
ATOM     25  C   UNL     1       2.865   5.289  20.042  0.00  0.00    +0.000 C 
ENDBRANCH  16  19
ENDBRANCH   8  13
BRANCH  11  26
ATOM     26  C   UNL     1      -3.999  14.275  20.927  0.00  0.00    +0.000 A 
ATOM     27  C   UNL     1      -4.237  15.556  20.398  0.00  0.00    +0.000 A 
ATOM     28  C   UNL     1      -4.036  16.696  21.159  0.00  0.00    +0.000 A 
ATOM     29  C   UNL     1      -3.606  16.586  22.478  0.00  0.00    +0.000 A 
ATOM     30  C   UNL     1      -3.375  15.328  23.060  0.00  0.00    +0.000 A 
ATOM     31  C   UNL     1      -3.598  14.192  22.266  0.00  0.00    +0.000 A 
BRANCH  30  32
ATOM     32  C   UNL     1      -2.882  15.202  24.499  0.00  0.00    +0.000 C 
ATOM     33  C   UNL     1      -1.451  14.650  24.547  0.00  0.00    +0.000 C 
ATOM     34  C   UNL     1      -2.965  16.546  25.231  0.00  0.00    +0.000 C 
BRANCH  32  35
ATOM     35  O   UNL     1      -3.706  14.294  25.240  0.00  0.00    +0.000 OA
ATOM     36  H   UNL     1      -3.565  13.408  24.867  0.00  0.00    +0.000 HD
ENDBRANCH  32  35
ENDBRANCH  30  32
ENDBRANCH  11  26
BRANCH   1  37
ATOM     37  C   UNL     1      -6.648  13.549  19.678  0.00  0.00    +0.000 C 
BRANCH  37  39
ATOM     38  C   UNL     1      -7.897  14.121  17.582  0.00  0.00    +0.000 C 
ATOM     39  C   UNL     1      -7.049  14.459  18.550  0.00  0.00    +0.000 C 
ENDBRANCH  37  39
ENDBRANCH   1  37
TORSDOF 7
ENDMDL
MODEL 6
REMARK VINA RESULT:      -7.6      3.696     12.054
REMARK  Name = 
REMARK  10 active torsions:
REMARK  status: ('A' for Active; 'I' for Inactive)
REMARK    1  A    between atoms: C_2  and  C_3
REMARK    2  A    between atoms: C_3  and  N_4
REMARK    3  A    between atoms: N_11  and  C_12
REMARK    4  A    between atoms: C_15  and  N_16
REMARK    5  A    between atoms: N_19  and  C_20
REMARK    6  A    between atoms: N_27  and  C_28
REMARK    7  A    between atoms: C_32  and  C_33
REMARK    8  A    between atoms: C_33  and  C_34
REMARK    9  A    between atoms: C_33  and  C_35
REMARK   10  A    between atoms: C_33  and  O_36
REMARK                            x       y       z     vdW  Elec       q    Type
REMARK                         _______ _______ _______ _____ _____    ______ ____
ROOT
ATOM      1  N   UNL     1      -4.990  12.707  18.821  0.00  0.00    +0.000 N 
ATOM      2  C   UNL     1      -4.751  11.639  17.971  0.00  0.00    +0.000 A 
ATOM      3  O   UNL     1      -5.484  11.093  17.174  0.00  0.00    +0.000 OA
ATOM      4  C   UNL     1      -3.387  11.222  18.217  0.00  0.00    +0.000 A 
ATOM      5  C   UNL     1      -2.599  10.312  17.609  0.00  0.00    +0.000 A 
ATOM      6  N   UNL     1      -1.333  10.146  18.018  0.00  0.00    +0.000 NA
ATOM      7  C   UNL     1      -0.875  10.895  19.059  0.00  0.00    +0.000 A 
ATOM      8  N   UNL     1       0.454  10.708  19.453  0.00  0.00    +0.000 N 
ATOM      9  N   UNL     1      -1.622  11.815  19.707  0.00  0.00    +0.000 NA
ATOM     10  C   UNL     1      -2.890  11.955  19.267  0.00  0.00    +0.000 A 
ATOM     11  N   UNL     1      -3.938  12.786  19.798  0.00  0.00    +0.000 N 
ATOM     12  H   UNL     1       0.691  11.332  20.219  0.00  0.00    +0.000 HD
ENDROOT
BRANCH   8  13
ATOM     13  C   UNL     1       1.141   9.484  19.453  0.00  0.00    +0.000 A 
ATOM     14  C   UNL     1       1.131   8.653  20.579  0.00  0.00    +0.000 A 
ATOM     15  C   UNL     1       1.753   7.391  20.555  0.00  0.00    +0.000 A 
ATOM     16  C   UNL     1       2.394   6.922  19.388  0.00  0.00    +0.000 A 
ATOM     17  C   UNL     1       2.424   7.782  18.300  0.00  0.00    +0.000 A 
ATOM     18  C   UNL     1       1.819   9.025  18.314  0.00  0.00    +0.000 A 
BRANCH  16  19
ATOM     19  N   UNL     1       2.877   5.635  19.284  0.00  0.00    +0.000 N 
ATOM     20  C   UNL     1       1.971   4.494  19.493  0.00  0.00    +0.000 C 
ATOM     21  C   UNL     1       2.756   3.331  20.136  0.00  0.00    +0.000 C 
ATOM     22  N   UNL     1       3.945   2.950  19.337  0.00  0.00    +0.000 NA
ATOM     23  C   UNL     1       4.673   1.863  19.981  0.00  0.00    +0.000 C 
ATOM     24  C   UNL     1       4.815   4.142  19.173  0.00  0.00    +0.000 C 
ATOM     25  C   UNL     1       4.079   5.326  18.502  0.00  0.00    +0.000 C 
ENDBRANCH  16  19
ENDBRANCH   8  13
BRANCH  11  26
ATOM     26  C   UNL     1      -3.867  13.871  20.686  0.00  0.00    +0.000 A 
ATOM     27  C   UNL     1      -2.776  14.759  20.678  0.00  0.00    +0.000 A 
ATOM     28  C   UNL     1      -2.701  15.811  21.576  0.00  0.00    +0.000 A 
ATOM     29  C   UNL     1      -3.724  16.014  22.497  0.00  0.00    +0.000 A 
ATOM     30  C   UNL     1      -4.845  15.168  22.531  0.00  0.00    +0.000 A 
ATOM     31  C   UNL     1      -4.896  14.118  21.602  0.00  0.00    +0.000 A 
BRANCH  30  32
ATOM     32  C   UNL     1      -5.958  15.373  23.555  0.00  0.00    +0.000 C 
ATOM     33  C   UNL     1      -5.673  16.588  24.447  0.00  0.00    +0.000 C 
ATOM     34  C   UNL     1      -7.321  15.515  22.868  0.00  0.00    +0.000 C 
BRANCH  32  35
ATOM     35  O   UNL     1      -6.067  14.235  24.420  0.00  0.00    +0.000 OA
ATOM     36  H   UNL     1      -5.331  14.283  25.051  0.00  0.00    +0.000 HD
ENDBRANCH  32  35
ENDBRANCH  30  32
ENDBRANCH  11  26
BRANCH   1  37
ATOM     37  C   UNL     1      -6.264  13.382  18.920  0.00  0.00    +0.000 C 
BRANCH  37  39
ATOM     38  C   UNL     1      -7.308  11.714  20.470  0.00  0.00    +0.000 C 
ATOM     39  C   UNL     1      -7.343  12.426  19.347  0.00  0.00    +0.000 C 
ENDBRANCH  37  39
ENDBRANCH   1  37
TORSDOF 7
ENDMDL
MODEL 7
REMARK VINA RESULT:      -7.6      4.053     11.724
REMARK  Name = 
REMARK  10 active torsions:
REMARK  status: ('A' for Active; 'I' for Inactive)
REMARK    1  A    between atoms: C_2  and  C_3
REMARK    2  A    between atoms: C_3  and  N_4
REMARK    3  A    between atoms: N_11  and  C_12
REMARK    4  A    between atoms: C_15  and  N_16
REMARK    5  A    between atoms: N_19  and  C_20
REMARK    6  A    between atoms: N_27  and  C_28
REMARK    7  A    between atoms: C_32  and  C_33
REMARK    8  A    between atoms: C_33  and  C_34
REMARK    9  A    between atoms: C_33  and  C_35
REMARK   10  A    between atoms: C_33  and  O_36
REMARK                            x       y       z     vdW  Elec       q    Type
REMARK                         _______ _______ _______ _____ _____    ______ ____
ROOT
ATOM      1  N   UNL     1      -4.422  13.380  19.955  0.00  0.00    +0.000 N 
ATOM      2  C   UNL     1      -4.518  12.224  19.196  0.00  0.00    +0.000 A 
ATOM      3  O   UNL     1      -5.493  11.667  18.736  0.00  0.00    +0.000 OA
ATOM      4  C   UNL     1      -3.168  11.727  19.043  0.00  0.00    +0.000 A 
ATOM      5  C   UNL     1      -2.659  10.708  18.321  0.00  0.00    +0.000 A 
ATOM      6  N   UNL     1      -1.337  10.482  18.324  0.00  0.00    +0.000 NA
ATOM      7  C   UNL     1      -0.535  11.283  19.078  0.00  0.00    +0.000 A 
ATOM      8  N   UNL     1       0.840  11.030  19.050  0.00  0.00    +0.000 N 
ATOM      9  N   UNL     1      -0.993  12.312  19.823  0.00  0.00    +0.000 NA
ATOM     10  C   UNL     1      -2.327  12.510  19.794  0.00  0.00    +0.000 A 
ATOM     11  N   UNL     1      -3.109  13.464  20.534  0.00  0.00    +0.000 N 
ATOM     12  H   UNL     1       1.339  11.700  19.628  0.00  0.00    +0.000 HD
ENDROOT
BRANCH   8  13
ATOM     13  C   UNL     1       1.435   9.761  18.966  0.00  0.00    +0.000 A 
ATOM     14  C   UNL     1       1.383   8.870  20.045  0.00  0.00    +0.000 A 
ATOM     15  C   UNL     1       1.910   7.570  19.938  0.00  0.00    +0.000 A 
ATOM     16  C   UNL     1       2.494   7.122  18.733  0.00  0.00    +0.000 A 
ATOM     17  C   UNL     1       2.568   8.039  17.694  0.00  0.00    +0.000 A 
ATOM     18  C   UNL     1       2.057   9.319  17.790  0.00  0.00    +0.000 A 
BRANCH  16  19
ATOM     19  N   UNL     1       2.879   5.812  18.547  0.00  0.00    +0.000 N 
ATOM     20  C   UNL     1       1.981   4.876  17.852  0.00  0.00    +0.000 C 
ATOM     21  C   UNL     1       2.156   3.463  18.447  0.00  0.00    +0.000 C 
ATOM     22  N   UNL     1       3.566   3.008  18.401  0.00  0.00    +0.000 NA
ATOM     23  C   UNL     1       3.700   1.680  18.987  0.00  0.00    +0.000 C 
ATOM     24  C   UNL     1       4.411   3.991  19.126  0.00  0.00    +0.000 C 
ATOM     25  C   UNL     1       4.293   5.420  18.543  0.00  0.00    +0.000 C 
ENDBRANCH  16  19
ENDBRANCH   8  13
BRANCH  11  26
ATOM     26  C   UNL     1      -2.707  14.615  21.229  0.00  0.00    +0.000 A 
ATOM     27  C   UNL     1      -2.405  15.814  20.557  0.00  0.00    +0.000 A 
ATOM     28  C   UNL     1      -1.983  16.937  21.249  0.00  0.00    +0.000 A 
ATOM     29  C   UNL     1      -1.867  16.899  22.635  0.00  0.00    +0.000 A 
ATOM     30  C   UNL     1      -2.178  15.733  23.354  0.00  0.00    +0.000 A 
ATOM     31  C   UNL     1      -2.612  14.614  22.626  0.00  0.00    +0.000 A 
BRANCH  30  32
ATOM     32  C   UNL     1      -2.029  15.678  24.872  0.00  0.00    +0.000 C 
ATOM     33  C   UNL     1      -2.214  17.067  25.497  0.00  0.00    +0.000 C 
ATOM     34  C   UNL     1      -3.011  14.675  25.488  0.00  0.00    +0.000 C 
BRANCH  32  35
ATOM     35  O   UNL     1      -0.719  15.226  25.238  0.00  0.00    +0.000 OA
ATOM     36  H   UNL     1      -0.833  14.478  25.847  0.00  0.00    +0.000 HD
ENDBRANCH  32  35
ENDBRANCH  30  32
ENDBRANCH  11  26
BRANCH   1  37
ATOM     37  C   UNL     1      -5.566  14.157  20.377  0.00  0.00    +0.000 C 
BRANCH  37  39
ATOM     38  C   UNL     1      -5.923  13.035  22.588  0.00  0.00    +0.000 C 
ATOM     39  C   UNL     1      -6.378  13.404  21.394  0.00  0.00    +0.000 C 
ENDBRANCH  37  39
ENDBRANCH   1  37
TORSDOF 7
ENDMDL
MODEL 8
REMARK VINA RESULT:      -7.6      3.850     11.868
REMARK  Name = 
REMARK  10 active torsions:
REMARK  status: ('A' for Active; 'I' for Inactive)
REMARK    1  A    between atoms: C_2  and  C_3
REMARK    2  A    between atoms: C_3  and  N_4
REMARK    3  A    between atoms: N_11  and  C_12
REMARK    4  A    between atoms: C_15  and  N_16
REMARK    5  A    between atoms: N_19  and  C_20
REMARK    6  A    between atoms: N_27  and  C_28
REMARK    7  A    between atoms: C_32  and  C_33
REMARK    8  A    between atoms: C_33  and  C_34
REMARK    9  A    between atoms: C_33  and  C_35
REMARK   10  A    between atoms: C_33  and  O_36
REMARK                            x       y       z     vdW  Elec       q    Type
REMARK                         _______ _______ _______ _____ _____    ______ ____
ROOT
ATOM      1  N   UNL     1      -1.643  14.885  20.546  0.00  0.00    +0.000 N 
ATOM      2  C   UNL     1      -0.421  14.839  19.893  0.00  0.00    +0.000 A 
ATOM      3  O   UNL     1       0.191  15.711  19.313  0.00  0.00    +0.000 OA
ATOM      4  C   UNL     1       0.040  13.471  19.994  0.00  0.00    +0.000 A 
ATOM      5  C   UNL     1       1.200  12.882  19.637  0.00  0.00    +0.000 A 
ATOM      6  N   UNL     1       1.391  11.579  19.884  0.00  0.00    +0.000 NA
ATOM      7  C   UNL     1       0.392  10.869  20.479  0.00  0.00    +0.000 A 
ATOM      8  N   UNL     1       0.626   9.515  20.735  0.00  0.00    +0.000 N 
ATOM      9  N   UNL     1      -0.790  11.407  20.850  0.00  0.00    +0.000 NA
ATOM     10  C   UNL     1      -0.944  12.721  20.587  0.00  0.00    +0.000 A 
ATOM     11  N   UNL     1      -2.105  13.547  20.791  0.00  0.00    +0.000 N 
ATOM     12  H   UNL     1      -0.174   9.094  21.198  0.00  0.00    +0.000 HD
ENDROOT
BRANCH   8  13
ATOM     13  C   UNL     1       1.359   8.643  19.913  0.00  0.00    +0.000 A 
ATOM     14  C   UNL     1       1.690   9.000  18.600  0.00  0.00    +0.000 A 
ATOM     15  C   UNL     1       2.490   8.163  17.800  0.00  0.00    +0.000 A 
ATOM     16  C   UNL     1       2.994   6.945  18.307  0.00  0.00    +0.000 A 
ATOM     17  C   UNL     1       2.618   6.597  19.596  0.00  0.00    +0.000 A 
ATOM     18  C   UNL     1       1.829   7.410  20.388  0.00  0.00    +0.000 A 
BRANCH  16  19
ATOM     19  N   UNL     1       3.901   6.180  17.606  0.00  0.00    +0.000 N 
ATOM     20  C   UNL     1       5.033   6.828  16.923  0.00  0.00    +0.000 C 
ATOM     21  C   UNL     1       5.372   6.042  15.638  0.00  0.00    +0.000 C 
ATOM     22  N   UNL     1       5.643   4.611  15.913  0.00  0.00    +0.000 NA
ATOM     23  C   UNL     1       5.941   3.896  14.678  0.00  0.00    +0.000 C 
ATOM     24  C   UNL     1       4.461   4.022  16.592  0.00  0.00    +0.000 C 
ATOM     25  C   UNL     1       4.102   4.758  17.905  0.00  0.00    +0.000 C 
ENDBRANCH  16  19
ENDBRANCH   8  13
BRANCH  11  26
ATOM     26  C   UNL     1      -3.250  13.317  21.571  0.00  0.00    +0.000 A 
ATOM     27  C   UNL     1      -3.237  13.488  22.967  0.00  0.00    +0.000 A 
ATOM     28  C   UNL     1      -4.363  13.233  23.732  0.00  0.00    +0.000 A 
ATOM     29  C   UNL     1      -5.541  12.816  23.119  0.00  0.00    +0.000 A 
ATOM     30  C   UNL     1      -5.612  12.652  21.726  0.00  0.00    +0.000 A 
ATOM     31  C   UNL     1      -4.456  12.928  20.978  0.00  0.00    +0.000 A 
BRANCH  30  32
ATOM     32  C   UNL     1      -6.894  12.172  21.051  0.00  0.00    +0.000 C 
ATOM     33  C   UNL     1      -7.898  13.321  20.890  0.00  0.00    +0.000 C 
ATOM     34  C   UNL     1      -6.595  11.523  19.696  0.00  0.00    +0.000 C 
BRANCH  32  35
ATOM     35  O   UNL     1      -7.536  11.164  21.841  0.00  0.00    +0.000 OA
ATOM     36  H   UNL     1      -7.558  11.487  22.757  0.00  0.00    +0.000 HD
ENDBRANCH  32  35
ENDBRANCH  30  32
ENDBRANCH  11  26
BRANCH   1  37
ATOM     37  C   UNL     1      -2.462  16.074  20.628  0.00  0.00    +0.000 C 
BRANCH  37  39
ATOM     38  C   UNL     1      -1.912  18.217  21.803  0.00  0.00    +0.000 C 
ATOM     39  C   UNL     1      -2.088  16.899  21.828  0.00  0.00    +0.000 C 
ENDBRANCH  37  39
ENDBRANCH   1  37
TORSDOF 7
ENDMDL
MODEL 9
REMARK VINA RESULT:      -7.5      3.697     11.598
REMARK  Name = 
REMARK  10 active torsions:
REMARK  status: ('A' for Active; 'I' for Inactive)
REMARK    1  A    between atoms: C_2  and  C_3
REMARK    2  A    between atoms: C_3  and  N_4
REMARK    3  A    between atoms: N_11  and  C_12
REMARK    4  A    between atoms: C_15  and  N_16
REMARK    5  A    between atoms: N_19  and  C_20
REMARK    6  A    between atoms: N_27  and  C_28
REMARK    7  A    between atoms: C_32  and  C_33
REMARK    8  A    between atoms: C_33  and  C_34
REMARK    9  A    between atoms: C_33  and  C_35
REMARK   10  A    between atoms: C_33  and  O_36
REMARK                            x       y       z     vdW  Elec       q    Type
REMARK                         _______ _______ _______ _____ _____    ______ ____
ROOT
ATOM      1  N   UNL     1      -1.791  14.599  21.039  0.00  0.00    +0.000 N 
ATOM      2  C   UNL     1      -0.409  14.603  20.934  0.00  0.00    +0.000 A 
ATOM      3  O   UNL     1       0.373  15.531  20.926  0.00  0.00    +0.000 OA
ATOM      4  C   UNL     1      -0.008  13.220  20.799  0.00  0.00    +0.000 A 
ATOM      5  C   UNL     1       1.205  12.632  20.767  0.00  0.00    +0.000 A 
ATOM      6  N   UNL     1       1.298  11.297  20.672  0.00  0.00    +0.000 NA
ATOM      7  C   UNL     1       0.154  10.563  20.590  0.00  0.00    +0.000 A 
ATOM      8  N   UNL     1       0.284   9.173  20.505  0.00  0.00    +0.000 N 
ATOM      9  N   UNL     1      -1.084  11.101  20.611  0.00  0.00    +0.000 NA
ATOM     10  C   UNL     1      -1.138  12.445  20.709  0.00  0.00    +0.000 A 
ATOM     11  N   UNL     1      -2.294  13.302  20.677  0.00  0.00    +0.000 N 
ATOM     12  H   UNL     1      -0.629   8.730  20.472  0.00  0.00    +0.000 HD
ENDROOT
BRANCH   8  13
ATOM     13  C   UNL     1       1.300   8.489  19.819  0.00  0.00    +0.000 A 
ATOM     14  C   UNL     1       1.901   7.351  20.370  0.00  0.00    +0.000 A 
ATOM     15  C   UNL     1       2.863   6.618  19.652  0.00  0.00    +0.000 A 
ATOM     16  C   UNL     1       3.239   7.002  18.346  0.00  0.00    +0.000 A 
ATOM     17  C   UNL     1       2.658   8.156  17.840  0.00  0.00    +0.000 A 
ATOM     18  C   UNL     1       1.715   8.885  18.539  0.00  0.00    +0.000 A 
BRANCH  16  19
ATOM     19  N   UNL     1       4.061   6.223  17.561  0.00  0.00    +0.000 N 
ATOM     20  C   UNL     1       5.183   6.841  16.836  0.00  0.00    +0.000 C 
ATOM     21  C   UNL     1       5.402   6.094  15.503  0.00  0.00    +0.000 C 
ATOM     22  N   UNL     1       5.612   4.641  15.704  0.00  0.00    +0.000 NA
ATOM     23  C   UNL     1       5.797   3.965  14.426  0.00  0.00    +0.000 C 
ATOM     24  C   UNL     1       4.443   4.084  16.431  0.00  0.00    +0.000 C 
ATOM     25  C   UNL     1       4.203   4.781  17.791  0.00  0.00    +0.000 C 
ENDBRANCH  16  19
ENDBRANCH   8  13
BRANCH  11  26
ATOM     26  C   UNL     1      -3.653  12.991  20.841  0.00  0.00    +0.000 A 
ATOM     27  C   UNL     1      -4.274  13.044  22.102  0.00  0.00    +0.000 A 
ATOM     28  C   UNL     1      -5.609  12.709  22.259  0.00  0.00    +0.000 A 
ATOM     29  C   UNL     1      -6.365  12.327  21.156  0.00  0.00    +0.000 A 
ATOM     30  C   UNL     1      -5.797  12.278  19.872  0.00  0.00    +0.000 A 
ATOM     31  C   UNL     1      -4.445  12.634  19.744  0.00  0.00    +0.000 A 
BRANCH  30  32
ATOM     32  C   UNL     1      -6.616  11.837  18.662  0.00  0.00    +0.000 C 
ATOM     33  C   UNL     1      -7.614  12.923  18.243  0.00  0.00    +0.000 C 
ATOM     34  C   UNL     1      -5.707  11.459  17.487  0.00  0.00    +0.000 C 
BRANCH  32  35
ATOM     35  O   UNL     1      -7.379  10.663  18.967  0.00  0.00    +0.000 OA
ATOM     36  H   UNL     1      -7.042  10.312  19.807  0.00  0.00    +0.000 HD
ENDBRANCH  32  35
ENDBRANCH  30  32
ENDBRANCH  11  26
BRANCH   1  37
ATOM     37  C   UNL     1      -2.590  15.799  21.140  0.00  0.00    +0.000 C 
BRANCH  37  39
ATOM     38  C   UNL     1      -3.456  16.248  23.448  0.00  0.00    +0.000 C 
ATOM     39  C   UNL     1      -2.507  16.380  22.525  0.00  0.00    +0.000 C 
ENDBRANCH  37  39
ENDBRANCH   1  37
TORSDOF 7
ENDMDL
