MODEL 1
REMARK VINA RESULT:      -7.4      0.000      0.000
REMARK  Name = 
REMARK  12 active torsions:
REMARK  status: ('A' for Active; 'I' for Inactive)
REMARK    1  A    between atoms: C_1  and  O_2
REMARK    2  A    between atoms: O_2  and  C_3
REMARK    3  A    between atoms: C_6  and  C_7
REMARK    4  A    between atoms: C_8  and  C_9
REMARK    5  A    between atoms: C_11  and  O_12
REMARK    6  A    between atoms: O_12  and  C_13
REMARK    7  A    between atoms: C_14  and  O_15
REMARK    8  A    between atoms: O_15  and  C_16
REMARK    9  A    between atoms: C_17  and  O_18
REMARK   10  A    between atoms: O_18  and  C_19
REMARK   11  A    between atoms: C_21  and  O_22
REMARK   12  A    between atoms: C_23  and  O_24
REMARK                            x       y       z     vdW  Elec       q    Type
REMARK                         _______ _______ _______ _____ _____    ______ ____
ROOT
ATOM      1  C   UNL     1       8.446   7.988  18.553  0.00  0.00    +0.000 C 
ATOM      2  C   UNL     1       8.305   9.266  18.166  0.00  0.00    +0.000 C 
ENDROOT
BRANCH   1   6
ATOM      3  C   UNL     1       5.914   4.831  17.058  0.00  0.00    +0.000 A 
ATOM      4  C   UNL     1       6.246   5.936  16.271  0.00  0.00    +0.000 A 
ATOM      5  C   UNL     1       7.062   6.962  16.779  0.00  0.00    +0.000 A 
ATOM      6  C   UNL     1       7.565   6.907  18.086  0.00  0.00    +0.000 A 
ATOM      7  C   UNL     1       7.228   5.799  18.871  0.00  0.00    +0.000 A 
ATOM      8  C   UNL     1       6.418   4.776  18.360  0.00  0.00    +0.000 A 
BRANCH   3  10
ATOM      9  C   UNL     1       3.744   3.846  16.962  0.00  0.00    +0.000 C 
ATOM     10  O   UNL     1       5.130   3.782  16.658  0.00  0.00    +0.000 OA
ENDBRANCH   3  10
BRANCH   7  11
ATOM     11  O   UNL     1       7.666   5.631  20.162  0.00  0.00    +0.000 OA
ATOM     12  H   UNL     1       6.895   5.385  20.703  0.00  0.00    +0.000 HD
ENDBRANCH   7  11
BRANCH   8  13
ATOM     13  O   UNL     1       6.134   3.703  19.171  0.00  0.00    +0.000 OA
ATOM     14  H   UNL     1       7.004   3.406  19.500  0.00  0.00    +0.000 HD
ENDBRANCH   8  13
ENDBRANCH   1   6
BRANCH   2  15
ATOM     15  C   UNL     1       9.209  10.320  18.642  0.00  0.00    +0.000 A 
ATOM     16  C   UNL     1      10.150  10.896  17.780  0.00  0.00    +0.000 A 
ATOM     17  C   UNL     1      11.020  11.908  18.222  0.00  0.00    +0.000 A 
ATOM     18  C   UNL     1      10.939  12.354  19.560  0.00  0.00    +0.000 A 
ATOM     19  C   UNL     1       9.989  11.762  20.431  0.00  0.00    +0.000 A 
ATOM     20  C   UNL     1       9.137  10.754  19.965  0.00  0.00    +0.000 A 
BRANCH  17  21
ATOM     21  O   UNL     1      11.954  12.486  17.402  0.00  0.00    +0.000 OA
ATOM     22  C   UNL     1      11.561  13.532  16.526  0.00  0.00    +0.000 C 
ENDBRANCH  17  21
BRANCH  18  23
ATOM     23  O   UNL     1      11.701  13.339  20.150  0.00  0.00    +0.000 OA
ATOM     24  C   UNL     1      11.317  14.700  20.029  0.00  0.00    +0.000 C 
ENDBRANCH  18  23
BRANCH  19  25
ATOM     25  O   UNL     1       9.967  12.238  21.725  0.00  0.00    +0.000 OA
ATOM     26  C   UNL     1       8.752  12.113  22.453  0.00  0.00    +0.000 C 
ENDBRANCH  19  25
ENDBRANCH   2  15
TORSDOF 8
ENDMDL
MODEL 2
REMARK VINA RESULT:      -7.0      6.684      8.593
REMARK  Name = 
REMARK  12 active torsions:
REMARK  status: ('A' for Active; 'I' for Inactive)
REMARK    1  A    between atoms: C_1  and  O_2
REMARK    2  A    between atoms: O_2  and  C_3
REMARK    3  A    between atoms: C_6  and  C_7
REMARK    4  A    between atoms: C_8  and  C_9
REMARK    5  A    between atoms: C_11  and  O_12
REMARK    6  A    between atoms: O_12  and  C_13
REMARK    7  A    between atoms: C_14  and  O_15
REMARK    8  A    between atoms: O_15  and  C_16
REMARK    9  A    between atoms: C_17  and  O_18
REMARK   10  A    between atoms: O_18  and  C_19
REMARK   11  A    between atoms: C_21  and  O_22
REMARK   12  A    between atoms: C_23  and  O_24
REMARK                            x       y       z     vdW  Elec       q    Type
REMARK                         _______ _______ _______ _____ _____    ______ ____
ROOT
ATOM      1  C   UNL     1       2.583   7.258  18.530  0.00  0.00    +0.000 C 
ATOM      2  C   UNL     1       2.041   8.359  17.985  0.00  0.00    +0.000 C 
ENDROOT
BRANCH   1   6
ATOM      3  C   UNL     1       5.329   4.718  16.380  0.00  0.00    +0.000 A 
ATOM      4  C   UNL     1       5.340   6.106  16.222  0.00  0.00    +0.000 A 
ATOM      5  C   UNL     1       4.429   6.917  16.921  0.00  0.00    +0.000 A 
ATOM      6  C   UNL     1       3.486   6.360  17.795  0.00  0.00    +0.000 A 
ATOM      7  C   UNL     1       3.477   4.969  17.949  0.00  0.00    +0.000 A 
ATOM      8  C   UNL     1       4.390   4.164  17.254  0.00  0.00    +0.000 A 
BRANCH   3  10
ATOM      9  C   UNL     1       6.268   3.931  14.335  0.00  0.00    +0.000 C 
ATOM     10  O   UNL     1       6.172   3.843  15.749  0.00  0.00    +0.000 OA
ENDBRANCH   3  10
BRANCH   7  11
ATOM     11  O   UNL     1       2.605   4.310  18.781  0.00  0.00    +0.000 OA
ATOM     12  H   UNL     1       1.958   3.848  18.219  0.00  0.00    +0.000 HD
ENDBRANCH   7  11
BRANCH   8  13
ATOM     13  O   UNL     1       4.346   2.805  17.457  0.00  0.00    +0.000 OA
ATOM     14  H   UNL     1       3.556   2.508  16.964  0.00  0.00    +0.000 HD
ENDBRANCH   8  13
ENDBRANCH   1   6
BRANCH   2  15
ATOM     15  C   UNL     1       1.152   9.241  18.751  0.00  0.00    +0.000 A 
ATOM     16  C   UNL     1       1.306   9.383  20.134  0.00  0.00    +0.000 A 
ATOM     17  C   UNL     1       0.465  10.227  20.879  0.00  0.00    +0.000 A 
ATOM     18  C   UNL     1      -0.554  10.948  20.217  0.00  0.00    +0.000 A 
ATOM     19  C   UNL     1      -0.711  10.795  18.815  0.00  0.00    +0.000 A 
ATOM     20  C   UNL     1       0.140   9.946  18.099  0.00  0.00    +0.000 A 
BRANCH  17  21
ATOM     21  O   UNL     1       0.589  10.381  22.235  0.00  0.00    +0.000 OA
ATOM     22  C   UNL     1      -0.148   9.534  23.104  0.00  0.00    +0.000 C 
ENDBRANCH  17  21
BRANCH  18  23
ATOM     23  O   UNL     1      -1.453  11.823  20.788  0.00  0.00    +0.000 OA
ATOM     24  C   UNL     1      -1.034  13.128  21.156  0.00  0.00    +0.000 C 
ENDBRANCH  18  23
BRANCH  19  25
ATOM     25  O   UNL     1      -1.727  11.522  18.231  0.00  0.00    +0.000 OA
ATOM     26  C   UNL     1      -2.315  11.000  17.047  0.00  0.00    +0.000 C 
ENDBRANCH  19  25
ENDBRANCH   2  15
TORSDOF 8
ENDMDL
MODEL 3
REMARK VINA RESULT:      -7.0      0.624      2.620
REMARK  Name = 
REMARK  12 active torsions:
REMARK  status: ('A' for Active; 'I' for Inactive)
REMARK    1  A    between atoms: C_1  and  O_2
REMARK    2  A    between atoms: O_2  and  C_3
REMARK    3  A    between atoms: C_6  and  C_7
REMARK    4  A    between atoms: C_8  and  C_9
REMARK    5  A    between atoms: C_11  and  O_12
REMARK    6  A    between atoms: O_12  and  C_13
REMARK    7  A    between atoms: C_14  and  O_15
REMARK    8  A    between atoms: O_15  and  C_16
REMARK    9  A    between atoms: C_17  and  O_18
REMARK   10  A    between atoms: O_18  and  C_19
REMARK   11  A    between atoms: C_21  and  O_22
REMARK   12  A    between atoms: C_23  and  O_24
REMARK                            x       y       z     vdW  Elec       q    Type
REMARK                         _______ _______ _______ _____ _____    ______ ____
ROOT
ATOM      1  C   UNL     1       8.389   8.260  18.631  0.00  0.00    +0.000 C 
ATOM      2  C   UNL     1       8.485   9.469  18.056  0.00  0.00    +0.000 C 
ENDROOT
BRANCH   1   6
ATOM      3  C   UNL     1       5.928   5.142  16.947  0.00  0.00    +0.000 A 
ATOM      4  C   UNL     1       6.079   6.377  16.313  0.00  0.00    +0.000 A 
ATOM      5  C   UNL     1       6.876   7.386  16.883  0.00  0.00    +0.000 A 
ATOM      6  C   UNL     1       7.539   7.184  18.100  0.00  0.00    +0.000 A 
ATOM      7  C   UNL     1       7.382   5.946  18.734  0.00  0.00    +0.000 A 
ATOM      8  C   UNL     1       6.592   4.940  18.160  0.00  0.00    +0.000 A 
BRANCH   3  10
ATOM      9  C   UNL     1       5.661   3.409  15.331  0.00  0.00    +0.000 C 
ATOM     10  O   UNL     1       5.179   4.097  16.477  0.00  0.00    +0.000 OA
ENDBRANCH   3  10
BRANCH   7  11
ATOM     11  O   UNL     1       7.987   5.630  19.926  0.00  0.00    +0.000 OA
ATOM     12  H   UNL     1       8.903   5.367  19.728  0.00  0.00    +0.000 HD
ENDBRANCH   7  11
BRANCH   8  13
ATOM     13  O   UNL     1       6.488   3.739  18.819  0.00  0.00    +0.000 OA
ATOM     14  H   UNL     1       7.089   3.825  19.584  0.00  0.00    +0.000 HD
ENDBRANCH   8  13
ENDBRANCH   1   6
BRANCH   2  15
ATOM     15  C   UNL     1       9.354  10.518  18.606  0.00  0.00    +0.000 A 
ATOM     16  C   UNL     1       9.220  10.931  19.936  0.00  0.00    +0.000 A 
ATOM     17  C   UNL     1      10.047  11.931  20.476  0.00  0.00    +0.000 A 
ATOM     18  C   UNL     1      11.034  12.528  19.660  0.00  0.00    +0.000 A 
ATOM     19  C   UNL     1      11.160  12.111  18.310  0.00  0.00    +0.000 A 
ATOM     20  C   UNL     1      10.322  11.114  17.798  0.00  0.00    +0.000 A 
BRANCH  17  21
ATOM     21  O   UNL     1       9.935  12.359  21.773  0.00  0.00    +0.000 OA
ATOM     22  C   UNL     1       8.714  12.931  22.216  0.00  0.00    +0.000 C 
ENDBRANCH  17  21
BRANCH  18  23
ATOM     23  O   UNL     1      11.931  13.506  20.029  0.00  0.00    +0.000 OA
ATOM     24  C   UNL     1      11.507  14.859  20.116  0.00  0.00    +0.000 C 
ENDBRANCH  18  23
BRANCH  19  25
ATOM     25  O   UNL     1      12.138  12.737  17.566  0.00  0.00    +0.000 OA
ATOM     26  C   UNL     1      11.719  13.575  16.497  0.00  0.00    +0.000 C 
ENDBRANCH  19  25
ENDBRANCH   2  15
TORSDOF 8
ENDMDL
MODEL 4
REMARK VINA RESULT:      -6.8      6.137      9.484
REMARK  Name = 
REMARK  12 active torsions:
REMARK  status: ('A' for Active; 'I' for Inactive)
REMARK    1  A    between atoms: C_1  and  O_2
REMARK    2  A    between atoms: O_2  and  C_3
REMARK    3  A    between atoms: C_6  and  C_7
REMARK    4  A    between atoms: C_8  and  C_9
REMARK    5  A    between atoms: C_11  and  O_12
REMARK    6  A    between atoms: O_12  and  C_13
REMARK    7  A    between atoms: C_14  and  O_15
REMARK    8  A    between atoms: O_15  and  C_16
REMARK    9  A    between atoms: C_17  and  O_18
REMARK   10  A    between atoms: O_18  and  C_19
REMARK   11  A    between atoms: C_21  and  O_22
REMARK   12  A    between atoms: C_23  and  O_24
REMARK                            x       y       z     vdW  Elec       q    Type
REMARK                         _______ _______ _______ _____ _____    ______ ____
ROOT
ATOM      1  C   UNL     1       1.985   8.079  19.599  0.00  0.00    +0.000 C 
ATOM      2  C   UNL     1       2.315   7.949  18.304  0.00  0.00    +0.000 C 
ENDROOT
BRANCH   1   6
ATOM      3  C   UNL     1      -0.828  11.063  20.941  0.00  0.00    +0.000 A 
ATOM      4  C   UNL     1      -0.673  10.761  19.586  0.00  0.00    +0.000 A 
ATOM      5  C   UNL     1       0.258   9.795  19.167  0.00  0.00    +0.000 A 
ATOM      6  C   UNL     1       1.055   9.107  20.091  0.00  0.00    +0.000 A 
ATOM      7  C   UNL     1       0.898   9.414  21.447  0.00  0.00    +0.000 A 
ATOM      8  C   UNL     1      -0.034  10.375  21.863  0.00  0.00    +0.000 A 
BRANCH   3  10
ATOM      9  C   UNL     1      -2.677  12.521  20.569  0.00  0.00    +0.000 C 
ATOM     10  O   UNL     1      -1.703  11.983  21.452  0.00  0.00    +0.000 OA
ENDBRANCH   3  10
BRANCH   7  11
ATOM     11  O   UNL     1       1.618   8.803  22.445  0.00  0.00    +0.000 OA
ATOM     12  H   UNL     1       2.270   9.447  22.772  0.00  0.00    +0.000 HD
ENDBRANCH   7  11
BRANCH   8  13
ATOM     13  O   UNL     1      -0.157  10.623  23.209  0.00  0.00    +0.000 OA
ATOM     14  H   UNL     1      -0.476   9.781  23.586  0.00  0.00    +0.000 HD
ENDBRANCH   8  13
ENDBRANCH   1   6
BRANCH   2  15
ATOM     15  C   UNL     1       3.237   6.903  17.845  0.00  0.00    +0.000 A 
ATOM     16  C   UNL     1       2.842   5.560  17.827  0.00  0.00    +0.000 A 
ATOM     17  C   UNL     1       3.713   4.549  17.386  0.00  0.00    +0.000 A 
ATOM     18  C   UNL     1       5.012   4.897  16.951  0.00  0.00    +0.000 A 
ATOM     19  C   UNL     1       5.411   6.257  16.979  0.00  0.00    +0.000 A 
ATOM     20  C   UNL     1       4.523   7.243  17.425  0.00  0.00    +0.000 A 
BRANCH  17  21
ATOM     21  O   UNL     1       3.356   3.227  17.362  0.00  0.00    +0.000 OA
ATOM     22  C   UNL     1       3.327   2.490  18.575  0.00  0.00    +0.000 C 
ENDBRANCH  17  21
BRANCH  18  23
ATOM     23  O   UNL     1       5.982   4.039  16.480  0.00  0.00    +0.000 OA
ATOM     24  C   UNL     1       6.033   3.720  15.097  0.00  0.00    +0.000 C 
ENDBRANCH  18  23
BRANCH  19  25
ATOM     25  O   UNL     1       6.692   6.528  16.547  0.00  0.00    +0.000 OA
ATOM     26  C   UNL     1       7.538   7.271  17.416  0.00  0.00    +0.000 C 
ENDBRANCH  19  25
ENDBRANCH   2  15
TORSDOF 8
ENDMDL
MODEL 5
REMARK VINA RESULT:      -6.8      6.747      8.392
REMARK  Name = 
REMARK  12 active torsions:
REMARK  status: ('A' for Active; 'I' for Inactive)
REMARK    1  A    between atoms: C_1  and  O_2
REMARK    2  A    between atoms: O_2  and  C_3
REMARK    3  A    between atoms: C_6  and  C_7
REMARK    4  A    between atoms: C_8  and  C_9
REMARK    5  A    between atoms: C_11  and  O_12
REMARK    6  A    between atoms: O_12  and  C_13
REMARK    7  A    between atoms: C_14  and  O_15
REMARK    8  A    between atoms: O_15  and  C_16
REMARK    9  A    between atoms: C_17  and  O_18
REMARK   10  A    between atoms: O_18  and  C_19
REMARK   11  A    between atoms: C_21  and  O_22
REMARK   12  A    between atoms: C_23  and  O_24
REMARK                            x       y       z     vdW  Elec       q    Type
REMARK                         _______ _______ _______ _____ _____    ______ ____
ROOT
ATOM      1  C   UNL     1       2.516   7.374  18.597  0.00  0.00    +0.000 C 
ATOM      2  C   UNL     1       1.912   8.415  18.002  0.00  0.00    +0.000 C 
ENDROOT
BRANCH   1   6
ATOM      3  C   UNL     1       5.167   4.706  16.483  0.00  0.00    +0.000 A 
ATOM      4  C   UNL     1       5.189   6.085  16.262  0.00  0.00    +0.000 A 
ATOM      5  C   UNL     1       4.308   6.938  16.951  0.00  0.00    +0.000 A 
ATOM      6  C   UNL     1       3.386   6.433  17.876  0.00  0.00    +0.000 A 
ATOM      7  C   UNL     1       3.366   5.050  18.093  0.00  0.00    +0.000 A 
ATOM      8  C   UNL     1       4.248   4.203  17.408  0.00  0.00    +0.000 A 
BRANCH   3  10
ATOM      9  C   UNL     1       6.553   4.162  14.621  0.00  0.00    +0.000 C 
ATOM     10  O   UNL     1       5.980   3.793  15.867  0.00  0.00    +0.000 OA
ENDBRANCH   3  10
BRANCH   7  11
ATOM     11  O   UNL     1       2.512   4.440  18.979  0.00  0.00    +0.000 OA
ATOM     12  H   UNL     1       2.250   3.586  18.593  0.00  0.00    +0.000 HD
ENDBRANCH   7  11
BRANCH   8  13
ATOM     13  O   UNL     1       4.195   2.856  17.673  0.00  0.00    +0.000 OA
ATOM     14  H   UNL     1       4.903   2.468  17.123  0.00  0.00    +0.000 HD
ENDBRANCH   8  13
ENDBRANCH   1   6
BRANCH   2  15
ATOM     15  C   UNL     1       1.058   9.344  18.753  0.00  0.00    +0.000 A 
ATOM     16  C   UNL     1       0.102  10.125  18.095  0.00  0.00    +0.000 A 
ATOM     17  C   UNL     1      -0.724  11.016  18.802  0.00  0.00    +0.000 A 
ATOM     18  C   UNL     1      -0.587  11.121  20.204  0.00  0.00    +0.000 A 
ATOM     19  C   UNL     1       0.389  10.333  20.866  0.00  0.00    +0.000 A 
ATOM     20  C   UNL     1       1.200   9.456  20.136  0.00  0.00    +0.000 A 
BRANCH  17  21
ATOM     21  O   UNL     1      -1.666  11.797  18.184  0.00  0.00    +0.000 OA
ATOM     22  C   UNL     1      -2.964  11.272  17.952  0.00  0.00    +0.000 C 
ENDBRANCH  17  21
BRANCH  18  23
ATOM     23  O   UNL     1      -1.318  11.929  21.048  0.00  0.00    +0.000 OA
ATOM     24  C   UNL     1      -1.027  13.317  21.128  0.00  0.00    +0.000 C 
ENDBRANCH  18  23
BRANCH  19  25
ATOM     25  O   UNL     1       0.476  10.488  22.233  0.00  0.00    +0.000 OA
ATOM     26  C   UNL     1      -0.052   9.450  23.049  0.00  0.00    +0.000 C 
ENDBRANCH  19  25
ENDBRANCH   2  15
TORSDOF 8
ENDMDL
MODEL 6
REMARK VINA RESULT:      -6.7      6.966     10.858
REMARK  Name = 
REMARK  12 active torsions:
REMARK  status: ('A' for Active; 'I' for Inactive)
REMARK    1  A    between atoms: C_1  and  O_2
REMARK    2  A    between atoms: O_2  and  C_3
REMARK    3  A    between atoms: C_6  and  C_7
REMARK    4  A    between atoms: C_8  and  C_9
REMARK    5  A    between atoms: C_11  and  O_12
REMARK    6  A    between atoms: O_12  and  C_13
REMARK    7  A    between atoms: C_14  and  O_15
REMARK    8  A    between atoms: O_15  and  C_16
REMARK    9  A    between atoms: C_17  and  O_18
REMARK   10  A    between atoms: O_18  and  C_19
REMARK   11  A    between atoms: C_21  and  O_22
REMARK   12  A    between atoms: C_23  and  O_24
REMARK                            x       y       z     vdW  Elec       q    Type
REMARK                         _______ _______ _______ _____ _____    ______ ____
ROOT
ATOM      1  C   UNL     1       0.601   7.835  20.925  0.00  0.00    +0.000 C 
ATOM      2  C   UNL     1       1.786   7.797  20.294  0.00  0.00    +0.000 C 
ENDROOT
BRANCH   1   6
ATOM      3  C   UNL     1      -1.165  11.493  22.378  0.00  0.00    +0.000 A 
ATOM      4  C   UNL     1      -0.829  10.449  23.244  0.00  0.00    +0.000 A 
ATOM      5  C   UNL     1      -0.266   9.259  22.750  0.00  0.00    +0.000 A 
ATOM      6  C   UNL     1      -0.025   9.085  21.381  0.00  0.00    +0.000 A 
ATOM      7  C   UNL     1      -0.365  10.132  20.518  0.00  0.00    +0.000 A 
ATOM      8  C   UNL     1      -0.922  11.319  21.013  0.00  0.00    +0.000 A 
BRANCH   3  10
ATOM      9  C   UNL     1      -3.008  12.659  23.340  0.00  0.00    +0.000 C 
ATOM     10  O   UNL     1      -1.714  12.688  22.756  0.00  0.00    +0.000 OA
ENDBRANCH   3  10
BRANCH   7  11
ATOM     11  O   UNL     1      -0.171  10.079  19.159  0.00  0.00    +0.000 OA
ATOM     12  H   UNL     1      -0.198  10.992  18.824  0.00  0.00    +0.000 HD
ENDBRANCH   7  11
BRANCH   8  13
ATOM     13  O   UNL     1      -1.221  12.320  20.120  0.00  0.00    +0.000 OA
ATOM     14  H   UNL     1      -0.407  12.428  19.590  0.00  0.00    +0.000 HD
ENDBRANCH   8  13
ENDBRANCH   1   6
BRANCH   2  15
ATOM     15  C   UNL     1       2.378   6.533  19.840  0.00  0.00    +0.000 A 
ATOM     16  C   UNL     1       2.289   5.380  20.628  0.00  0.00    +0.000 A 
ATOM     17  C   UNL     1       2.848   4.162  20.204  0.00  0.00    +0.000 A 
ATOM     18  C   UNL     1       3.511   4.102  18.958  0.00  0.00    +0.000 A 
ATOM     19  C   UNL     1       3.606   5.275  18.166  0.00  0.00    +0.000 A 
ATOM     20  C   UNL     1       3.041   6.475  18.614  0.00  0.00    +0.000 A 
BRANCH  17  21
ATOM     21  O   UNL     1       2.781   3.019  20.956  0.00  0.00    +0.000 OA
ATOM     22  C   UNL     1       1.553   2.659  21.570  0.00  0.00    +0.000 C 
ENDBRANCH  17  21
BRANCH  18  23
ATOM     23  O   UNL     1       4.101   2.994  18.388  0.00  0.00    +0.000 OA
ATOM     24  C   UNL     1       3.296   1.913  17.943  0.00  0.00    +0.000 C 
ENDBRANCH  18  23
BRANCH  19  25
ATOM     25  O   UNL     1       4.270   5.150  16.964  0.00  0.00    +0.000 OA
ATOM     26  C   UNL     1       4.983   6.282  16.484  0.00  0.00    +0.000 C 
ENDBRANCH  19  25
ENDBRANCH   2  15
TORSDOF 8
ENDMDL
MODEL 7
REMARK VINA RESULT:      -6.7      6.735     10.183
REMARK  Name = 
REMARK  12 active torsions:
REMARK  status: ('A' for Active; 'I' for Inactive)
REMARK    1  A    between atoms: C_1  and  O_2
REMARK    2  A    between atoms: O_2  and  C_3
REMARK    3  A    between atoms: C_6  and  C_7
REMARK    4  A    between atoms: C_8  and  C_9
REMARK    5  A    between atoms: C_11  and  O_12
REMARK    6  A    between atoms: O_12  and  C_13
REMARK    7  A    between atoms: C_14  and  O_15
REMARK    8  A    between atoms: O_15  and  C_16
REMARK    9  A    between atoms: C_17  and  O_18
REMARK   10  A    between atoms: O_18  and  C_19
REMARK   11  A    between atoms: C_21  and  O_22
REMARK   12  A    between atoms: C_23  and  O_24
REMARK                            x       y       z     vdW  Elec       q    Type
REMARK                         _______ _______ _______ _____ _____    ______ ____
ROOT
ATOM      1  C   UNL     1       1.330   8.036  20.513  0.00  0.00    +0.000 C 
ATOM      2  C   UNL     1       2.078   7.653  19.465  0.00  0.00    +0.000 C 
ENDROOT
BRANCH   1   6
ATOM      3  C   UNL     1      -0.640  11.872  20.657  0.00  0.00    +0.000 A 
ATOM      4  C   UNL     1      -0.401  11.218  19.446  0.00  0.00    +0.000 A 
ATOM      5  C   UNL     1       0.254   9.974  19.418  0.00  0.00    +0.000 A 
ATOM      6  C   UNL     1       0.685   9.356  20.598  0.00  0.00    +0.000 A 
ATOM      7  C   UNL     1       0.446  10.016  21.808  0.00  0.00    +0.000 A 
ATOM      8  C   UNL     1      -0.211  11.254  21.834  0.00  0.00    +0.000 A 
BRANCH   3  10
ATOM      9  C   UNL     1      -2.650  13.141  20.471  0.00  0.00    +0.000 C 
ATOM     10  O   UNL     1      -1.268  13.081  20.792  0.00  0.00    +0.000 OA
ENDBRANCH   3  10
BRANCH   7  11
ATOM     11  O   UNL     1       0.817   9.506  23.029  0.00  0.00    +0.000 OA
ATOM     12  H   UNL     1       1.626   9.971  23.307  0.00  0.00    +0.000 HD
ENDBRANCH   7  11
BRANCH   8  13
ATOM     13  O   UNL     1      -0.433  11.848  23.053  0.00  0.00    +0.000 OA
ATOM     14  H   UNL     1      -1.392  11.743  23.207  0.00  0.00    +0.000 HD
ENDBRANCH   8  13
ENDBRANCH   1   6
BRANCH   2  15
ATOM     15  C   UNL     1       2.698   6.324  19.406  0.00  0.00    +0.000 A 
ATOM     16  C   UNL     1       3.631   6.015  18.409  0.00  0.00    +0.000 A 
ATOM     17  C   UNL     1       4.235   4.748  18.343  0.00  0.00    +0.000 A 
ATOM     18  C   UNL     1       3.896   3.769  19.303  0.00  0.00    +0.000 A 
ATOM     19  C   UNL     1       2.944   4.083  20.307  0.00  0.00    +0.000 A 
ATOM     20  C   UNL     1       2.356   5.353  20.348  0.00  0.00    +0.000 A 
BRANCH  17  21
ATOM     21  O   UNL     1       5.148   4.416  17.376  0.00  0.00    +0.000 OA
ATOM     22  C   UNL     1       6.520   4.716  17.579  0.00  0.00    +0.000 C 
ENDBRANCH  17  21
BRANCH  18  23
ATOM     23  O   UNL     1       4.398   2.489  19.392  0.00  0.00    +0.000 OA
ATOM     24  C   UNL     1       3.833   1.450  18.606  0.00  0.00    +0.000 C 
ENDBRANCH  18  23
BRANCH  19  25
ATOM     25  O   UNL     1       2.653   3.082  21.209  0.00  0.00    +0.000 OA
ATOM     26  C   UNL     1       1.282   2.794  21.455  0.00  0.00    +0.000 C 
ENDBRANCH  19  25
ENDBRANCH   2  15
TORSDOF 8
ENDMDL
MODEL 8
REMARK VINA RESULT:      -6.7      6.791      8.354
REMARK  Name = 
REMARK  12 active torsions:
REMARK  status: ('A' for Active; 'I' for Inactive)
REMARK    1  A    between atoms: C_1  and  O_2
REMARK    2  A    between atoms: O_2  and  C_3
REMARK    3  A    between atoms: C_6  and  C_7
REMARK    4  A    between atoms: C_8  and  C_9
REMARK    5  A    between atoms: C_11  and  O_12
REMARK    6  A    between atoms: O_12  and  C_13
REMARK    7  A    between atoms: C_14  and  O_15
REMARK    8  A    between atoms: O_15  and  C_16
REMARK    9  A    between atoms: C_17  and  O_18
REMARK   10  A    between atoms: O_18  and  C_19
REMARK   11  A    between atoms: C_21  and  O_22
REMARK   12  A    between atoms: C_23  and  O_24
REMARK                            x       y       z     vdW  Elec       q    Type
REMARK                         _______ _______ _______ _____ _____    ______ ____
ROOT
ATOM      1  C   UNL     1       2.476   7.143  18.551  0.00  0.00    +0.000 C 
ATOM      2  C   UNL     1       2.300   8.439  18.249  0.00  0.00    +0.000 C 
ENDROOT
BRANCH   1   6
ATOM      3  C   UNL     1       5.320   4.679  16.441  0.00  0.00    +0.000 A 
ATOM      4  C   UNL     1       5.312   6.069  16.302  0.00  0.00    +0.000 A 
ATOM      5  C   UNL     1       4.369   6.854  16.988  0.00  0.00    +0.000 A 
ATOM      6  C   UNL     1       3.413   6.270  17.828  0.00  0.00    +0.000 A 
ATOM      7  C   UNL     1       3.423   4.877  17.962  0.00  0.00    +0.000 A 
ATOM      8  C   UNL     1       4.367   4.097  17.281  0.00  0.00    +0.000 A 
BRANCH   3  10
ATOM      9  C   UNL     1       6.321   3.932  14.410  0.00  0.00    +0.000 C 
ATOM     10  O   UNL     1       6.193   3.827  15.820  0.00  0.00    +0.000 OA
ENDBRANCH   3  10
BRANCH   7  11
ATOM     11  O   UNL     1       2.540   4.192  18.761  0.00  0.00    +0.000 OA
ATOM     12  H   UNL     1       2.604   3.250  18.527  0.00  0.00    +0.000 HD
ENDBRANCH   7  11
BRANCH   8  13
ATOM     13  O   UNL     1       4.340   2.735  17.464  0.00  0.00    +0.000 OA
ATOM     14  H   UNL     1       4.937   2.382  16.776  0.00  0.00    +0.000 HD
ENDBRANCH   8  13
ENDBRANCH   1   6
BRANCH   2  15
ATOM     15  C   UNL     1       1.365   9.286  18.999  0.00  0.00    +0.000 A 
ATOM     16  C   UNL     1       0.853   8.867  20.232  0.00  0.00    +0.000 A 
ATOM     17  C   UNL     1      -0.040   9.669  20.963  0.00  0.00    +0.000 A 
ATOM     18  C   UNL     1      -0.426  10.924  20.442  0.00  0.00    +0.000 A 
ATOM     19  C   UNL     1       0.088  11.342  19.188  0.00  0.00    +0.000 A 
ATOM     20  C   UNL     1       0.975  10.522  18.481  0.00  0.00    +0.000 A 
BRANCH  17  21
ATOM     21  O   UNL     1      -0.560   9.282  22.170  0.00  0.00    +0.000 OA
ATOM     22  C   UNL     1       0.232   9.400  23.341  0.00  0.00    +0.000 C 
ENDBRANCH  17  21
BRANCH  18  23
ATOM     23  O   UNL     1      -1.277  11.836  21.028  0.00  0.00    +0.000 OA
ATOM     24  C   UNL     1      -0.803  12.682  22.065  0.00  0.00    +0.000 C 
ENDBRANCH  18  23
BRANCH  19  25
ATOM     25  O   UNL     1      -0.332  12.574  18.734  0.00  0.00    +0.000 OA
ATOM     26  C   UNL     1       0.649  13.591  18.578  0.00  0.00    +0.000 C 
ENDBRANCH  19  25
ENDBRANCH   2  15
TORSDOF 8
ENDMDL
MODEL 9
REMARK VINA RESULT:      -6.7      6.103      9.591
REMARK  Name = 
REMARK  12 active torsions:
REMARK  status: ('A' for Active; 'I' for Inactive)
REMARK    1  A    between atoms: C_1  and  O_2
REMARK    2  A    between atoms: O_2  and  C_3
REMARK    3  A    between atoms: C_6  and  C_7
REMARK    4  A    between atoms: C_8  and  C_9
REMARK    5  A    between atoms: C_11  and  O_12
REMARK    6  A    between atoms: O_12  and  C_13
REMARK    7  A    between atoms: C_14  and  O_15
REMARK    8  A    between atoms: O_15  and  C_16
REMARK    9  A    between atoms: C_17  and  O_18
REMARK   10  A    between atoms: O_18  and  C_19
REMARK   11  A    between atoms: C_21  and  O_22
REMARK   12  A    between atoms: C_23  and  O_24
REMARK                            x       y       z     vdW  Elec       q    Type
REMARK                         _______ _______ _______ _____ _____    ______ ____
ROOT
ATOM      1  C   UNL     1       2.285   9.007  18.033  0.00  0.00    +0.000 C 
ATOM      2  C   UNL     1       2.374   7.758  18.518  0.00  0.00    +0.000 C 
ENDROOT
BRANCH   1   6
ATOM      3  C   UNL     1      -0.400  11.903  19.772  0.00  0.00    +0.000 A 
ATOM      4  C   UNL     1      -0.534  10.536  20.026  0.00  0.00    +0.000 A 
ATOM      5  C   UNL     1       0.343   9.605  19.441  0.00  0.00    +0.000 A 
ATOM      6  C   UNL     1       1.373  10.019  18.587  0.00  0.00    +0.000 A 
ATOM      7  C   UNL     1       1.503  11.389  18.333  0.00  0.00    +0.000 A 
ATOM      8  C   UNL     1       0.630  12.315  18.922  0.00  0.00    +0.000 A 
BRANCH   3  10
ATOM      9  C   UNL     1      -2.595  12.784  20.065  0.00  0.00    +0.000 C 
ATOM     10  O   UNL     1      -1.197  12.886  20.291  0.00  0.00    +0.000 OA
ENDBRANCH   3  10
BRANCH   7  11
ATOM     11  O   UNL     1       2.477  11.914  17.519  0.00  0.00    +0.000 OA
ATOM     12  H   UNL     1       2.613  12.840  17.785  0.00  0.00    +0.000 HD
ENDBRANCH   7  11
BRANCH   8  13
ATOM     13  O   UNL     1       0.816  13.649  18.649  0.00  0.00    +0.000 OA
ATOM     14  H   UNL     1       1.628  13.679  18.107  0.00  0.00    +0.000 HD
ENDBRANCH   8  13
ENDBRANCH   1   6
BRANCH   2  15
ATOM     15  C   UNL     1       3.304   6.774  17.949  0.00  0.00    +0.000 A 
ATOM     16  C   UNL     1       2.928   5.433  17.811  0.00  0.00    +0.000 A 
ATOM     17  C   UNL     1       3.807   4.482  17.265  0.00  0.00    +0.000 A 
ATOM     18  C   UNL     1       5.093   4.889  16.845  0.00  0.00    +0.000 A 
ATOM     19  C   UNL     1       5.472   6.248  16.994  0.00  0.00    +0.000 A 
ATOM     20  C   UNL     1       4.577   7.173  17.543  0.00  0.00    +0.000 A 
BRANCH  17  21
ATOM     21  O   UNL     1       3.468   3.162  17.123  0.00  0.00    +0.000 OA
ATOM     22  C   UNL     1       2.562   2.571  18.042  0.00  0.00    +0.000 C 
ENDBRANCH  17  21
BRANCH  18  23
ATOM     23  O   UNL     1       6.068   4.096  16.281  0.00  0.00    +0.000 OA
ATOM     24  C   UNL     1       6.030   3.808  14.891  0.00  0.00    +0.000 C 
ENDBRANCH  18  23
BRANCH  19  25
ATOM     25  O   UNL     1       6.742   6.578  16.570  0.00  0.00    +0.000 OA
ATOM     26  C   UNL     1       7.558   7.331  17.457  0.00  0.00    +0.000 C 
ENDBRANCH  19  25
ENDBRANCH   2  15
TORSDOF 8
ENDMDL
