MODEL 1
REMARK VINA RESULT:      -8.0      0.000      0.000
REMARK  Name = 
REMARK  3 active torsions:
REMARK  status: ('A' for Active; 'I' for Inactive)
REMARK    1  A    between atoms: C_1  and  C_2
REMARK    2  A    between atoms: N_6  and  C_7
REMARK    3  A    between atoms: C_7  and  C_8
REMARK                            x       y       z     vdW  Elec       q    Type
REMARK                         _______ _______ _______ _____ _____    ______ ____
ROOT
ATOM      1  C   UNL     1      -0.403   9.148  22.115  0.00  0.00    +0.000 C 
ATOM      2  C   UNL     1       0.566   8.549  21.162  0.00  0.00    +0.000 A 
ATOM      3  N   UNL     1       1.034   7.326  21.298  0.00  0.00    +0.000 NA
ATOM      4  C   UNL     1       1.852   7.112  20.228  0.00  0.00    +0.000 A 
ATOM      5  C   UNL     1       1.893   8.222  19.409  0.00  0.00    +0.000 A 
ATOM      6  N   UNL     1       1.095   9.162  20.036  0.00  0.00    +0.000 N 
ATOM      7  C   UNL     1       2.641   8.267  18.180  0.00  0.00    +0.000 C 
ATOM      8  O   UNL     1       2.650   9.220  17.411  0.00  0.00    +0.000 OA
ATOM      9  C   UNL     1       3.419   7.025  17.854  0.00  0.00    +0.000 A 
ATOM     10  C   UNL     1       4.193   6.978  16.685  0.00  0.00    +0.000 A 
ATOM     11  C   UNL     1       4.913   5.821  16.363  0.00  0.00    +0.000 A 
ATOM     12  C   UNL     1       4.862   4.705  17.198  0.00  0.00    +0.000 A 
ATOM     13  C   UNL     1       4.096   4.742  18.360  0.00  0.00    +0.000 A 
ATOM     14  C   UNL     1       3.378   5.899  18.696  0.00  0.00    +0.000 A 
ATOM     15  C   UNL     1       2.571   5.888  19.945  0.00  0.00    +0.000 C 
ATOM     16  O   UNL     1       2.538   4.889  20.658  0.00  0.00    +0.000 OA
ENDROOT
BRANCH   6  17
ATOM     17  C   UNL     1       0.794  10.514  19.566  0.00  0.00    +0.000 C 
BRANCH  17  18
ATOM     18  C   UNL     1      -0.563  10.600  18.901  0.00  0.00    +0.000 A 
ATOM     19  C   UNL     1      -0.853   9.823  17.769  0.00  0.00    +0.000 A 
ATOM     20  C   UNL     1      -2.061   9.977  17.085  0.00  0.00    +0.000 A 
ATOM     21  C   UNL     1      -3.001  10.897  17.537  0.00  0.00    +0.000 A 
ATOM     22 CL   UNL     1      -4.456  11.142  16.654  0.00  0.00    +0.000 Cl
ATOM     23  C   UNL     1      -2.760  11.631  18.697  0.00  0.00    +0.000 A 
ATOM     24  C   UNL     1      -1.547  11.479  19.378  0.00  0.00    +0.000 A 
ENDBRANCH  17  18
ENDBRANCH   6  17
TORSDOF 2
ENDMDL
MODEL 2
REMARK VINA RESULT:      -7.8      0.330      1.037
REMARK  Name = 
REMARK  3 active torsions:
REMARK  status: ('A' for Active; 'I' for Inactive)
REMARK    1  A    between atoms: C_1  and  C_2
REMARK    2  A    between atoms: N_6  and  C_7
REMARK    3  A    between atoms: C_7  and  C_8
REMARK                            x       y       z     vdW  Elec       q    Type
REMARK                         _______ _______ _______ _____ _____    ______ ____
ROOT
ATOM      1  C   UNL     1      -0.414   9.584  22.106  0.00  0.00    +0.000 C 
ATOM      2  C   UNL     1       0.518   8.873  21.195  0.00  0.00    +0.000 A 
ATOM      3  N   UNL     1       0.923   7.639  21.412  0.00  0.00    +0.000 NA
ATOM      4  C   UNL     1       1.723   7.311  20.358  0.00  0.00    +0.000 A 
ATOM      5  C   UNL     1       1.818   8.360  19.467  0.00  0.00    +0.000 A 
ATOM      6  N   UNL     1       1.073   9.380  20.030  0.00  0.00    +0.000 N 
ATOM      7  C   UNL     1       2.562   8.283  18.236  0.00  0.00    +0.000 C 
ATOM      8  O   UNL     1       2.618   9.180  17.405  0.00  0.00    +0.000 OA
ATOM      9  C   UNL     1       3.273   6.983  17.994  0.00  0.00    +0.000 A 
ATOM     10  C   UNL     1       4.038   6.817  16.830  0.00  0.00    +0.000 A 
ATOM     11  C   UNL     1       4.695   5.606  16.586  0.00  0.00    +0.000 A 
ATOM     12  C   UNL     1       4.590   4.552  17.494  0.00  0.00    +0.000 A 
ATOM     13  C   UNL     1       3.832   4.706  18.652  0.00  0.00    +0.000 A 
ATOM     14  C   UNL     1       3.176   5.920  18.910  0.00  0.00    +0.000 A 
ATOM     15  C   UNL     1       2.376   6.035  20.158  0.00  0.00    +0.000 C 
ATOM     16  O   UNL     1       2.294   5.089  20.936  0.00  0.00    +0.000 OA
ENDROOT
BRANCH   6  17
ATOM     17  C   UNL     1       0.841  10.712  19.471  0.00  0.00    +0.000 C 
BRANCH  17  18
ATOM     18  C   UNL     1      -0.534  10.841  18.851  0.00  0.00    +0.000 A 
ATOM     19  C   UNL     1      -1.454  11.778  19.347  0.00  0.00    +0.000 A 
ATOM     20  C   UNL     1      -2.760  11.828  18.853  0.00  0.00    +0.000 A 
ATOM     21  C   UNL     1      -3.154  10.954  17.845  0.00  0.00    +0.000 A 
ATOM     22 CL   UNL     1      -4.782  10.963  17.290  0.00  0.00    +0.000 Cl
ATOM     23  C   UNL     1      -2.237  10.062  17.294  0.00  0.00    +0.000 A 
ATOM     24  C   UNL     1      -0.931  10.009  17.793  0.00  0.00    +0.000 A 
ENDBRANCH  17  18
ENDBRANCH   6  17
TORSDOF 2
ENDMDL
MODEL 3
REMARK VINA RESULT:      -7.2      6.306      7.997
REMARK  Name = 
REMARK  3 active torsions:
REMARK  status: ('A' for Active; 'I' for Inactive)
REMARK    1  A    between atoms: C_1  and  C_2
REMARK    2  A    between atoms: N_6  and  C_7
REMARK    3  A    between atoms: C_7  and  C_8
REMARK                            x       y       z     vdW  Elec       q    Type
REMARK                         _______ _______ _______ _____ _____    ______ ____
ROOT
ATOM      1  C   UNL     1       6.209   4.423  14.475  0.00  0.00    +0.000 C 
ATOM      2  C   UNL     1       5.413   4.258  15.718  0.00  0.00    +0.000 A 
ATOM      3  N   UNL     1       4.111   4.061  15.708  0.00  0.00    +0.000 NA
ATOM      4  C   UNL     1       3.740   3.913  17.012  0.00  0.00    +0.000 A 
ATOM      5  C   UNL     1       4.831   4.018  17.850  0.00  0.00    +0.000 A 
ATOM      6  N   UNL     1       5.902   4.282  17.015  0.00  0.00    +0.000 N 
ATOM      7  C   UNL     1       4.745   3.859  19.278  0.00  0.00    +0.000 C 
ATOM      8  O   UNL     1       5.706   3.895  20.036  0.00  0.00    +0.000 OA
ATOM      9  C   UNL     1       3.367   3.605  19.817  0.00  0.00    +0.000 A 
ATOM     10  C   UNL     1       3.179   3.452  21.198  0.00  0.00    +0.000 A 
ATOM     11  C   UNL     1       1.901   3.202  21.711  0.00  0.00    +0.000 A 
ATOM     12  C   UNL     1       0.806   3.096  20.854  0.00  0.00    +0.000 A 
ATOM     13  C   UNL     1       0.982   3.245  19.481  0.00  0.00    +0.000 A 
ATOM     14  C   UNL     1       2.258   3.505  18.957  0.00  0.00    +0.000 A 
ATOM     15  C   UNL     1       2.397   3.651  17.484  0.00  0.00    +0.000 C 
ATOM     16  O   UNL     1       1.417   3.546  16.751  0.00  0.00    +0.000 OA
ENDROOT
BRANCH   6  17
ATOM     17  C   UNL     1       7.298   4.467  17.409  0.00  0.00    +0.000 C 
BRANCH  17  18
ATOM     18  C   UNL     1       7.598   5.899  17.798  0.00  0.00    +0.000 A 
ATOM     19  C   UNL     1       7.300   6.954  16.922  0.00  0.00    +0.000 A 
ATOM     20  C   UNL     1       7.673   8.265  17.227  0.00  0.00    +0.000 A 
ATOM     21  C   UNL     1       8.332   8.538  18.422  0.00  0.00    +0.000 A 
ATOM     22 CL   UNL     1       8.859  10.139  18.765  0.00  0.00    +0.000 Cl
ATOM     23  C   UNL     1       8.577   7.515  19.335  0.00  0.00    +0.000 A 
ATOM     24  C   UNL     1       8.208   6.201  19.026  0.00  0.00    +0.000 A 
ENDBRANCH  17  18
ENDBRANCH   6  17
TORSDOF 2
ENDMDL
MODEL 4
REMARK VINA RESULT:      -6.9      6.186      8.017
REMARK  Name = 
REMARK  3 active torsions:
REMARK  status: ('A' for Active; 'I' for Inactive)
REMARK    1  A    between atoms: C_1  and  C_2
REMARK    2  A    between atoms: N_6  and  C_7
REMARK    3  A    between atoms: C_7  and  C_8
REMARK                            x       y       z     vdW  Elec       q    Type
REMARK                         _______ _______ _______ _____ _____    ______ ____
ROOT
ATOM      1  C   UNL     1       5.729   4.790  14.576  0.00  0.00    +0.000 C 
ATOM      2  C   UNL     1       5.022   4.479  15.844  0.00  0.00    +0.000 A 
ATOM      3  N   UNL     1       3.711   4.388  15.925  0.00  0.00    +0.000 NA
ATOM      4  C   UNL     1       3.432   4.050  17.216  0.00  0.00    +0.000 A 
ATOM      5  C   UNL     1       4.592   3.927  17.955  0.00  0.00    +0.000 A 
ATOM      6  N   UNL     1       5.612   4.245  17.077  0.00  0.00    +0.000 N 
ATOM      7  C   UNL     1       4.605   3.535  19.340  0.00  0.00    +0.000 C 
ATOM      8  O   UNL     1       5.623   3.368  20.000  0.00  0.00    +0.000 OA
ATOM      9  C   UNL     1       3.257   3.301  19.956  0.00  0.00    +0.000 A 
ATOM     10  C   UNL     1       3.166   2.932  21.306  0.00  0.00    +0.000 A 
ATOM     11  C   UNL     1       1.915   2.698  21.889  0.00  0.00    +0.000 A 
ATOM     12  C   UNL     1       0.750   2.824  21.133  0.00  0.00    +0.000 A 
ATOM     13  C   UNL     1       0.830   3.189  19.791  0.00  0.00    +0.000 A 
ATOM     14  C   UNL     1       2.079   3.434  19.199  0.00  0.00    +0.000 A 
ATOM     15  C   UNL     1       2.113   3.817  17.763  0.00  0.00    +0.000 C 
ATOM     16  O   UNL     1       1.073   3.913  17.118  0.00  0.00    +0.000 OA
ENDROOT
BRANCH   6  17
ATOM     17  C   UNL     1       7.047   4.253  17.363  0.00  0.00    +0.000 C 
BRANCH  17  18
ATOM     18  C   UNL     1       7.552   5.634  17.720  0.00  0.00    +0.000 A 
ATOM     19  C   UNL     1       8.142   5.876  18.971  0.00  0.00    +0.000 A 
ATOM     20  C   UNL     1       8.511   7.170  19.350  0.00  0.00    +0.000 A 
ATOM     21  C   UNL     1       8.311   8.231  18.474  0.00  0.00    +0.000 A 
ATOM     22 CL   UNL     1       8.694   9.834  18.968  0.00  0.00    +0.000 Cl
ATOM     23  C   UNL     1       7.789   8.002  17.203  0.00  0.00    +0.000 A 
ATOM     24  C   UNL     1       7.415   6.707  16.826  0.00  0.00    +0.000 A 
ENDBRANCH  17  18
ENDBRANCH   6  17
TORSDOF 2
ENDMDL
MODEL 5
REMARK VINA RESULT:      -6.8      1.578      2.948
REMARK  Name = 
REMARK  3 active torsions:
REMARK  status: ('A' for Active; 'I' for Inactive)
REMARK    1  A    between atoms: C_1  and  C_2
REMARK    2  A    between atoms: N_6  and  C_7
REMARK    3  A    between atoms: C_7  and  C_8
REMARK                            x       y       z     vdW  Elec       q    Type
REMARK                         _______ _______ _______ _____ _____    ______ ____
ROOT
ATOM      1  C   UNL     1       2.097  11.354  17.647  0.00  0.00    +0.000 C 
ATOM      2  C   UNL     1       2.142   9.954  18.138  0.00  0.00    +0.000 A 
ATOM      3  N   UNL     1       2.839   9.011  17.540  0.00  0.00    +0.000 NA
ATOM      4  C   UNL     1       2.676   7.884  18.290  0.00  0.00    +0.000 A 
ATOM      5  C   UNL     1       1.863   8.129  19.377  0.00  0.00    +0.000 A 
ATOM      6  N   UNL     1       1.486   9.454  19.253  0.00  0.00    +0.000 N 
ATOM      7  C   UNL     1       1.552   7.132  20.368  0.00  0.00    +0.000 C 
ATOM      8  O   UNL     1       0.876   7.339  21.368  0.00  0.00    +0.000 OA
ATOM      9  C   UNL     1       2.144   5.775  20.125  0.00  0.00    +0.000 A 
ATOM     10  C   UNL     1       1.885   4.732  21.026  0.00  0.00    +0.000 A 
ATOM     11  C   UNL     1       2.442   3.465  20.817  0.00  0.00    +0.000 A 
ATOM     12  C   UNL     1       3.264   3.230  19.716  0.00  0.00    +0.000 A 
ATOM     13  C   UNL     1       3.529   4.259  18.815  0.00  0.00    +0.000 A 
ATOM     14  C   UNL     1       2.968   5.531  19.011  0.00  0.00    +0.000 A 
ATOM     15  C   UNL     1       3.284   6.597  18.025  0.00  0.00    +0.000 C 
ATOM     16  O   UNL     1       4.017   6.366  17.067  0.00  0.00    +0.000 OA
ENDROOT
BRANCH   6  17
ATOM     17  C   UNL     1       0.630  10.213  20.165  0.00  0.00    +0.000 C 
BRANCH  17  18
ATOM     18  C   UNL     1      -0.704  10.561  19.541  0.00  0.00    +0.000 A 
ATOM     19  C   UNL     1      -1.223   9.789  18.490  0.00  0.00    +0.000 A 
ATOM     20  C   UNL     1      -2.399  10.167  17.837  0.00  0.00    +0.000 A 
ATOM     21  C   UNL     1      -3.079  11.311  18.241  0.00  0.00    +0.000 A 
ATOM     22 CL   UNL     1      -4.484  11.820  17.389  0.00  0.00    +0.000 Cl
ATOM     23  C   UNL     1      -2.616  12.054  19.325  0.00  0.00    +0.000 A 
ATOM     24  C   UNL     1      -1.436  11.677  19.975  0.00  0.00    +0.000 A 
ENDBRANCH  17  18
ENDBRANCH   6  17
TORSDOF 2
ENDMDL
MODEL 6
REMARK VINA RESULT:      -6.7      3.086      7.084
REMARK  Name = 
REMARK  3 active torsions:
REMARK  status: ('A' for Active; 'I' for Inactive)
REMARK    1  A    between atoms: C_1  and  C_2
REMARK    2  A    between atoms: N_6  and  C_7
REMARK    3  A    between atoms: C_7  and  C_8
REMARK                            x       y       z     vdW  Elec       q    Type
REMARK                         _______ _______ _______ _____ _____    ______ ____
ROOT
ATOM      1  C   UNL     1       2.976   7.971  17.015  0.00  0.00    +0.000 C 
ATOM      2  C   UNL     1       2.174   8.635  18.074  0.00  0.00    +0.000 A 
ATOM      3  N   UNL     1       1.425   9.693  17.842  0.00  0.00    +0.000 NA
ATOM      4  C   UNL     1       0.813   9.991  19.023  0.00  0.00    +0.000 A 
ATOM      5  C   UNL     1       1.186   9.101  20.010  0.00  0.00    +0.000 A 
ATOM      6  N   UNL     1       2.096   8.254  19.405  0.00  0.00    +0.000 N 
ATOM      7  C   UNL     1       0.661   9.146  21.350  0.00  0.00    +0.000 C 
ATOM      8  O   UNL     1       0.936   8.337  22.227  0.00  0.00    +0.000 OA
ATOM      9  C   UNL     1      -0.305  10.261  21.626  0.00  0.00    +0.000 A 
ATOM     10  C   UNL     1      -0.859  10.397  22.908  0.00  0.00    +0.000 A 
ATOM     11  C   UNL     1      -1.771  11.425  23.175  0.00  0.00    +0.000 A 
ATOM     12  C   UNL     1      -2.142  12.317  22.169  0.00  0.00    +0.000 A 
ATOM     13  C   UNL     1      -1.599  12.189  20.892  0.00  0.00    +0.000 A 
ATOM     14  C   UNL     1      -0.677  11.168  20.617  0.00  0.00    +0.000 A 
ATOM     15  C   UNL     1      -0.128  11.069  19.239  0.00  0.00    +0.000 C 
ATOM     16  O   UNL     1      -0.478  11.863  18.370  0.00  0.00    +0.000 OA
ENDROOT
BRANCH   6  17
ATOM     17  C   UNL     1       2.784   7.118  20.020  0.00  0.00    +0.000 C 
BRANCH  17  18
ATOM     18  C   UNL     1       2.139   5.796  19.663  0.00  0.00    +0.000 A 
ATOM     19  C   UNL     1       1.420   5.071  20.626  0.00  0.00    +0.000 A 
ATOM     20  C   UNL     1       0.916   3.801  20.336  0.00  0.00    +0.000 A 
ATOM     21  C   UNL     1       1.109   3.250  19.073  0.00  0.00    +0.000 A 
ATOM     22 CL   UNL     1       0.556   1.657  18.738  0.00  0.00    +0.000 Cl
ATOM     23  C   UNL     1       1.762   3.982  18.083  0.00  0.00    +0.000 A 
ATOM     24  C   UNL     1       2.271   5.251  18.377  0.00  0.00    +0.000 A 
ENDBRANCH  17  18
ENDBRANCH   6  17
TORSDOF 2
ENDMDL
MODEL 7
REMARK VINA RESULT:      -6.7      4.471      8.799
REMARK  Name = 
REMARK  3 active torsions:
REMARK  status: ('A' for Active; 'I' for Inactive)
REMARK    1  A    between atoms: C_1  and  C_2
REMARK    2  A    between atoms: N_6  and  C_7
REMARK    3  A    between atoms: C_7  and  C_8
REMARK                            x       y       z     vdW  Elec       q    Type
REMARK                         _______ _______ _______ _____ _____    ______ ____
ROOT
ATOM      1  C   UNL     1      -2.348  10.572  16.165  0.00  0.00    +0.000 C 
ATOM      2  C   UNL     1      -3.127  11.070  17.326  0.00  0.00    +0.000 A 
ATOM      3  N   UNL     1      -4.420  10.861  17.459  0.00  0.00    +0.000 NA
ATOM      4  C   UNL     1      -4.774  11.418  18.652  0.00  0.00    +0.000 A 
ATOM      5  C   UNL     1      -3.681  11.984  19.276  0.00  0.00    +0.000 A 
ATOM      6  N   UNL     1      -2.628  11.793  18.399  0.00  0.00    +0.000 N 
ATOM      7  C   UNL     1      -3.749  12.605  20.572  0.00  0.00    +0.000 C 
ATOM      8  O   UNL     1      -2.784  13.066  21.169  0.00  0.00    +0.000 OA
ATOM      9  C   UNL     1      -5.112  12.637  21.201  0.00  0.00    +0.000 A 
ATOM     10  C   UNL     1      -5.282  13.237  22.458  0.00  0.00    +0.000 A 
ATOM     11  C   UNL     1      -6.546  13.262  23.060  0.00  0.00    +0.000 A 
ATOM     12  C   UNL     1      -7.643  12.685  22.420  0.00  0.00    +0.000 A 
ATOM     13  C   UNL     1      -7.484  12.086  21.173  0.00  0.00    +0.000 A 
ATOM     14  C   UNL     1      -6.223  12.064  20.557  0.00  0.00    +0.000 A 
ATOM     15  C   UNL     1      -6.102  11.409  19.228  0.00  0.00    +0.000 C 
ATOM     16  O   UNL     1      -7.083  10.902  18.690  0.00  0.00    +0.000 OA
ENDROOT
BRANCH   6  17
ATOM     17  C   UNL     1      -1.237  12.200  18.596  0.00  0.00    +0.000 C 
BRANCH  17  18
ATOM     18  C   UNL     1      -0.383  11.074  19.138  0.00  0.00    +0.000 A 
ATOM     19  C   UNL     1       0.550  10.426  18.313  0.00  0.00    +0.000 A 
ATOM     20  C   UNL     1       1.263   9.316  18.774  0.00  0.00    +0.000 A 
ATOM     21  C   UNL     1       1.065   8.854  20.070  0.00  0.00    +0.000 A 
ATOM     22 CL   UNL     1       1.885   7.443  20.614  0.00  0.00    +0.000 Cl
ATOM     23  C   UNL     1       0.193   9.524  20.926  0.00  0.00    +0.000 A 
ATOM     24  C   UNL     1      -0.525  10.632  20.462  0.00  0.00    +0.000 A 
ENDBRANCH  17  18
ENDBRANCH   6  17
TORSDOF 2
ENDMDL
MODEL 8
REMARK VINA RESULT:      -6.7      4.481      8.855
REMARK  Name = 
REMARK  3 active torsions:
REMARK  status: ('A' for Active; 'I' for Inactive)
REMARK    1  A    between atoms: C_1  and  C_2
REMARK    2  A    between atoms: N_6  and  C_7
REMARK    3  A    between atoms: C_7  and  C_8
REMARK                            x       y       z     vdW  Elec       q    Type
REMARK                         _______ _______ _______ _____ _____    ______ ____
ROOT
ATOM      1  C   UNL     1      -2.602  10.785  15.894  0.00  0.00    +0.000 C 
ATOM      2  C   UNL     1      -3.294  11.239  17.127  0.00  0.00    +0.000 A 
ATOM      3  N   UNL     1      -4.591  11.106  17.306  0.00  0.00    +0.000 NA
ATOM      4  C   UNL     1      -4.855  11.588  18.554  0.00  0.00    +0.000 A 
ATOM      5  C   UNL     1      -3.699  12.028  19.166  0.00  0.00    +0.000 A 
ATOM      6  N   UNL     1      -2.701  11.840  18.227  0.00  0.00    +0.000 N 
ATOM      7  C   UNL     1      -3.667  12.547  20.508  0.00  0.00    +0.000 C 
ATOM      8  O   UNL     1      -2.648  12.894  21.091  0.00  0.00    +0.000 OA
ATOM      9  C   UNL     1      -4.996  12.618  21.203  0.00  0.00    +0.000 A 
ATOM     10  C   UNL     1      -5.070  13.125  22.509  0.00  0.00    +0.000 A 
ATOM     11  C   UNL     1      -6.301  13.185  23.171  0.00  0.00    +0.000 A 
ATOM     12  C   UNL     1      -7.463  12.735  22.544  0.00  0.00    +0.000 A 
ATOM     13  C   UNL     1      -7.399  12.228  21.248  0.00  0.00    +0.000 A 
ATOM     14  C   UNL     1      -6.171  12.173  20.571  0.00  0.00    +0.000 A 
ATOM     15  C   UNL     1      -6.154  11.620  19.191  0.00  0.00    +0.000 C 
ATOM     16  O   UNL     1      -7.189  11.224  18.664  0.00  0.00    +0.000 OA
ENDROOT
BRANCH   6  17
ATOM     17  C   UNL     1      -1.277  12.137  18.386  0.00  0.00    +0.000 C 
BRANCH  17  18
ATOM     18  C   UNL     1      -0.485  10.924  18.827  0.00  0.00    +0.000 A 
ATOM     19  C   UNL     1      -0.581  10.450  20.144  0.00  0.00    +0.000 A 
ATOM     20  C   UNL     1       0.228   9.400  20.588  0.00  0.00    +0.000 A 
ATOM     21  C   UNL     1       1.128   8.802  19.712  0.00  0.00    +0.000 A 
ATOM     22 CL   UNL     1       2.178   7.561  20.277  0.00  0.00    +0.000 Cl
ATOM     23  C   UNL     1       1.191   9.214  18.383  0.00  0.00    +0.000 A 
ATOM     24  C   UNL     1       0.384  10.268  17.941  0.00  0.00    +0.000 A 
ENDBRANCH  17  18
ENDBRANCH   6  17
TORSDOF 2
ENDMDL
MODEL 9
REMARK VINA RESULT:      -6.6      2.796      3.589
REMARK  Name = 
REMARK  3 active torsions:
REMARK  status: ('A' for Active; 'I' for Inactive)
REMARK    1  A    between atoms: C_1  and  C_2
REMARK    2  A    between atoms: N_6  and  C_7
REMARK    3  A    between atoms: C_7  and  C_8
REMARK                            x       y       z     vdW  Elec       q    Type
REMARK                         _______ _______ _______ _____ _____    ______ ____
ROOT
ATOM      1  C   UNL     1      -0.705  10.172  21.822  0.00  0.00    +0.000 C 
ATOM      2  C   UNL     1       0.261   9.408  20.994  0.00  0.00    +0.000 A 
ATOM      3  N   UNL     1       0.732   8.231  21.353  0.00  0.00    +0.000 NA
ATOM      4  C   UNL     1       1.546   7.822  20.339  0.00  0.00    +0.000 A 
ATOM      5  C   UNL     1       1.584   8.761  19.328  0.00  0.00    +0.000 A 
ATOM      6  N   UNL     1       0.787   9.800  19.772  0.00  0.00    +0.000 N 
ATOM      7  C   UNL     1       2.328   8.576  18.109  0.00  0.00    +0.000 C 
ATOM      8  O   UNL     1       2.334   9.370  17.176  0.00  0.00    +0.000 OA
ATOM      9  C   UNL     1       3.106   7.296  18.017  0.00  0.00    +0.000 A 
ATOM     10  C   UNL     1       3.876   7.033  16.875  0.00  0.00    +0.000 A 
ATOM     11  C   UNL     1       4.596   5.837  16.772  0.00  0.00    +0.000 A 
ATOM     12  C   UNL     1       4.549   4.895  17.799  0.00  0.00    +0.000 A 
ATOM     13  C   UNL     1       3.787   5.147  18.937  0.00  0.00    +0.000 A 
ATOM     14  C   UNL     1       3.068   6.346  19.054  0.00  0.00    +0.000 A 
ATOM     15  C   UNL     1       2.265   6.567  20.286  0.00  0.00    +0.000 C 
ATOM     16  O   UNL     1       2.235   5.718  21.172  0.00  0.00    +0.000 OA
ENDROOT
BRANCH   6  17
ATOM     17  C   UNL     1       0.483  11.041  19.060  0.00  0.00    +0.000 C 
BRANCH  17  18
ATOM     18  C   UNL     1       1.524  12.112  19.306  0.00  0.00    +0.000 A 
ATOM     19  C   UNL     1       1.712  12.641  20.593  0.00  0.00    +0.000 A 
ATOM     20  C   UNL     1       2.593  13.705  20.808  0.00  0.00    +0.000 A 
ATOM     21  C   UNL     1       3.308  14.238  19.741  0.00  0.00    +0.000 A 
ATOM     22 CL   UNL     1       4.334  15.596  19.990  0.00  0.00    +0.000 Cl
ATOM     23  C   UNL     1       3.185  13.684  18.469  0.00  0.00    +0.000 A 
ATOM     24  C   UNL     1       2.299  12.623  18.254  0.00  0.00    +0.000 A 
ENDBRANCH  17  18
ENDBRANCH   6  17
TORSDOF 2
ENDMDL
