MODEL 1
REMARK VINA RESULT:      -7.7      0.000      0.000
REMARK  Name = 
REMARK  4 active torsions:
REMARK  status: ('A' for Active; 'I' for Inactive)
REMARK    1  A    between atoms: C_1  and  O_2
REMARK    2  A    between atoms: O_2  and  C_3
REMARK    3  A    between atoms: C_6  and  C_7
REMARK    4  A    between atoms: C_20  and  C_21
REMARK                            x       y       z     vdW  Elec       q    Type
REMARK                         _______ _______ _______ _____ _____    ______ ____
ROOT
ATOM      1  C   UNL     1       0.546  11.078  20.052  0.00  0.00    +0.000 C 
ATOM      2  N   UNL     1       1.092  11.888  20.922  0.00  0.00    +0.000 NA
ATOM      3  O   UNL     1      -0.009  12.748  21.380  0.00  0.00    +0.000 OA
ATOM      4  C   UNL     1      -1.267  11.947  21.095  0.00  0.00    +0.000 C 
ATOM      5  C   UNL     1      -1.046  11.095  22.361  0.00  0.00    +0.000 C 
ATOM      6  O   UNL     1      -0.750   9.908  22.425  0.00  0.00    +0.000 OA
ATOM      7  N   UNL     1      -1.456  11.912  23.451  0.00  0.00    +0.000 N 
ATOM      8  C   UNL     1      -2.540  12.668  22.940  0.00  0.00    +0.000 A 
ATOM      9  C   UNL     1      -3.629  12.980  23.738  0.00  0.00    +0.000 A 
ATOM     10  C   UNL     1      -4.871  13.035  23.119  0.00  0.00    +0.000 A 
ATOM     11  C   UNL     1      -4.972  12.827  21.734  0.00  0.00    +0.000 A 
ATOM     12  C   UNL     1      -3.826  12.643  20.931  0.00  0.00    +0.000 A 
ATOM     13  C   UNL     1      -2.576  12.579  21.539  0.00  0.00    +0.000 A 
ATOM     14  C   UNL     1      -0.833  11.575  19.691  0.00  0.00    +0.000 C 
ATOM     15  H   UNL     1      -0.698  12.568  23.649  0.00  0.00    +0.000 HD
ENDROOT
BRANCH   1  19
ATOM     16  C   UNL     1       2.459   7.478  18.571  0.00  0.00    +0.000 A 
ATOM     17  C   UNL     1       2.208   8.552  17.726  0.00  0.00    +0.000 A 
ATOM     18  C   UNL     1       1.558   9.695  18.199  0.00  0.00    +0.000 A 
ATOM     19  C   UNL     1       1.178   9.818  19.541  0.00  0.00    +0.000 A 
ATOM     20  C   UNL     1       1.346   8.695  20.365  0.00  0.00    +0.000 A 
ATOM     21  C   UNL     1       1.989   7.532  19.884  0.00  0.00    +0.000 A 
BRANCH  16  23
ATOM     22  C   UNL     1       2.544   5.139  18.191  0.00  0.00    +0.000 C 
ATOM     23  O   UNL     1       3.102   6.429  17.978  0.00  0.00    +0.000 OA
ENDBRANCH  16  23
ENDBRANCH   1  19
BRANCH  14  24
ATOM     24  C   UNL     1      -1.605  11.028  18.533  0.00  0.00    +0.000 A 
ATOM     25  C   UNL     1      -1.681  11.819  17.363  0.00  0.00    +0.000 A 
ATOM     26  C   UNL     1      -2.527  11.480  16.315  0.00  0.00    +0.000 A 
ATOM     27  C   UNL     1      -3.308  10.328  16.416  0.00  0.00    +0.000 A 
ATOM     28  C   UNL     1      -3.194   9.503  17.534  0.00  0.00    +0.000 A 
ATOM     29  C   UNL     1      -2.331   9.838  18.586  0.00  0.00    +0.000 A 
ENDBRANCH  14  24
TORSDOF 3
ENDMDL
MODEL 2
REMARK VINA RESULT:      -7.4      0.404      1.346
REMARK  Name = 
REMARK  4 active torsions:
REMARK  status: ('A' for Active; 'I' for Inactive)
REMARK    1  A    between atoms: C_1  and  O_2
REMARK    2  A    between atoms: O_2  and  C_3
REMARK    3  A    between atoms: C_6  and  C_7
REMARK    4  A    between atoms: C_20  and  C_21
REMARK                            x       y       z     vdW  Elec       q    Type
REMARK                         _______ _______ _______ _____ _____    ______ ____
ROOT
ATOM      1  C   UNL     1       0.402  11.268  20.155  0.00  0.00    +0.000 C 
ATOM      2  N   UNL     1       0.944  12.039  21.063  0.00  0.00    +0.000 NA
ATOM      3  O   UNL     1      -0.162  12.869  21.562  0.00  0.00    +0.000 OA
ATOM      4  C   UNL     1      -1.415  12.074  21.239  0.00  0.00    +0.000 C 
ATOM      5  C   UNL     1      -1.188  11.164  22.463  0.00  0.00    +0.000 C 
ATOM      6  O   UNL     1      -0.885   9.977  22.470  0.00  0.00    +0.000 OA
ATOM      7  N   UNL     1      -1.602  11.925  23.591  0.00  0.00    +0.000 N 
ATOM      8  C   UNL     1      -2.691  12.698  23.117  0.00  0.00    +0.000 A 
ATOM      9  C   UNL     1      -3.782  12.965  23.930  0.00  0.00    +0.000 A 
ATOM     10  C   UNL     1      -5.024  13.041  23.315  0.00  0.00    +0.000 A 
ATOM     11  C   UNL     1      -5.125  12.899  21.922  0.00  0.00    +0.000 A 
ATOM     12  C   UNL     1      -3.979  12.761  21.110  0.00  0.00    +0.000 A 
ATOM     13  C   UNL     1      -2.728  12.676  21.714  0.00  0.00    +0.000 A 
ATOM     14  C   UNL     1      -0.980  11.773  19.819  0.00  0.00    +0.000 C 
ATOM     15  H   UNL     1      -0.848  12.575  23.820  0.00  0.00    +0.000 HD
ENDROOT
BRANCH   1  19
ATOM     16  C   UNL     1       2.169   7.666  18.507  0.00  0.00    +0.000 A 
ATOM     17  C   UNL     1       1.829   7.743  19.852  0.00  0.00    +0.000 A 
ATOM     18  C   UNL     1       1.294   8.919  20.385  0.00  0.00    +0.000 A 
ATOM     19  C   UNL     1       1.042  10.038  19.584  0.00  0.00    +0.000 A 
ATOM     20  C   UNL     1       1.476   9.988  18.251  0.00  0.00    +0.000 A 
ATOM     21  C   UNL     1       2.032   8.805  17.713  0.00  0.00    +0.000 A 
BRANCH  16  23
ATOM     22  C   UNL     1       3.680   5.895  18.954  0.00  0.00    +0.000 C 
ATOM     23  O   UNL     1       2.677   6.459  18.119  0.00  0.00    +0.000 OA
ENDBRANCH  16  23
ENDBRANCH   1  19
BRANCH  14  24
ATOM     24  C   UNL     1      -1.750  11.277  18.637  0.00  0.00    +0.000 A 
ATOM     25  C   UNL     1      -2.460  10.062  18.780  0.00  0.00    +0.000 A 
ATOM     26  C   UNL     1      -3.042   9.432  17.687  0.00  0.00    +0.000 A 
ATOM     27  C   UNL     1      -2.933  10.019  16.426  0.00  0.00    +0.000 A 
ATOM     28  C   UNL     1      -2.295  11.249  16.280  0.00  0.00    +0.000 A 
ATOM     29  C   UNL     1      -1.718  11.891  17.385  0.00  0.00    +0.000 A 
ENDBRANCH  14  24
TORSDOF 3
ENDMDL
MODEL 3
REMARK VINA RESULT:      -7.0      0.676      1.134
REMARK  Name = 
REMARK  4 active torsions:
REMARK  status: ('A' for Active; 'I' for Inactive)
REMARK    1  A    between atoms: C_1  and  O_2
REMARK    2  A    between atoms: O_2  and  C_3
REMARK    3  A    between atoms: C_6  and  C_7
REMARK    4  A    between atoms: C_20  and  C_21
REMARK                            x       y       z     vdW  Elec       q    Type
REMARK                         _______ _______ _______ _____ _____    ______ ____
ROOT
ATOM      1  C   UNL     1       0.359  11.368  20.241  0.00  0.00    +0.000 C 
ATOM      2  N   UNL     1       0.868  12.275  21.035  0.00  0.00    +0.000 NA
ATOM      3  O   UNL     1      -0.233  13.216  21.287  0.00  0.00    +0.000 OA
ATOM      4  C   UNL     1      -1.494  12.414  21.016  0.00  0.00    +0.000 C 
ATOM      5  C   UNL     1      -1.395  11.737  22.397  0.00  0.00    +0.000 C 
ATOM      6  O   UNL     1      -1.146  10.563  22.642  0.00  0.00    +0.000 OA
ATOM      7  N   UNL     1      -1.855  12.704  23.334  0.00  0.00    +0.000 N 
ATOM      8  C   UNL     1      -2.872  13.410  22.644  0.00  0.00    +0.000 A 
ATOM      9  C   UNL     1      -4.006  13.854  23.307  0.00  0.00    +0.000 A 
ATOM     10  C   UNL     1      -5.196  13.855  22.593  0.00  0.00    +0.000 A 
ATOM     11  C   UNL     1      -5.203  13.463  21.244  0.00  0.00    +0.000 A 
ATOM     12  C   UNL     1      -4.008  13.143  20.563  0.00  0.00    +0.000 A 
ATOM     13  C   UNL     1      -2.809  13.132  21.269  0.00  0.00    +0.000 A 
ATOM     14  C   UNL     1      -0.971  11.845  19.712  0.00  0.00    +0.000 C 
ATOM     15  H   UNL     1      -1.092  13.362  23.500  0.00  0.00    +0.000 HD
ENDROOT
BRANCH   1  19
ATOM     16  C   UNL     1       2.079   7.473  19.412  0.00  0.00    +0.000 A 
ATOM     17  C   UNL     1       1.635   7.801  20.688  0.00  0.00    +0.000 A 
ATOM     18  C   UNL     1       1.117   9.070  20.957  0.00  0.00    +0.000 A 
ATOM     19  C   UNL     1       0.984  10.035  19.953  0.00  0.00    +0.000 A 
ATOM     20  C   UNL     1       1.521   9.734  18.693  0.00  0.00    +0.000 A 
ATOM     21  C   UNL     1       2.062   8.456  18.422  0.00  0.00    +0.000 A 
BRANCH  16  23
ATOM     22  C   UNL     1       2.886   5.770  17.974  0.00  0.00    +0.000 C 
ATOM     23  O   UNL     1       2.558   6.200  19.289  0.00  0.00    +0.000 OA
ENDBRANCH  16  23
ENDBRANCH   1  19
BRANCH  14  24
ATOM     24  C   UNL     1      -1.675  11.164  18.582  0.00  0.00    +0.000 A 
ATOM     25  C   UNL     1      -1.759  11.856  17.349  0.00  0.00    +0.000 A 
ATOM     26  C   UNL     1      -2.551  11.387  16.310  0.00  0.00    +0.000 A 
ATOM     27  C   UNL     1      -3.269  10.203  16.482  0.00  0.00    +0.000 A 
ATOM     28  C   UNL     1      -3.145   9.476  17.665  0.00  0.00    +0.000 A 
ATOM     29  C   UNL     1      -2.335   9.943  18.710  0.00  0.00    +0.000 A 
ENDBRANCH  14  24
TORSDOF 3
ENDMDL
MODEL 4
REMARK VINA RESULT:      -6.7      3.038      4.780
REMARK  Name = 
REMARK  4 active torsions:
REMARK  status: ('A' for Active; 'I' for Inactive)
REMARK    1  A    between atoms: C_1  and  O_2
REMARK    2  A    between atoms: O_2  and  C_3
REMARK    3  A    between atoms: C_6  and  C_7
REMARK    4  A    between atoms: C_20  and  C_21
REMARK                            x       y       z     vdW  Elec       q    Type
REMARK                         _______ _______ _______ _____ _____    ______ ____
ROOT
ATOM      1  C   UNL     1      -0.858  11.828  21.002  0.00  0.00    +0.000 C 
ATOM      2  N   UNL     1      -0.955  11.125  22.101  0.00  0.00    +0.000 NA
ATOM      3  O   UNL     1      -0.763  12.097  23.188  0.00  0.00    +0.000 OA
ATOM      4  C   UNL     1      -1.121  13.438  22.572  0.00  0.00    +0.000 C 
ATOM      5  C   UNL     1      -2.626  13.144  22.736  0.00  0.00    +0.000 C 
ATOM      6  O   UNL     1      -3.450  12.938  21.854  0.00  0.00    +0.000 OA
ATOM      7  N   UNL     1      -2.913  13.364  24.112  0.00  0.00    +0.000 N 
ATOM      8  C   UNL     1      -2.064  14.436  24.485  0.00  0.00    +0.000 A 
ATOM      9  C   UNL     1      -2.490  15.401  25.385  0.00  0.00    +0.000 A 
ATOM     10  C   UNL     1      -2.030  16.696  25.186  0.00  0.00    +0.000 A 
ATOM     11  C   UNL     1      -1.135  16.968  24.139  0.00  0.00    +0.000 A 
ATOM     12  C   UNL     1      -0.619  15.937  23.324  0.00  0.00    +0.000 A 
ATOM     13  C   UNL     1      -1.077  14.635  23.507  0.00  0.00    +0.000 A 
ATOM     14  C   UNL     1      -0.303  13.196  21.320  0.00  0.00    +0.000 C 
ATOM     15  H   UNL     1      -2.602  12.539  24.629  0.00  0.00    +0.000 HD
ENDROOT
BRANCH   1  19
ATOM     16  C   UNL     1      -2.135  10.386  17.115  0.00  0.00    +0.000 A 
ATOM     17  C   UNL     1      -0.964   9.919  17.701  0.00  0.00    +0.000 A 
ATOM     18  C   UNL     1      -0.538  10.415  18.936  0.00  0.00    +0.000 A 
ATOM     19  C   UNL     1      -1.290  11.358  19.645  0.00  0.00    +0.000 A 
ATOM     20  C   UNL     1      -2.418  11.896  19.007  0.00  0.00    +0.000 A 
ATOM     21  C   UNL     1      -2.842  11.408  17.750  0.00  0.00    +0.000 A 
BRANCH  16  23
ATOM     22  C   UNL     1      -3.243  10.580  15.029  0.00  0.00    +0.000 C 
ATOM     23  O   UNL     1      -2.434   9.814  15.912  0.00  0.00    +0.000 OA
ENDBRANCH  16  23
ENDBRANCH   1  19
BRANCH  14  24
ATOM     24  C   UNL     1       0.176  14.133  20.258  0.00  0.00    +0.000 A 
ATOM     25  C   UNL     1       1.549  14.095  19.920  0.00  0.00    +0.000 A 
ATOM     26  C   UNL     1       2.116  15.052  19.088  0.00  0.00    +0.000 A 
ATOM     27  C   UNL     1       1.309  16.064  18.566  0.00  0.00    +0.000 A 
ATOM     28  C   UNL     1      -0.059  16.075  18.836  0.00  0.00    +0.000 A 
ATOM     29  C   UNL     1      -0.633  15.102  19.665  0.00  0.00    +0.000 A 
ENDBRANCH  14  24
TORSDOF 3
ENDMDL
MODEL 5
REMARK VINA RESULT:      -6.6      3.486      7.206
REMARK  Name = 
REMARK  4 active torsions:
REMARK  status: ('A' for Active; 'I' for Inactive)
REMARK    1  A    between atoms: C_1  and  O_2
REMARK    2  A    between atoms: O_2  and  C_3
REMARK    3  A    between atoms: C_6  and  C_7
REMARK    4  A    between atoms: C_20  and  C_21
REMARK                            x       y       z     vdW  Elec       q    Type
REMARK                         _______ _______ _______ _____ _____    ______ ____
ROOT
ATOM      1  C   UNL     1      -1.281  13.736  22.935  0.00  0.00    +0.000 C 
ATOM      2  N   UNL     1      -0.772  14.856  23.382  0.00  0.00    +0.000 NA
ATOM      3  O   UNL     1       0.523  14.981  22.698  0.00  0.00    +0.000 OA
ATOM      4  C   UNL     1       0.383  14.129  21.449  0.00  0.00    +0.000 C 
ATOM      5  C   UNL     1      -0.406  15.247  20.740  0.00  0.00    +0.000 C 
ATOM      6  O   UNL     1      -1.589  15.247  20.424  0.00  0.00    +0.000 OA
ATOM      7  N   UNL     1       0.564  16.206  20.336  0.00  0.00    +0.000 N 
ATOM      8  C   UNL     1       1.709  15.437  20.009  0.00  0.00    +0.000 A 
ATOM      9  C   UNL     1       2.533  15.799  18.954  0.00  0.00    +0.000 A 
ATOM     10  C   UNL     1       3.124  14.772  18.233  0.00  0.00    +0.000 A 
ATOM     11  C   UNL     1       2.914  13.437  18.616  0.00  0.00    +0.000 A 
ATOM     12  C   UNL     1       2.177  13.110  19.775  0.00  0.00    +0.000 A 
ATOM     13  C   UNL     1       1.573  14.130  20.503  0.00  0.00    +0.000 A 
ATOM     14  C   UNL     1      -0.221  12.956  22.196  0.00  0.00    +0.000 C 
ATOM     15  H   UNL     1       0.803  16.769  21.155  0.00  0.00    +0.000 HD
ENDROOT
BRANCH   1  19
ATOM     16  C   UNL     1      -5.450  12.638  23.414  0.00  0.00    +0.000 A 
ATOM     17  C   UNL     1      -4.592  12.679  24.506  0.00  0.00    +0.000 A 
ATOM     18  C   UNL     1      -3.241  12.997  24.341  0.00  0.00    +0.000 A 
ATOM     19  C   UNL     1      -2.716  13.327  23.087  0.00  0.00    +0.000 A 
ATOM     20  C   UNL     1      -3.561  13.190  21.976  0.00  0.00    +0.000 A 
ATOM     21  C   UNL     1      -4.924  12.852  22.139  0.00  0.00    +0.000 A 
BRANCH  16  23
ATOM     22  C   UNL     1      -7.561  13.373  24.200  0.00  0.00    +0.000 C 
ATOM     23  O   UNL     1      -6.741  12.316  23.719  0.00  0.00    +0.000 OA
ENDBRANCH  16  23
ENDBRANCH   1  19
BRANCH  14  24
ATOM     24  C   UNL     1      -0.408  11.527  21.799  0.00  0.00    +0.000 A 
ATOM     25  C   UNL     1      -0.426  10.557  22.830  0.00  0.00    +0.000 A 
ATOM     26  C   UNL     1      -0.404   9.198  22.544  0.00  0.00    +0.000 A 
ATOM     27  C   UNL     1      -0.376   8.783  21.213  0.00  0.00    +0.000 A 
ATOM     28  C   UNL     1      -0.426   9.724  20.186  0.00  0.00    +0.000 A 
ATOM     29  C   UNL     1      -0.461  11.096  20.474  0.00  0.00    +0.000 A 
ENDBRANCH  14  24
TORSDOF 3
ENDMDL
MODEL 6
REMARK VINA RESULT:      -6.5      8.481     11.866
REMARK  Name = 
REMARK  4 active torsions:
REMARK  status: ('A' for Active; 'I' for Inactive)
REMARK    1  A    between atoms: C_1  and  O_2
REMARK    2  A    between atoms: O_2  and  C_3
REMARK    3  A    between atoms: C_6  and  C_7
REMARK    4  A    between atoms: C_20  and  C_21
REMARK                            x       y       z     vdW  Elec       q    Type
REMARK                         _______ _______ _______ _____ _____    ______ ____
ROOT
ATOM      1  C   UNL     1       7.691  15.812  20.949  0.00  0.00    +0.000 C 
ATOM      2  N   UNL     1       8.177  16.661  20.080  0.00  0.00    +0.000 NA
ATOM      3  O   UNL     1       9.445  16.064  19.637  0.00  0.00    +0.000 OA
ATOM      4  C   UNL     1       9.293  14.581  19.927  0.00  0.00    +0.000 C 
ATOM      5  C   UNL     1       8.446  14.390  18.653  0.00  0.00    +0.000 C 
ATOM      6  O   UNL     1       7.254  14.119  18.578  0.00  0.00    +0.000 OA
ATOM      7  N   UNL     1       9.371  14.388  17.572  0.00  0.00    +0.000 N 
ATOM      8  C   UNL     1      10.529  13.762  18.097  0.00  0.00    +0.000 A 
ATOM      9  C   UNL     1      11.306  12.927  17.310  0.00  0.00    +0.000 A 
ATOM     10  C   UNL     1      11.908  11.845  17.939  0.00  0.00    +0.000 A 
ATOM     11  C   UNL     1      11.754  11.667  19.323  0.00  0.00    +0.000 A 
ATOM     12  C   UNL     1      11.065  12.610  20.116  0.00  0.00    +0.000 A 
ATOM     13  C   UNL     1      10.451  13.695  19.498  0.00  0.00    +0.000 A 
ATOM     14  C   UNL     1       8.752  14.806  21.324  0.00  0.00    +0.000 C 
ATOM     15  H   UNL     1       9.617  15.359  17.372  0.00  0.00    +0.000 HD
ENDROOT
BRANCH   1  19
ATOM     16  C   UNL     1       3.623  15.747  22.453  0.00  0.00    +0.000 A 
ATOM     17  C   UNL     1       4.129  14.682  21.716  0.00  0.00    +0.000 A 
ATOM     18  C   UNL     1       5.428  14.725  21.203  0.00  0.00    +0.000 A 
ATOM     19  C   UNL     1       6.276  15.811  21.446  0.00  0.00    +0.000 A 
ATOM     20  C   UNL     1       5.730  16.922  22.106  0.00  0.00    +0.000 A 
ATOM     21  C   UNL     1       4.410  16.888  22.612  0.00  0.00    +0.000 A 
BRANCH  16  23
ATOM     22  C   UNL     1       1.392  15.135  21.934  0.00  0.00    +0.000 C 
ATOM     23  O   UNL     1       2.344  15.571  22.896  0.00  0.00    +0.000 OA
ENDBRANCH  16  23
ENDBRANCH   1  19
BRANCH  14  24
ATOM     24  C   UNL     1       8.600  13.875  22.484  0.00  0.00    +0.000 A 
ATOM     25  C   UNL     1       8.217  12.541  22.208  0.00  0.00    +0.000 A 
ATOM     26  C   UNL     1       7.870  11.663  23.227  0.00  0.00    +0.000 A 
ATOM     27  C   UNL     1       7.911  12.105  24.549  0.00  0.00    +0.000 A 
ATOM     28  C   UNL     1       8.350  13.396  24.842  0.00  0.00    +0.000 A 
ATOM     29  C   UNL     1       8.713  14.277  23.814  0.00  0.00    +0.000 A 
ENDBRANCH  14  24
TORSDOF 3
ENDMDL
MODEL 7
REMARK VINA RESULT:      -6.4      3.169      4.015
REMARK  Name = 
REMARK  4 active torsions:
REMARK  status: ('A' for Active; 'I' for Inactive)
REMARK    1  A    between atoms: C_1  and  O_2
REMARK    2  A    between atoms: O_2  and  C_3
REMARK    3  A    between atoms: C_6  and  C_7
REMARK    4  A    between atoms: C_20  and  C_21
REMARK                            x       y       z     vdW  Elec       q    Type
REMARK                         _______ _______ _______ _____ _____    ______ ____
ROOT
ATOM      1  C   UNL     1       1.495  11.870  18.609  0.00  0.00    +0.000 C 
ATOM      2  N   UNL     1       2.568  12.437  18.119  0.00  0.00    +0.000 NA
ATOM      3  O   UNL     1       2.220  13.861  18.000  0.00  0.00    +0.000 OA
ATOM      4  C   UNL     1       1.087  14.065  18.990  0.00  0.00    +0.000 C 
ATOM      5  C   UNL     1       2.086  14.129  20.163  0.00  0.00    +0.000 C 
ATOM      6  O   UNL     1       2.234  13.316  21.067  0.00  0.00    +0.000 OA
ATOM      7  N   UNL     1       2.665  15.427  20.104  0.00  0.00    +0.000 N 
ATOM      8  C   UNL     1       1.617  16.263  19.645  0.00  0.00    +0.000 A 
ATOM      9  C   UNL     1       1.479  17.558  20.122  0.00  0.00    +0.000 A 
ATOM     10  C   UNL     1       0.187  18.048  20.253  0.00  0.00    +0.000 A 
ATOM     11  C   UNL     1      -0.905  17.255  19.863  0.00  0.00    +0.000 A 
ATOM     12  C   UNL     1      -0.721  15.993  19.259  0.00  0.00    +0.000 A 
ATOM     13  C   UNL     1       0.569  15.487  19.127  0.00  0.00    +0.000 A 
ATOM     14  C   UNL     1       0.333  12.831  18.535  0.00  0.00    +0.000 C 
ATOM     15  H   UNL     1       3.381  15.414  19.376  0.00  0.00    +0.000 HD
ENDROOT
BRANCH   1  19
ATOM     16  C   UNL     1       1.461   7.894  20.343  0.00  0.00    +0.000 A 
ATOM     17  C   UNL     1       1.904   8.102  19.042  0.00  0.00    +0.000 A 
ATOM     18  C   UNL     1       1.878   9.379  18.476  0.00  0.00    +0.000 A 
ATOM     19  C   UNL     1       1.450  10.494  19.205  0.00  0.00    +0.000 A 
ATOM     20  C   UNL     1       0.915  10.265  20.481  0.00  0.00    +0.000 A 
ATOM     21  C   UNL     1       0.925   8.971  21.050  0.00  0.00    +0.000 A 
BRANCH  16  23
ATOM     22  C   UNL     1       2.316   5.715  19.968  0.00  0.00    +0.000 C 
ATOM     23  O   UNL     1       1.545   6.600  20.770  0.00  0.00    +0.000 OA
ENDBRANCH  16  23
ENDBRANCH   1  19
BRANCH  14  24
ATOM     24  C   UNL     1      -1.080  12.400  18.765  0.00  0.00    +0.000 A 
ATOM     25  C   UNL     1      -1.742  11.732  17.707  0.00  0.00    +0.000 A 
ATOM     26  C   UNL     1      -3.103  11.466  17.760  0.00  0.00    +0.000 A 
ATOM     27  C   UNL     1      -3.830  11.854  18.886  0.00  0.00    +0.000 A 
ATOM     28  C   UNL     1      -3.179  12.452  19.965  0.00  0.00    +0.000 A 
ATOM     29  C   UNL     1      -1.802  12.710  19.916  0.00  0.00    +0.000 A 
ENDBRANCH  14  24
TORSDOF 3
ENDMDL
MODEL 8
REMARK VINA RESULT:      -6.4      2.114      3.414
REMARK  Name = 
REMARK  4 active torsions:
REMARK  status: ('A' for Active; 'I' for Inactive)
REMARK    1  A    between atoms: C_1  and  O_2
REMARK    2  A    between atoms: O_2  and  C_3
REMARK    3  A    between atoms: C_6  and  C_7
REMARK    4  A    between atoms: C_20  and  C_21
REMARK                            x       y       z     vdW  Elec       q    Type
REMARK                         _______ _______ _______ _____ _____    ______ ____
ROOT
ATOM      1  C   UNL     1      -1.283  12.814  22.390  0.00  0.00    +0.000 C 
ATOM      2  N   UNL     1      -1.111  13.610  23.414  0.00  0.00    +0.000 NA
ATOM      3  O   UNL     1      -2.203  14.589  23.320  0.00  0.00    +0.000 OA
ATOM      4  C   UNL     1      -3.270  13.896  22.491  0.00  0.00    +0.000 C 
ATOM      5  C   UNL     1      -3.738  13.087  23.718  0.00  0.00    +0.000 C 
ATOM      6  O   UNL     1      -3.629  11.882  23.909  0.00  0.00    +0.000 OA
ATOM      7  N   UNL     1      -4.511  13.989  24.501  0.00  0.00    +0.000 N 
ATOM      8  C   UNL     1      -5.159  14.818  23.552  0.00  0.00    +0.000 A 
ATOM      9  C   UNL     1      -6.453  15.268  23.765  0.00  0.00    +0.000 A 
ATOM     10  C   UNL     1      -7.265  15.409  22.648  0.00  0.00    +0.000 A 
ATOM     11  C   UNL     1      -6.747  15.146  21.369  0.00  0.00    +0.000 A 
ATOM     12  C   UNL     1      -5.388  14.818  21.178  0.00  0.00    +0.000 A 
ATOM     13  C   UNL     1      -4.564  14.667  22.289  0.00  0.00    +0.000 A 
ATOM     14  C   UNL     1      -2.288  13.420  21.440  0.00  0.00    +0.000 C 
ATOM     15  H   UNL     1      -3.862  14.580  25.024  0.00  0.00    +0.000 HD
ENDROOT
BRANCH   1  19
ATOM     16  C   UNL     1       0.708   8.987  21.936  0.00  0.00    +0.000 A 
ATOM     17  C   UNL     1       0.914  10.012  21.021  0.00  0.00    +0.000 A 
ATOM     18  C   UNL     1       0.242  11.230  21.151  0.00  0.00    +0.000 A 
ATOM     19  C   UNL     1      -0.623  11.477  22.223  0.00  0.00    +0.000 A 
ATOM     20  C   UNL     1      -0.902  10.409  23.088  0.00  0.00    +0.000 A 
ATOM     21  C   UNL     1      -0.235   9.170  22.948  0.00  0.00    +0.000 A 
BRANCH  16  23
ATOM     22  C   UNL     1       1.846   7.645  20.348  0.00  0.00    +0.000 C 
ATOM     23  O   UNL     1       1.431   7.855  21.691  0.00  0.00    +0.000 OA
ENDBRANCH  16  23
ENDBRANCH   1  19
BRANCH  14  24
ATOM     24  C   UNL     1      -2.502  12.893  20.057  0.00  0.00    +0.000 A 
ATOM     25  C   UNL     1      -3.751  12.292  19.770  0.00  0.00    +0.000 A 
ATOM     26  C   UNL     1      -3.969  11.611  18.580  0.00  0.00    +0.000 A 
ATOM     27  C   UNL     1      -2.938  11.529  17.644  0.00  0.00    +0.000 A 
ATOM     28  C   UNL     1      -1.725  12.172  17.883  0.00  0.00    +0.000 A 
ATOM     29  C   UNL     1      -1.509  12.871  19.079  0.00  0.00    +0.000 A 
ENDBRANCH  14  24
TORSDOF 3
ENDMDL
MODEL 9
REMARK VINA RESULT:      -6.3      8.246     11.618
REMARK  Name = 
REMARK  4 active torsions:
REMARK  status: ('A' for Active; 'I' for Inactive)
REMARK    1  A    between atoms: C_1  and  O_2
REMARK    2  A    between atoms: O_2  and  C_3
REMARK    3  A    between atoms: C_6  and  C_7
REMARK    4  A    between atoms: C_20  and  C_21
REMARK                            x       y       z     vdW  Elec       q    Type
REMARK                         _______ _______ _______ _____ _____    ______ ____
ROOT
ATOM      1  C   UNL     1       7.267  15.610  20.885  0.00  0.00    +0.000 C 
ATOM      2  N   UNL     1       7.723  16.492  20.032  0.00  0.00    +0.000 NA
ATOM      3  O   UNL     1       9.053  15.994  19.652  0.00  0.00    +0.000 OA
ATOM      4  C   UNL     1       9.005  14.505  19.945  0.00  0.00    +0.000 C 
ATOM      5  C   UNL     1       8.235  14.243  18.636  0.00  0.00    +0.000 C 
ATOM      6  O   UNL     1       7.072  13.879  18.509  0.00  0.00    +0.000 OA
ATOM      7  N   UNL     1       9.205  14.310  17.598  0.00  0.00    +0.000 N 
ATOM      8  C   UNL     1      10.384  13.780  18.180  0.00  0.00    +0.000 A 
ATOM      9  C   UNL     1      11.260  13.005  17.434  0.00  0.00    +0.000 A 
ATOM     10  C   UNL     1      11.915  11.977  18.098  0.00  0.00    +0.000 A 
ATOM     11  C   UNL     1      11.712  11.792  19.475  0.00  0.00    +0.000 A 
ATOM     12  C   UNL     1      10.916  12.681  20.229  0.00  0.00    +0.000 A 
ATOM     13  C   UNL     1      10.248  13.712  19.575  0.00  0.00    +0.000 A 
ATOM     14  C   UNL     1       8.385  14.693  21.315  0.00  0.00    +0.000 C 
ATOM     15  H   UNL     1       9.383  15.297  17.402  0.00  0.00    +0.000 HD
ENDROOT
BRANCH   1  19
ATOM     16  C   UNL     1       3.140  15.199  22.156  0.00  0.00    +0.000 A 
ATOM     17  C   UNL     1       3.572  14.664  20.948  0.00  0.00    +0.000 A 
ATOM     18  C   UNL     1       4.893  14.831  20.527  0.00  0.00    +0.000 A 
ATOM     19  C   UNL     1       5.834  15.500  21.317  0.00  0.00    +0.000 A 
ATOM     20  C   UNL     1       5.372  16.121  22.487  0.00  0.00    +0.000 A 
ATOM     21  C   UNL     1       4.031  15.967  22.907  0.00  0.00    +0.000 A 
BRANCH  16  23
ATOM     22  C   UNL     1       1.014  14.501  21.373  0.00  0.00    +0.000 C 
ATOM     23  O   UNL     1       1.827  14.958  22.446  0.00  0.00    +0.000 OA
ENDBRANCH  16  23
ENDBRANCH   1  19
BRANCH  14  24
ATOM     24  C   UNL     1       8.253  13.757  22.473  0.00  0.00    +0.000 A 
ATOM     25  C   UNL     1       8.461  14.284  23.770  0.00  0.00    +0.000 A 
ATOM     26  C   UNL     1       8.546  13.457  24.882  0.00  0.00    +0.000 A 
ATOM     27  C   UNL     1       8.411  12.078  24.716  0.00  0.00    +0.000 A 
ATOM     28  C   UNL     1       8.139  11.549  23.455  0.00  0.00    +0.000 A 
ATOM     29  C   UNL     1       8.041  12.385  22.335  0.00  0.00    +0.000 A 
ENDBRANCH  14  24
TORSDOF 3
ENDMDL
