MODEL 1
REMARK VINA RESULT:      -7.6      0.000      0.000
REMARK  Name = 
REMARK  7 active torsions:
REMARK  status: ('A' for Active; 'I' for Inactive)
REMARK    1  A    between atoms: C_1  and  C_2
REMARK    2  A    between atoms: C_2  and  C_13
REMARK    3  A    between atoms: N_3  and  N_4
REMARK    4  A    between atoms: C_5  and  C_7
REMARK    5  A    between atoms: N_10  and  C_11
REMARK    6  A    between atoms: C_16  and  N_17
REMARK    7  A    between atoms: C_18  and  C_20
REMARK                            x       y       z     vdW  Elec       q    Type
REMARK                         _______ _______ _______ _____ _____    ______ ____
ROOT
ATOM      1  C   UNL     1       1.063   9.228  19.426  0.00  0.00    +0.000 A 
ATOM      2  C   UNL     1       1.516   9.282  18.108  0.00  0.00    +0.000 A 
ATOM      3  C   UNL     1       2.431   8.338  17.626  0.00  0.00    +0.000 A 
ATOM      4  C   UNL     1       2.926   7.313  18.437  0.00  0.00    +0.000 A 
ATOM      5  C   UNL     1       2.450   7.237  19.752  0.00  0.00    +0.000 A 
ATOM      6  C   UNL     1       1.528   8.185  20.241  0.00  0.00    +0.000 A 
ENDROOT
BRANCH   4   7
ATOM      7  N   UNL     1       3.894   6.370  17.994  0.00  0.00    +0.000 N 
ATOM      8  C   UNL     1       3.623   5.088  17.535  0.00  0.00    +0.000 C 
ATOM      9  O   UNL     1       2.510   4.566  17.516  0.00  0.00    +0.000 OA
ATOM     10  H   UNL     1       4.861   6.666  18.022  0.00  0.00    +0.000 HD
BRANCH   8  11
ATOM     11  C   UNL     1       4.843   4.289  17.075  0.00  0.00    +0.000 C 
ATOM     12  C   UNL     1       5.088   4.512  15.577  0.00  0.00    +0.000 C 
ATOM     13  C   UNL     1       6.542   4.153  15.347  0.00  0.00    +0.000 C 
ATOM     14  C   UNL     1       7.247   4.437  16.667  0.00  0.00    +0.000 C 
ATOM     15  C   UNL     1       6.161   4.736  17.703  0.00  0.00    +0.000 C 
ENDBRANCH   8  11
ENDBRANCH   4   7
BRANCH   1  17
ATOM     16  C   UNL     1      -1.142  10.553  19.176  0.00  0.00    +0.000 C 
ATOM     17  C   UNL     1       0.125  10.279  19.971  0.00  0.00    +0.000 C 
ATOM     18  N   UNL     1       0.464  10.889  21.069  0.00  0.00    +0.000 NA
BRANCH  18  19
ATOM     19  N   UNL     1      -0.319  11.878  21.584  0.00  0.00    +0.000 N 
ATOM     20  C   UNL     1      -1.020  11.688  22.766  0.00  0.00    +0.000 C 
ATOM     21  O   UNL     1      -1.039  10.654  23.428  0.00  0.00    +0.000 OA
ATOM     22  H   UNL     1      -0.381  12.805  21.176  0.00  0.00    +0.000 HD
BRANCH  20  23
ATOM     23  C   UNL     1      -1.767  12.890  23.180  0.00  0.00    +0.000 A 
ATOM     24  C   UNL     1      -1.209  14.135  23.578  0.00  0.00    +0.000 A 
ATOM     25  C   UNL     1      -2.282  14.945  23.868  0.00  0.00    +0.000 A 
ATOM     26  N   UNL     1      -3.390  14.187  23.644  0.00  0.00    +0.000 N 
ATOM     27  C   UNL     1      -4.763  14.603  23.819  0.00  0.00    +0.000 C 
ATOM     28  N   UNL     1      -3.118  12.933  23.223  0.00  0.00    +0.000 NA
ENDBRANCH  20  23
ENDBRANCH  18  19
ENDBRANCH   1  17
TORSDOF 5
ENDMDL
MODEL 2
REMARK VINA RESULT:      -7.5      0.704      1.343
REMARK  Name = 
REMARK  7 active torsions:
REMARK  status: ('A' for Active; 'I' for Inactive)
REMARK    1  A    between atoms: C_1  and  C_2
REMARK    2  A    between atoms: C_2  and  C_13
REMARK    3  A    between atoms: N_3  and  N_4
REMARK    4  A    between atoms: C_5  and  C_7
REMARK    5  A    between atoms: N_10  and  C_11
REMARK    6  A    between atoms: C_16  and  N_17
REMARK    7  A    between atoms: C_18  and  C_20
REMARK                            x       y       z     vdW  Elec       q    Type
REMARK                         _______ _______ _______ _____ _____    ______ ____
ROOT
ATOM      1  C   UNL     1       0.952   9.199  19.286  0.00  0.00    +0.000 A 
ATOM      2  C   UNL     1       1.417   8.189  20.126  0.00  0.00    +0.000 A 
ATOM      3  C   UNL     1       2.409   7.299  19.696  0.00  0.00    +0.000 A 
ATOM      4  C   UNL     1       2.969   7.385  18.419  0.00  0.00    +0.000 A 
ATOM      5  C   UNL     1       2.526   8.416  17.582  0.00  0.00    +0.000 A 
ATOM      6  C   UNL     1       1.527   9.315  18.012  0.00  0.00    +0.000 A 
ENDROOT
BRANCH   4   7
ATOM      7  N   UNL     1       3.941   6.467  17.934  0.00  0.00    +0.000 N 
ATOM      8  C   UNL     1       3.685   5.172  17.502  0.00  0.00    +0.000 C 
ATOM      9  O   UNL     1       2.589   4.617  17.546  0.00  0.00    +0.000 OA
ATOM     10  H   UNL     1       4.899   6.791  17.908  0.00  0.00    +0.000 HD
BRANCH   8  11
ATOM     11  C   UNL     1       4.903   4.405  16.985  0.00  0.00    +0.000 C 
ATOM     12  C   UNL     1       5.286   4.901  15.584  0.00  0.00    +0.000 C 
ATOM     13  C   UNL     1       6.737   4.505  15.399  0.00  0.00    +0.000 C 
ATOM     14  C   UNL     1       7.338   4.482  16.798  0.00  0.00    +0.000 C 
ATOM     15  C   UNL     1       6.180   4.638  17.788  0.00  0.00    +0.000 C 
ENDBRANCH   8  11
ENDBRANCH   4   7
BRANCH   1  17
ATOM     16  C   UNL     1      -1.309  10.328  18.742  0.00  0.00    +0.000 C 
ATOM     17  C   UNL     1      -0.163  10.122  19.720  0.00  0.00    +0.000 C 
ATOM     18  N   UNL     1      -0.066  10.690  20.887  0.00  0.00    +0.000 NA
BRANCH  18  19
ATOM     19  N   UNL     1      -1.018  11.568  21.312  0.00  0.00    +0.000 N 
ATOM     20  C   UNL     1      -1.427  11.586  22.638  0.00  0.00    +0.000 C 
ATOM     21  O   UNL     1      -1.026  10.832  23.521  0.00  0.00    +0.000 OA
ATOM     22  H   UNL     1      -1.422  12.280  20.714  0.00  0.00    +0.000 HD
BRANCH  20  23
ATOM     23  C   UNL     1      -2.425  12.637  22.907  0.00  0.00    +0.000 A 
ATOM     24  C   UNL     1      -3.753  12.689  22.402  0.00  0.00    +0.000 A 
ATOM     25  C   UNL     1      -4.300  13.839  22.919  0.00  0.00    +0.000 A 
ATOM     26  N   UNL     1      -3.323  14.406  23.678  0.00  0.00    +0.000 N 
ATOM     27  C   UNL     1      -3.423  15.641  24.421  0.00  0.00    +0.000 C 
ATOM     28  N   UNL     1      -2.169  13.704  23.696  0.00  0.00    +0.000 NA
ENDBRANCH  20  23
ENDBRANCH  18  19
ENDBRANCH   1  17
TORSDOF 5
ENDMDL
MODEL 3
REMARK VINA RESULT:      -7.4      1.955     11.017
REMARK  Name = 
REMARK  7 active torsions:
REMARK  status: ('A' for Active; 'I' for Inactive)
REMARK    1  A    between atoms: C_1  and  C_2
REMARK    2  A    between atoms: C_2  and  C_13
REMARK    3  A    between atoms: N_3  and  N_4
REMARK    4  A    between atoms: C_5  and  C_7
REMARK    5  A    between atoms: N_10  and  C_11
REMARK    6  A    between atoms: C_16  and  N_17
REMARK    7  A    between atoms: C_18  and  C_20
REMARK                            x       y       z     vdW  Elec       q    Type
REMARK                         _______ _______ _______ _____ _____    ______ ____
ROOT
ATOM      1  C   UNL     1       0.287   9.693  21.114  0.00  0.00    +0.000 A 
ATOM      2  C   UNL     1      -0.063   9.404  22.432  0.00  0.00    +0.000 A 
ATOM      3  C   UNL     1      -0.831  10.303  23.182  0.00  0.00    +0.000 A 
ATOM      4  C   UNL     1      -1.274  11.516  22.647  0.00  0.00    +0.000 A 
ATOM      5  C   UNL     1      -0.950  11.796  21.315  0.00  0.00    +0.000 A 
ATOM      6  C   UNL     1      -0.177  10.893  20.555  0.00  0.00    +0.000 A 
ENDROOT
BRANCH   4   7
ATOM      7  N   UNL     1      -2.011  12.473  23.398  0.00  0.00    +0.000 N 
ATOM      8  C   UNL     1      -3.368  12.734  23.264  0.00  0.00    +0.000 C 
ATOM      9  O   UNL     1      -4.106  12.221  22.425  0.00  0.00    +0.000 OA
ATOM     10  H   UNL     1      -1.494  13.007  24.084  0.00  0.00    +0.000 HD
BRANCH   8  11
ATOM     11  C   UNL     1      -3.927  13.784  24.225  0.00  0.00    +0.000 C 
ATOM     12  C   UNL     1      -2.868  14.855  24.516  0.00  0.00    +0.000 C 
ATOM     13  C   UNL     1      -3.639  16.066  24.997  0.00  0.00    +0.000 C 
ATOM     14  C   UNL     1      -5.006  15.973  24.331  0.00  0.00    +0.000 C 
ATOM     15  C   UNL     1      -5.087  14.599  23.660  0.00  0.00    +0.000 C 
ENDBRANCH   8  11
ENDBRANCH   4   7
BRANCH   1  17
ATOM     16  C   UNL     1       1.469   9.148  18.880  0.00  0.00    +0.000 C 
ATOM     17  C   UNL     1       1.168   8.757  20.319  0.00  0.00    +0.000 C 
ATOM     18  N   UNL     1       1.599   7.678  20.905  0.00  0.00    +0.000 NA
BRANCH  18  19
ATOM     19  N   UNL     1       2.359   6.775  20.225  0.00  0.00    +0.000 N 
ATOM     20  C   UNL     1       2.009   5.434  20.189  0.00  0.00    +0.000 C 
ATOM     21  O   UNL     1       1.047   4.930  20.764  0.00  0.00    +0.000 OA
ATOM     22  H   UNL     1       3.165   7.037  19.668  0.00  0.00    +0.000 HD
BRANCH  20  23
ATOM     23  C   UNL     1       2.929   4.630  19.363  0.00  0.00    +0.000 A 
ATOM     24  C   UNL     1       3.389   3.316  19.647  0.00  0.00    +0.000 A 
ATOM     25  C   UNL     1       4.218   2.981  18.603  0.00  0.00    +0.000 A 
ATOM     26  N   UNL     1       4.222   4.059  17.772  0.00  0.00    +0.000 N 
ATOM     27  C   UNL     1       4.958   4.185  16.535  0.00  0.00    +0.000 C 
ATOM     28  N   UNL     1       3.449   5.081  18.199  0.00  0.00    +0.000 NA
ENDBRANCH  20  23
ENDBRANCH  18  19
ENDBRANCH   1  17
TORSDOF 5
ENDMDL
MODEL 4
REMARK VINA RESULT:      -7.2      1.558      1.807
REMARK  Name = 
REMARK  7 active torsions:
REMARK  status: ('A' for Active; 'I' for Inactive)
REMARK    1  A    between atoms: C_1  and  C_2
REMARK    2  A    between atoms: C_2  and  C_13
REMARK    3  A    between atoms: N_3  and  N_4
REMARK    4  A    between atoms: C_5  and  C_7
REMARK    5  A    between atoms: N_10  and  C_11
REMARK    6  A    between atoms: C_16  and  N_17
REMARK    7  A    between atoms: C_18  and  C_20
REMARK                            x       y       z     vdW  Elec       q    Type
REMARK                         _______ _______ _______ _____ _____    ______ ____
ROOT
ATOM      1  C   UNL     1       1.290   8.432  19.993  0.00  0.00    +0.000 A 
ATOM      2  C   UNL     1       1.698   8.906  18.747  0.00  0.00    +0.000 A 
ATOM      3  C   UNL     1       2.558   8.152  17.940  0.00  0.00    +0.000 A 
ATOM      4  C   UNL     1       3.041   6.904  18.345  0.00  0.00    +0.000 A 
ATOM      5  C   UNL     1       2.610   6.411  19.582  0.00  0.00    +0.000 A 
ATOM      6  C   UNL     1       1.743   7.168  20.398  0.00  0.00    +0.000 A 
ENDROOT
BRANCH   4   7
ATOM      7  N   UNL     1       3.955   6.137  17.572  0.00  0.00    +0.000 N 
ATOM      8  C   UNL     1       5.090   5.502  18.058  0.00  0.00    +0.000 C 
ATOM      9  O   UNL     1       5.498   5.574  19.216  0.00  0.00    +0.000 OA
ATOM     10  H   UNL     1       3.756   6.055  16.583  0.00  0.00    +0.000 HD
BRANCH   8  11
ATOM     11  C   UNL     1       5.882   4.702  17.023  0.00  0.00    +0.000 C 
ATOM     12  C   UNL     1       4.960   4.250  15.883  0.00  0.00    +0.000 C 
ATOM     13  C   UNL     1       5.876   3.967  14.711  0.00  0.00    +0.000 C 
ATOM     14  C   UNL     1       7.081   4.880  14.902  0.00  0.00    +0.000 C 
ATOM     15  C   UNL     1       6.954   5.506  16.293  0.00  0.00    +0.000 C 
ENDBRANCH   8  11
ENDBRANCH   4   7
BRANCH   1  17
ATOM     16  C   UNL     1      -0.341   8.536  21.996  0.00  0.00    +0.000 C 
ATOM     17  C   UNL     1       0.414   9.267  20.897  0.00  0.00    +0.000 C 
ATOM     18  N   UNL     1       0.349  10.548  20.671  0.00  0.00    +0.000 NA
BRANCH  18  19
ATOM     19  N   UNL     1      -0.461  11.345  21.424  0.00  0.00    +0.000 N 
ATOM     20  C   UNL     1      -0.042  12.604  21.828  0.00  0.00    +0.000 C 
ATOM     21  O   UNL     1       1.056  13.102  21.595  0.00  0.00    +0.000 OA
ATOM     22  H   UNL     1      -1.412  11.094  21.669  0.00  0.00    +0.000 HD
BRANCH  20  23
ATOM     23  C   UNL     1      -1.077  13.326  22.590  0.00  0.00    +0.000 A 
ATOM     24  C   UNL     1      -2.453  13.434  22.250  0.00  0.00    +0.000 A 
ATOM     25  C   UNL     1      -3.021  14.193  23.246  0.00  0.00    +0.000 A 
ATOM     26  N   UNL     1      -2.008  14.498  24.104  0.00  0.00    +0.000 N 
ATOM     27  C   UNL     1      -2.113  15.289  25.308  0.00  0.00    +0.000 C 
ATOM     28  N   UNL     1      -0.812  13.987  23.739  0.00  0.00    +0.000 NA
ENDBRANCH  20  23
ENDBRANCH  18  19
ENDBRANCH   1  17
TORSDOF 5
ENDMDL
MODEL 5
REMARK VINA RESULT:      -7.2      0.859      1.273
REMARK  Name = 
REMARK  7 active torsions:
REMARK  status: ('A' for Active; 'I' for Inactive)
REMARK    1  A    between atoms: C_1  and  C_2
REMARK    2  A    between atoms: C_2  and  C_13
REMARK    3  A    between atoms: N_3  and  N_4
REMARK    4  A    between atoms: C_5  and  C_7
REMARK    5  A    between atoms: N_10  and  C_11
REMARK    6  A    between atoms: C_16  and  N_17
REMARK    7  A    between atoms: C_18  and  C_20
REMARK                            x       y       z     vdW  Elec       q    Type
REMARK                         _______ _______ _______ _____ _____    ______ ____
ROOT
ATOM      1  C   UNL     1       0.928   9.154  19.606  0.00  0.00    +0.000 A 
ATOM      2  C   UNL     1       1.447   8.104  20.363  0.00  0.00    +0.000 A 
ATOM      3  C   UNL     1       2.418   7.248  19.828  0.00  0.00    +0.000 A 
ATOM      4  C   UNL     1       2.901   7.407  18.527  0.00  0.00    +0.000 A 
ATOM      5  C   UNL     1       2.405   8.478  17.775  0.00  0.00    +0.000 A 
ATOM      6  C   UNL     1       1.428   9.343  18.309  0.00  0.00    +0.000 A 
ENDROOT
BRANCH   4   7
ATOM      7  N   UNL     1       3.848   6.524  17.937  0.00  0.00    +0.000 N 
ATOM      8  C   UNL     1       3.583   5.239  17.485  0.00  0.00    +0.000 C 
ATOM      9  O   UNL     1       2.504   4.660  17.596  0.00  0.00    +0.000 OA
ATOM     10  H   UNL     1       4.795   6.869  17.847  0.00  0.00    +0.000 HD
BRANCH   8  11
ATOM     11  C   UNL     1       4.770   4.514  16.849  0.00  0.00    +0.000 C 
ATOM     12  C   UNL     1       5.223   5.249  15.581  0.00  0.00    +0.000 C 
ATOM     13  C   UNL     1       6.653   4.809  15.348  0.00  0.00    +0.000 C 
ATOM     14  C   UNL     1       7.210   4.474  16.726  0.00  0.00    +0.000 C 
ATOM     15  C   UNL     1       6.033   4.506  17.706  0.00  0.00    +0.000 C 
ENDBRANCH   8  11
ENDBRANCH   4   7
BRANCH   1  17
ATOM     16  C   UNL     1      -1.195  10.560  19.161  0.00  0.00    +0.000 C 
ATOM     17  C   UNL     1      -0.164  10.043  20.153  0.00  0.00    +0.000 C 
ATOM     18  N   UNL     1      -0.148  10.320  21.425  0.00  0.00    +0.000 NA
BRANCH  18  19
ATOM     19  N   UNL     1      -1.080  11.153  21.966  0.00  0.00    +0.000 N 
ATOM     20  C   UNL     1      -0.779  12.480  22.233  0.00  0.00    +0.000 C 
ATOM     21  O   UNL     1       0.312  13.016  22.055  0.00  0.00    +0.000 OA
ATOM     22  H   UNL     1      -2.039  10.873  22.139  0.00  0.00    +0.000 HD
BRANCH  20  23
ATOM     23  C   UNL     1      -1.933  13.225  22.769  0.00  0.00    +0.000 A 
ATOM     24  C   UNL     1      -1.911  14.156  23.843  0.00  0.00    +0.000 A 
ATOM     25  C   UNL     1      -3.208  14.590  23.982  0.00  0.00    +0.000 A 
ATOM     26  N   UNL     1      -3.924  13.931  23.030  0.00  0.00    +0.000 N 
ATOM     27  C   UNL     1      -5.343  14.052  22.788  0.00  0.00    +0.000 C 
ATOM     28  N   UNL     1      -3.184  13.093  22.273  0.00  0.00    +0.000 NA
ENDBRANCH  20  23
ENDBRANCH  18  19
ENDBRANCH   1  17
TORSDOF 5
ENDMDL
MODEL 6
REMARK VINA RESULT:      -7.2      2.104     11.029
REMARK  Name = 
REMARK  7 active torsions:
REMARK  status: ('A' for Active; 'I' for Inactive)
REMARK    1  A    between atoms: C_1  and  C_2
REMARK    2  A    between atoms: C_2  and  C_13
REMARK    3  A    between atoms: N_3  and  N_4
REMARK    4  A    between atoms: C_5  and  C_7
REMARK    5  A    between atoms: N_10  and  C_11
REMARK    6  A    between atoms: C_16  and  N_17
REMARK    7  A    between atoms: C_18  and  C_20
REMARK                            x       y       z     vdW  Elec       q    Type
REMARK                         _______ _______ _______ _____ _____    ______ ____
ROOT
ATOM      1  C   UNL     1       0.343   9.758  21.056  0.00  0.00    +0.000 A 
ATOM      2  C   UNL     1      -0.169   9.402  22.303  0.00  0.00    +0.000 A 
ATOM      3  C   UNL     1      -0.875  10.328  23.078  0.00  0.00    +0.000 A 
ATOM      4  C   UNL     1      -1.095  11.637  22.641  0.00  0.00    +0.000 A 
ATOM      5  C   UNL     1      -0.610  11.990  21.376  0.00  0.00    +0.000 A 
ATOM      6  C   UNL     1       0.102  11.060  20.591  0.00  0.00    +0.000 A 
ENDROOT
BRANCH   4   7
ATOM      7  N   UNL     1      -1.764  12.616  23.426  0.00  0.00    +0.000 N 
ATOM      8  C   UNL     1      -3.130  12.863  23.419  0.00  0.00    +0.000 C 
ATOM      9  O   UNL     1      -3.943  12.313  22.678  0.00  0.00    +0.000 OA
ATOM     10  H   UNL     1      -1.187  13.180  24.036  0.00  0.00    +0.000 HD
BRANCH   8  11
ATOM     11  C   UNL     1      -3.602  13.944  24.392  0.00  0.00    +0.000 C 
ATOM     12  C   UNL     1      -2.514  15.012  24.566  0.00  0.00    +0.000 C 
ATOM     13  C   UNL     1      -3.234  16.244  25.074  0.00  0.00    +0.000 C 
ATOM     14  C   UNL     1      -4.651  16.147  24.522  0.00  0.00    +0.000 C 
ATOM     15  C   UNL     1      -4.797  14.756  23.899  0.00  0.00    +0.000 C 
ENDBRANCH   8  11
ENDBRANCH   4   7
BRANCH   1  17
ATOM     16  C   UNL     1       1.387   9.127  18.777  0.00  0.00    +0.000 C 
ATOM     17  C   UNL     1       1.160   8.783  20.241  0.00  0.00    +0.000 C 
ATOM     18  N   UNL     1       1.604   7.713  20.834  0.00  0.00    +0.000 NA
BRANCH  18  19
ATOM     19  N   UNL     1       2.308   6.776  20.139  0.00  0.00    +0.000 N 
ATOM     20  C   UNL     1       1.899   5.450  20.118  0.00  0.00    +0.000 C 
ATOM     21  O   UNL     1       0.931   4.990  20.717  0.00  0.00    +0.000 OA
ATOM     22  H   UNL     1       3.111   7.001  19.562  0.00  0.00    +0.000 HD
BRANCH  20  23
ATOM     23  C   UNL     1       2.764   4.606  19.272  0.00  0.00    +0.000 A 
ATOM     24  C   UNL     1       3.693   5.059  18.298  0.00  0.00    +0.000 A 
ATOM     25  C   UNL     1       4.261   3.923  17.772  0.00  0.00    +0.000 A 
ATOM     26  N   UNL     1       3.675   2.881  18.422  0.00  0.00    +0.000 N 
ATOM     27  C   UNL     1       3.942   1.477  18.206  0.00  0.00    +0.000 C 
ATOM     28  N   UNL     1       2.760   3.255  19.342  0.00  0.00    +0.000 NA
ENDBRANCH  20  23
ENDBRANCH  18  19
ENDBRANCH   1  17
TORSDOF 5
ENDMDL
MODEL 7
REMARK VINA RESULT:      -7.1      1.839     11.022
REMARK  Name = 
REMARK  7 active torsions:
REMARK  status: ('A' for Active; 'I' for Inactive)
REMARK    1  A    between atoms: C_1  and  C_2
REMARK    2  A    between atoms: C_2  and  C_13
REMARK    3  A    between atoms: N_3  and  N_4
REMARK    4  A    between atoms: C_5  and  C_7
REMARK    5  A    between atoms: N_10  and  C_11
REMARK    6  A    between atoms: C_16  and  N_17
REMARK    7  A    between atoms: C_18  and  C_20
REMARK                            x       y       z     vdW  Elec       q    Type
REMARK                         _______ _______ _______ _____ _____    ______ ____
ROOT
ATOM      1  C   UNL     1       0.313   9.918  20.883  0.00  0.00    +0.000 A 
ATOM      2  C   UNL     1      -0.285  11.020  20.275  0.00  0.00    +0.000 A 
ATOM      3  C   UNL     1      -1.143  11.859  20.997  0.00  0.00    +0.000 A 
ATOM      4  C   UNL     1      -1.433  11.629  22.345  0.00  0.00    +0.000 A 
ATOM      5  C   UNL     1      -0.810  10.541  22.967  0.00  0.00    +0.000 A 
ATOM      6  C   UNL     1       0.055   9.694  22.244  0.00  0.00    +0.000 A 
ENDROOT
BRANCH   4   7
ATOM      7  N   UNL     1      -2.338  12.431  23.092  0.00  0.00    +0.000 N 
ATOM      8  C   UNL     1      -2.008  13.582  23.795  0.00  0.00    +0.000 C 
ATOM      9  O   UNL     1      -0.869  14.028  23.925  0.00  0.00    +0.000 OA
ATOM     10  H   UNL     1      -3.303  12.128  23.111  0.00  0.00    +0.000 HD
BRANCH   8  11
ATOM     11  C   UNL     1      -3.180  14.286  24.481  0.00  0.00    +0.000 C 
ATOM     12  C   UNL     1      -2.825  15.751  24.765  0.00  0.00    +0.000 C 
ATOM     13  C   UNL     1      -4.152  16.464  24.924  0.00  0.00    +0.000 C 
ATOM     14  C   UNL     1      -5.144  15.680  24.074  0.00  0.00    +0.000 C 
ATOM     15  C   UNL     1      -4.435  14.401  23.621  0.00  0.00    +0.000 C 
ENDBRANCH   8  11
ENDBRANCH   4   7
BRANCH   1  17
ATOM     16  C   UNL     1       1.442   9.320  18.636  0.00  0.00    +0.000 C 
ATOM     17  C   UNL     1       1.189   8.972  20.095  0.00  0.00    +0.000 C 
ATOM     18  N   UNL     1       1.655   7.920  20.703  0.00  0.00    +0.000 NA
BRANCH  18  19
ATOM     19  N   UNL     1       2.412   7.008  20.031  0.00  0.00    +0.000 N 
ATOM     20  C   UNL     1       2.136   5.652  20.119  0.00  0.00    +0.000 C 
ATOM     21  O   UNL     1       1.249   5.144  20.801  0.00  0.00    +0.000 OA
ATOM     22  H   UNL     1       3.158   7.268  19.396  0.00  0.00    +0.000 HD
BRANCH  20  23
ATOM     23  C   UNL     1       3.035   4.836  19.282  0.00  0.00    +0.000 A 
ATOM     24  C   UNL     1       2.861   3.467  18.943  0.00  0.00    +0.000 A 
ATOM     25  C   UNL     1       3.939   3.143  18.153  0.00  0.00    +0.000 A 
ATOM     26  N   UNL     1       4.683   4.278  18.055  0.00  0.00    +0.000 N 
ATOM     27  C   UNL     1       5.922   4.431  17.329  0.00  0.00    +0.000 C 
ATOM     28  N   UNL     1       4.166   5.329  18.727  0.00  0.00    +0.000 NA
ENDBRANCH  20  23
ENDBRANCH  18  19
ENDBRANCH   1  17
TORSDOF 5
ENDMDL
MODEL 8
REMARK VINA RESULT:      -7.1      1.233      1.416
REMARK  Name = 
REMARK  7 active torsions:
REMARK  status: ('A' for Active; 'I' for Inactive)
REMARK    1  A    between atoms: C_1  and  C_2
REMARK    2  A    between atoms: C_2  and  C_13
REMARK    3  A    between atoms: N_3  and  N_4
REMARK    4  A    between atoms: C_5  and  C_7
REMARK    5  A    between atoms: N_10  and  C_11
REMARK    6  A    between atoms: C_16  and  N_17
REMARK    7  A    between atoms: C_18  and  C_20
REMARK                            x       y       z     vdW  Elec       q    Type
REMARK                         _______ _______ _______ _____ _____    ______ ____
ROOT
ATOM      1  C   UNL     1       1.066   8.714  20.099  0.00  0.00    +0.000 A 
ATOM      2  C   UNL     1       1.448   9.087  18.811  0.00  0.00    +0.000 A 
ATOM      3  C   UNL     1       2.350   8.307  18.077  0.00  0.00    +0.000 A 
ATOM      4  C   UNL     1       2.901   7.134  18.599  0.00  0.00    +0.000 A 
ATOM      5  C   UNL     1       2.498   6.740  19.880  0.00  0.00    +0.000 A 
ATOM      6  C   UNL     1       1.589   7.523  20.623  0.00  0.00    +0.000 A 
ENDROOT
BRANCH   4   7
ATOM      7  N   UNL     1       3.858   6.348  17.900  0.00  0.00    +0.000 N 
ATOM      8  C   UNL     1       3.638   5.079  17.381  0.00  0.00    +0.000 C 
ATOM      9  O   UNL     1       2.602   4.431  17.517  0.00  0.00    +0.000 OA
ATOM     10  H   UNL     1       4.777   6.754  17.778  0.00  0.00    +0.000 HD
BRANCH   8  11
ATOM     11  C   UNL     1       4.823   4.466  16.633  0.00  0.00    +0.000 C 
ATOM     12  C   UNL     1       5.219   5.357  15.448  0.00  0.00    +0.000 C 
ATOM     13  C   UNL     1       6.652   4.986  15.126  0.00  0.00    +0.000 C 
ATOM     14  C   UNL     1       7.258   4.510  16.440  0.00  0.00    +0.000 C 
ATOM     15  C   UNL     1       6.111   4.394  17.448  0.00  0.00    +0.000 C 
ENDBRANCH   8  11
ENDBRANCH   4   7
BRANCH   1  17
ATOM     16  C   UNL     1      -0.292   9.041  22.273  0.00  0.00    +0.000 C 
ATOM     17  C   UNL     1       0.144   9.583  20.921  0.00  0.00    +0.000 C 
ATOM     18  N   UNL     1      -0.229  10.725  20.419  0.00  0.00    +0.000 NA
BRANCH  18  19
ATOM     19  N   UNL     1      -1.096  11.530  21.094  0.00  0.00    +0.000 N 
ATOM     20  C   UNL     1      -0.641  12.639  21.791  0.00  0.00    +0.000 C 
ATOM     21  O   UNL     1       0.533  12.983  21.902  0.00  0.00    +0.000 OA
ATOM     22  H   UNL     1      -2.102  11.403  21.071  0.00  0.00    +0.000 HD
BRANCH  20  23
ATOM     23  C   UNL     1      -1.737  13.406  22.412  0.00  0.00    +0.000 A 
ATOM     24  C   UNL     1      -3.023  13.640  21.854  0.00  0.00    +0.000 A 
ATOM     25  C   UNL     1      -3.697  14.395  22.785  0.00  0.00    +0.000 A 
ATOM     26  N   UNL     1      -2.827  14.576  23.816  0.00  0.00    +0.000 N 
ATOM     27  C   UNL     1      -3.080  15.316  25.031  0.00  0.00    +0.000 C 
ATOM     28  N   UNL     1      -1.626  13.989  23.627  0.00  0.00    +0.000 NA
ENDBRANCH  20  23
ENDBRANCH  18  19
ENDBRANCH   1  17
TORSDOF 5
ENDMDL
MODEL 9
REMARK VINA RESULT:      -7.1      1.862      2.030
REMARK  Name = 
REMARK  7 active torsions:
REMARK  status: ('A' for Active; 'I' for Inactive)
REMARK    1  A    between atoms: C_1  and  C_2
REMARK    2  A    between atoms: C_2  and  C_13
REMARK    3  A    between atoms: N_3  and  N_4
REMARK    4  A    between atoms: C_5  and  C_7
REMARK    5  A    between atoms: N_10  and  C_11
REMARK    6  A    between atoms: C_16  and  N_17
REMARK    7  A    between atoms: C_18  and  C_20
REMARK                            x       y       z     vdW  Elec       q    Type
REMARK                         _______ _______ _______ _____ _____    ______ ____
ROOT
ATOM      1  C   UNL     1       1.039   8.946  19.744  0.00  0.00    +0.000 A 
ATOM      2  C   UNL     1       1.466   9.183  18.438  0.00  0.00    +0.000 A 
ATOM      3  C   UNL     1       2.398   8.337  17.825  0.00  0.00    +0.000 A 
ATOM      4  C   UNL     1       2.937   7.232  18.490  0.00  0.00    +0.000 A 
ATOM      5  C   UNL     1       2.488   6.974  19.790  0.00  0.00    +0.000 A 
ATOM      6  C   UNL     1       1.549   7.823  20.411  0.00  0.00    +0.000 A 
ENDROOT
BRANCH   4   7
ATOM      7  N   UNL     1       3.923   6.384  17.914  0.00  0.00    +0.000 N 
ATOM      8  C   UNL     1       3.708   5.094  17.450  0.00  0.00    +0.000 C 
ATOM      9  O   UNL     1       2.646   4.480  17.537  0.00  0.00    +0.000 OA
ATOM     10  H   UNL     1       4.860   6.760  17.845  0.00  0.00    +0.000 HD
BRANCH   8  11
ATOM     11  C   UNL     1       4.930   4.411  16.834  0.00  0.00    +0.000 C 
ATOM     12  C   UNL     1       5.338   5.122  15.538  0.00  0.00    +0.000 C 
ATOM     13  C   UNL     1       6.789   4.751  15.312  0.00  0.00    +0.000 C 
ATOM     14  C   UNL     1       7.368   4.498  16.698  0.00  0.00    +0.000 C 
ATOM     15  C   UNL     1       6.196   4.502  17.683  0.00  0.00    +0.000 C 
ENDBRANCH   8  11
ENDBRANCH   4   7
BRANCH   1  17
ATOM     16  C   UNL     1      -0.314   9.549  21.862  0.00  0.00    +0.000 C 
ATOM     17  C   UNL     1       0.082   9.890  20.434  0.00  0.00    +0.000 C 
ATOM     18  N   UNL     1      -0.351  10.918  19.764  0.00  0.00    +0.000 NA
BRANCH  18  19
ATOM     19  N   UNL     1      -1.251  11.778  20.318  0.00  0.00    +0.000 N 
ATOM     20  C   UNL     1      -2.460  12.044  19.692  0.00  0.00    +0.000 C 
ATOM     21  O   UNL     1      -2.822  11.586  18.611  0.00  0.00    +0.000 OA
ATOM     22  H   UNL     1      -1.119  12.210  21.226  0.00  0.00    +0.000 HD
BRANCH  20  23
ATOM     23  C   UNL     1      -3.313  12.959  20.473  0.00  0.00    +0.000 A 
ATOM     24  C   UNL     1      -2.872  13.908  21.435  0.00  0.00    +0.000 A 
ATOM     25  C   UNL     1      -4.012  14.524  21.895  0.00  0.00    +0.000 A 
ATOM     26  N   UNL     1      -5.044  13.945  21.222  0.00  0.00    +0.000 N 
ATOM     27  C   UNL     1      -6.447  14.258  21.371  0.00  0.00    +0.000 C 
ATOM     28  N   UNL     1      -4.659  12.990  20.348  0.00  0.00    +0.000 NA
ENDBRANCH  20  23
ENDBRANCH  18  19
ENDBRANCH   1  17
TORSDOF 5
ENDMDL
