MODEL 1
REMARK VINA RESULT:      -8.6      0.000      0.000
REMARK  Name = 
REMARK  7 active torsions:
REMARK  status: ('A' for Active; 'I' for Inactive)
REMARK    1  A    between atoms: C_1  and  C_2
REMARK    2  A    between atoms: C_2  and  O_3
REMARK    3  A    between atoms: O_3  and  C_4
REMARK    4  A    between atoms: C_4  and  C_6
REMARK    5  A    between atoms: C_6  and  C_7
REMARK    6  A    between atoms: C_6  and  N_8
REMARK    7  A    between atoms: C_10  and  C_11
REMARK                            x       y       z     vdW  Elec       q    Type
REMARK                         _______ _______ _______ _____ _____    ______ ____
ROOT
ATOM      1  N   UNL     1       5.011   5.471  18.167  0.00  0.00    +0.000 N 
ATOM      2  N   UNL     1       4.130   6.524  18.256  0.00  0.00    +0.000 NA
ATOM      3  C   UNL     1       3.054   6.416  18.983  0.00  0.00    +0.000 A 
ATOM      4  C   UNL     1       2.694   5.146  19.672  0.00  0.00    +0.000 A 
ATOM      5  C   UNL     1       1.470   4.916  20.316  0.00  0.00    +0.000 A 
ATOM      6  C   UNL     1       1.240   3.725  21.012  0.00  0.00    +0.000 A 
ATOM      7  C   UNL     1       2.208   2.728  21.022  0.00  0.00    +0.000 A 
ATOM      8  C   UNL     1       3.395   2.915  20.324  0.00  0.00    +0.000 A 
ATOM      9  C   UNL     1       3.633   4.122  19.645  0.00  0.00    +0.000 A 
ATOM     10  C   UNL     1       4.855   4.271  18.849  0.00  0.00    +0.000 A 
ATOM     11  O   UNL     1       5.662   3.347  18.799  0.00  0.00    +0.000 OA
ENDROOT
BRANCH   3  12
ATOM     12  C   UNL     1       2.196   7.643  19.104  0.00  0.00    +0.000 A 
ATOM     13  C   UNL     1       1.916   8.406  17.963  0.00  0.00    +0.000 A 
ATOM     14  C   UNL     1       1.090   9.529  18.052  0.00  0.00    +0.000 A 
ATOM     15  C   UNL     1       0.531   9.897  19.274  0.00  0.00    +0.000 A 
ATOM     16  C   UNL     1       0.837   9.167  20.420  0.00  0.00    +0.000 A 
ATOM     17  C   UNL     1       1.702   8.076  20.342  0.00  0.00    +0.000 A 
ENDBRANCH   3  12
BRANCH   1  18
ATOM     18  C   UNL     1       6.152   5.609  17.247  0.00  0.00    +0.000 C 
ATOM     19  C   UNL     1       6.972   6.866  17.536  0.00  0.00    +0.000 C 
BRANCH  18  20
ATOM     20  C   UNL     1       5.727   5.623  15.772  0.00  0.00    +0.000 C 
ATOM     21  O   UNL     1       5.403   6.644  15.173  0.00  0.00    +0.000 OA
BRANCH  20  22
ATOM     22  O   UNL     1       5.632   4.367  15.247  0.00  0.00    +0.000 OA
BRANCH  22  24
ATOM     23  C   UNL     1       5.692   3.673  12.966  0.00  0.00    +0.000 C 
ATOM     24  C   UNL     1       6.527   4.089  14.165  0.00  0.00    +0.000 C 
ENDBRANCH  22  24
ENDBRANCH  20  22
ENDBRANCH  18  20
ENDBRANCH   1  18
TORSDOF 5
ENDMDL
MODEL 2
REMARK VINA RESULT:      -8.6      0.937      1.393
REMARK  Name = 
REMARK  7 active torsions:
REMARK  status: ('A' for Active; 'I' for Inactive)
REMARK    1  A    between atoms: C_1  and  C_2
REMARK    2  A    between atoms: C_2  and  O_3
REMARK    3  A    between atoms: O_3  and  C_4
REMARK    4  A    between atoms: C_4  and  C_6
REMARK    5  A    between atoms: C_6  and  C_7
REMARK    6  A    between atoms: C_6  and  N_8
REMARK    7  A    between atoms: C_10  and  C_11
REMARK                            x       y       z     vdW  Elec       q    Type
REMARK                         _______ _______ _______ _____ _____    ______ ____
ROOT
ATOM      1  N   UNL     1       5.221   4.985  18.800  0.00  0.00    +0.000 N 
ATOM      2  N   UNL     1       4.447   6.117  18.690  0.00  0.00    +0.000 NA
ATOM      3  C   UNL     1       3.207   6.102  19.090  0.00  0.00    +0.000 A 
ATOM      4  C   UNL     1       2.559   4.861  19.600  0.00  0.00    +0.000 A 
ATOM      5  C   UNL     1       1.190   4.741  19.874  0.00  0.00    +0.000 A 
ATOM      6  C   UNL     1       0.672   3.566  20.430  0.00  0.00    +0.000 A 
ATOM      7  C   UNL     1       1.507   2.480  20.661  0.00  0.00    +0.000 A 
ATOM      8  C   UNL     1       2.852   2.562  20.322  0.00  0.00    +0.000 A 
ATOM      9  C   UNL     1       3.374   3.751  19.787  0.00  0.00    +0.000 A 
ATOM     10  C   UNL     1       4.777   3.794  19.362  0.00  0.00    +0.000 A 
ATOM     11  O   UNL     1       5.481   2.797  19.495  0.00  0.00    +0.000 OA
ENDROOT
BRANCH   3  12
ATOM     12  C   UNL     1       2.461   7.404  19.024  0.00  0.00    +0.000 A 
ATOM     13  C   UNL     1       1.811   7.887  20.167  0.00  0.00    +0.000 A 
ATOM     14  C   UNL     1       1.145   9.114  20.132  0.00  0.00    +0.000 A 
ATOM     15  C   UNL     1       1.126   9.873  18.965  0.00  0.00    +0.000 A 
ATOM     16  C   UNL     1       1.735   9.380  17.813  0.00  0.00    +0.000 A 
ATOM     17  C   UNL     1       2.358   8.133  17.831  0.00  0.00    +0.000 A 
ENDBRANCH   3  12
BRANCH   1  18
ATOM     18  C   UNL     1       6.579   5.026  18.234  0.00  0.00    +0.000 C 
ATOM     19  C   UNL     1       7.539   5.833  19.108  0.00  0.00    +0.000 C 
BRANCH  18  20
ATOM     20  C   UNL     1       6.610   5.594  16.808  0.00  0.00    +0.000 C 
ATOM     21  O   UNL     1       7.343   6.518  16.465  0.00  0.00    +0.000 OA
BRANCH  20  22
ATOM     22  O   UNL     1       5.652   5.043  16.008  0.00  0.00    +0.000 OA
BRANCH  22  24
ATOM     23  C   UNL     1       6.140   3.972  13.934  0.00  0.00    +0.000 C 
ATOM     24  C   UNL     1       5.992   3.777  15.433  0.00  0.00    +0.000 C 
ENDBRANCH  22  24
ENDBRANCH  20  22
ENDBRANCH  18  20
ENDBRANCH   1  18
TORSDOF 5
ENDMDL
MODEL 3
REMARK VINA RESULT:      -8.4      1.569      2.625
REMARK  Name = 
REMARK  7 active torsions:
REMARK  status: ('A' for Active; 'I' for Inactive)
REMARK    1  A    between atoms: C_1  and  C_2
REMARK    2  A    between atoms: C_2  and  O_3
REMARK    3  A    between atoms: O_3  and  C_4
REMARK    4  A    between atoms: C_4  and  C_6
REMARK    5  A    between atoms: C_6  and  C_7
REMARK    6  A    between atoms: C_6  and  N_8
REMARK    7  A    between atoms: C_10  and  C_11
REMARK                            x       y       z     vdW  Elec       q    Type
REMARK                         _______ _______ _______ _____ _____    ______ ____
ROOT
ATOM      1  N   UNL     1       4.732   5.180  16.657  0.00  0.00    +0.000 N 
ATOM      2  N   UNL     1       4.027   6.227  17.205  0.00  0.00    +0.000 NA
ATOM      3  C   UNL     1       3.030   5.993  18.011  0.00  0.00    +0.000 A 
ATOM      4  C   UNL     1       2.566   4.609  18.307  0.00  0.00    +0.000 A 
ATOM      5  C   UNL     1       1.397   4.304  19.018  0.00  0.00    +0.000 A 
ATOM      6  C   UNL     1       1.073   2.978  19.327  0.00  0.00    +0.000 A 
ATOM      7  C   UNL     1       1.882   1.942  18.876  0.00  0.00    +0.000 A 
ATOM      8  C   UNL     1       3.002   2.229  18.106  0.00  0.00    +0.000 A 
ATOM      9  C   UNL     1       3.339   3.562  17.818  0.00  0.00    +0.000 A 
ATOM     10  C   UNL     1       4.478   3.844  16.939  0.00  0.00    +0.000 A 
ATOM     11  O   UNL     1       5.133   2.912  16.480  0.00  0.00    +0.000 OA
ENDROOT
BRANCH   3  12
ATOM     12  C   UNL     1       2.376   7.190  18.640  0.00  0.00    +0.000 A 
ATOM     13  C   UNL     1       2.050   8.296  17.846  0.00  0.00    +0.000 A 
ATOM     14  C   UNL     1       1.408   9.402  18.408  0.00  0.00    +0.000 A 
ATOM     15  C   UNL     1       1.080   9.413  19.762  0.00  0.00    +0.000 A 
ATOM     16  C   UNL     1       1.438   8.334  20.566  0.00  0.00    +0.000 A 
ATOM     17  C   UNL     1       2.123   7.250  20.017  0.00  0.00    +0.000 A 
ENDBRANCH   3  12
BRANCH   1  18
ATOM     18  C   UNL     1       5.777   5.500  15.671  0.00  0.00    +0.000 C 
ATOM     19  C   UNL     1       5.781   4.516  14.502  0.00  0.00    +0.000 C 
BRANCH  18  20
ATOM     20  C   UNL     1       7.182   5.543  16.288  0.00  0.00    +0.000 C 
ATOM     21  O   UNL     1       7.786   4.542  16.661  0.00  0.00    +0.000 OA
BRANCH  20  22
ATOM     22  O   UNL     1       7.624   6.819  16.487  0.00  0.00    +0.000 OA
BRANCH  22  24
ATOM     23  C   UNL     1       8.082   8.702  17.876  0.00  0.00    +0.000 C 
ATOM     24  C   UNL     1       7.704   7.231  17.855  0.00  0.00    +0.000 C 
ENDBRANCH  22  24
ENDBRANCH  20  22
ENDBRANCH  18  20
ENDBRANCH   1  18
TORSDOF 5
ENDMDL
MODEL 4
REMARK VINA RESULT:      -8.2      1.485      2.314
REMARK  Name = 
REMARK  7 active torsions:
REMARK  status: ('A' for Active; 'I' for Inactive)
REMARK    1  A    between atoms: C_1  and  C_2
REMARK    2  A    between atoms: C_2  and  O_3
REMARK    3  A    between atoms: O_3  and  C_4
REMARK    4  A    between atoms: C_4  and  C_6
REMARK    5  A    between atoms: C_6  and  C_7
REMARK    6  A    between atoms: C_6  and  N_8
REMARK    7  A    between atoms: C_10  and  C_11
REMARK                            x       y       z     vdW  Elec       q    Type
REMARK                         _______ _______ _______ _____ _____    ______ ____
ROOT
ATOM      1  N   UNL     1       5.156   5.257  18.699  0.00  0.00    +0.000 N 
ATOM      2  N   UNL     1       4.335   6.360  18.669  0.00  0.00    +0.000 NA
ATOM      3  C   UNL     1       3.109   6.274  19.103  0.00  0.00    +0.000 A 
ATOM      4  C   UNL     1       2.527   4.983  19.566  0.00  0.00    +0.000 A 
ATOM      5  C   UNL     1       1.172   4.793  19.872  0.00  0.00    +0.000 A 
ATOM      6  C   UNL     1       0.718   3.572  20.380  0.00  0.00    +0.000 A 
ATOM      7  C   UNL     1       1.602   2.510  20.530  0.00  0.00    +0.000 A 
ATOM      8  C   UNL     1       2.932   2.664  20.159  0.00  0.00    +0.000 A 
ATOM      9  C   UNL     1       3.390   3.900  19.672  0.00  0.00    +0.000 A 
ATOM     10  C   UNL     1       4.777   4.022  19.211  0.00  0.00    +0.000 A 
ATOM     11  O   UNL     1       5.523   3.049  19.272  0.00  0.00    +0.000 OA
ENDROOT
BRANCH   3  12
ATOM     12  C   UNL     1       2.311   7.546  19.126  0.00  0.00    +0.000 A 
ATOM     13  C   UNL     1       2.163   8.291  17.949  0.00  0.00    +0.000 A 
ATOM     14  C   UNL     1       1.394   9.456  17.945  0.00  0.00    +0.000 A 
ATOM     15  C   UNL     1       0.760   9.886  19.108  0.00  0.00    +0.000 A 
ATOM     16  C   UNL     1       0.936   9.174  20.292  0.00  0.00    +0.000 A 
ATOM     17  C   UNL     1       1.744   8.037  20.310  0.00  0.00    +0.000 A 
ENDBRANCH   3  12
BRANCH   1  18
ATOM     18  C   UNL     1       6.494   5.383  18.098  0.00  0.00    +0.000 C 
ATOM     19  C   UNL     1       7.568   5.670  19.147  0.00  0.00    +0.000 C 
BRANCH  18  20
ATOM     20  C   UNL     1       6.557   6.467  17.013  0.00  0.00    +0.000 C 
ATOM     21  O   UNL     1       5.798   6.501  16.049  0.00  0.00    +0.000 OA
BRANCH  20  22
ATOM     22  O   UNL     1       7.620   7.306  17.177  0.00  0.00    +0.000 OA
BRANCH  22  24
ATOM     23  C   UNL     1       8.477   9.265  18.234  0.00  0.00    +0.000 C 
ATOM     24  C   UNL     1       7.285   8.656  17.515  0.00  0.00    +0.000 C 
ENDBRANCH  22  24
ENDBRANCH  20  22
ENDBRANCH  18  20
ENDBRANCH   1  18
TORSDOF 5
ENDMDL
MODEL 5
REMARK VINA RESULT:      -8.1      0.714      1.319
REMARK  Name = 
REMARK  7 active torsions:
REMARK  status: ('A' for Active; 'I' for Inactive)
REMARK    1  A    between atoms: C_1  and  C_2
REMARK    2  A    between atoms: C_2  and  O_3
REMARK    3  A    between atoms: O_3  and  C_4
REMARK    4  A    between atoms: C_4  and  C_6
REMARK    5  A    between atoms: C_6  and  C_7
REMARK    6  A    between atoms: C_6  and  N_8
REMARK    7  A    between atoms: C_10  and  C_11
REMARK                            x       y       z     vdW  Elec       q    Type
REMARK                         _______ _______ _______ _____ _____    ______ ____
ROOT
ATOM      1  N   UNL     1       5.167   5.495  18.242  0.00  0.00    +0.000 N 
ATOM      2  N   UNL     1       4.277   6.544  18.274  0.00  0.00    +0.000 NA
ATOM      3  C   UNL     1       3.155   6.430  18.928  0.00  0.00    +0.000 A 
ATOM      4  C   UNL     1       2.757   5.156  19.589  0.00  0.00    +0.000 A 
ATOM      5  C   UNL     1       1.494   4.919  20.150  0.00  0.00    +0.000 A 
ATOM      6  C   UNL     1       1.223   3.725  20.826  0.00  0.00    +0.000 A 
ATOM      7  C   UNL     1       2.193   2.732  20.897  0.00  0.00    +0.000 A 
ATOM      8  C   UNL     1       3.423   2.926  20.280  0.00  0.00    +0.000 A 
ATOM      9  C   UNL     1       3.700   4.136  19.622  0.00  0.00    +0.000 A 
ATOM     10  C   UNL     1       4.971   4.293  18.909  0.00  0.00    +0.000 A 
ATOM     11  O   UNL     1       5.783   3.372  18.910  0.00  0.00    +0.000 OA
ENDROOT
BRANCH   3  12
ATOM     12  C   UNL     1       2.286   7.653  18.995  0.00  0.00    +0.000 A 
ATOM     13  C   UNL     1       1.740   8.046  20.223  0.00  0.00    +0.000 A 
ATOM     14  C   UNL     1       0.960   9.201  20.309  0.00  0.00    +0.000 A 
ATOM     15  C   UNL     1       0.723   9.977  19.177  0.00  0.00    +0.000 A 
ATOM     16  C   UNL     1       1.228   9.571  17.945  0.00  0.00    +0.000 A 
ATOM     17  C   UNL     1       1.966   8.391  17.848  0.00  0.00    +0.000 A 
ENDBRANCH   3  12
BRANCH   1  18
ATOM     18  C   UNL     1       6.366   5.641  17.400  0.00  0.00    +0.000 C 
ATOM     19  C   UNL     1       6.967   7.042  17.498  0.00  0.00    +0.000 C 
BRANCH  18  20
ATOM     20  C   UNL     1       6.096   5.318  15.924  0.00  0.00    +0.000 C 
ATOM     21  O   UNL     1       5.068   4.774  15.529  0.00  0.00    +0.000 OA
BRANCH  20  22
ATOM     22  O   UNL     1       7.170   5.589  15.127  0.00  0.00    +0.000 OA
BRANCH  22  24
ATOM     23  C   UNL     1       8.092   5.513  12.929  0.00  0.00    +0.000 C 
ATOM     24  C   UNL     1       7.306   4.746  13.979  0.00  0.00    +0.000 C 
ENDBRANCH  22  24
ENDBRANCH  20  22
ENDBRANCH  18  20
ENDBRANCH   1  18
TORSDOF 5
ENDMDL
MODEL 6
REMARK VINA RESULT:      -7.9      1.601      2.579
REMARK  Name = 
REMARK  7 active torsions:
REMARK  status: ('A' for Active; 'I' for Inactive)
REMARK    1  A    between atoms: C_1  and  C_2
REMARK    2  A    between atoms: C_2  and  O_3
REMARK    3  A    between atoms: O_3  and  C_4
REMARK    4  A    between atoms: C_4  and  C_6
REMARK    5  A    between atoms: C_6  and  C_7
REMARK    6  A    between atoms: C_6  and  N_8
REMARK    7  A    between atoms: C_10  and  C_11
REMARK                            x       y       z     vdW  Elec       q    Type
REMARK                         _______ _______ _______ _____ _____    ______ ____
ROOT
ATOM      1  N   UNL     1       5.149   5.454  18.414  0.00  0.00    +0.000 N 
ATOM      2  N   UNL     1       4.270   6.512  18.439  0.00  0.00    +0.000 NA
ATOM      3  C   UNL     1       3.119   6.391  19.039  0.00  0.00    +0.000 A 
ATOM      4  C   UNL     1       2.678   5.103  19.642  0.00  0.00    +0.000 A 
ATOM      5  C   UNL     1       1.388   4.865  20.138  0.00  0.00    +0.000 A 
ATOM      6  C   UNL     1       1.076   3.654  20.765  0.00  0.00    +0.000 A 
ATOM      7  C   UNL     1       2.030   2.648  20.849  0.00  0.00    +0.000 A 
ATOM      8  C   UNL     1       3.288   2.845  20.293  0.00  0.00    +0.000 A 
ATOM      9  C   UNL     1       3.607   4.071  19.685  0.00  0.00    +0.000 A 
ATOM     10  C   UNL     1       4.911   4.234  19.034  0.00  0.00    +0.000 A 
ATOM     11  O   UNL     1       5.713   3.304  19.044  0.00  0.00    +0.000 OA
ENDROOT
BRANCH   3  12
ATOM     12  C   UNL     1       2.260   7.622  19.105  0.00  0.00    +0.000 A 
ATOM     13  C   UNL     1       2.010   8.354  17.937  0.00  0.00    +0.000 A 
ATOM     14  C   UNL     1       1.184   9.479  17.975  0.00  0.00    +0.000 A 
ATOM     15  C   UNL     1       0.595   9.881  19.172  0.00  0.00    +0.000 A 
ATOM     16  C   UNL     1       0.872   9.183  20.345  0.00  0.00    +0.000 A 
ATOM     17  C   UNL     1       1.736   8.089  20.318  0.00  0.00    +0.000 A 
ENDBRANCH   3  12
BRANCH   1  18
ATOM     18  C   UNL     1       6.386   5.611  17.631  0.00  0.00    +0.000 C 
ATOM     19  C   UNL     1       6.602   4.448  16.664  0.00  0.00    +0.000 C 
BRANCH  18  20
ATOM     20  C   UNL     1       7.632   5.760  18.515  0.00  0.00    +0.000 C 
ATOM     21  O   UNL     1       8.154   4.820  19.109  0.00  0.00    +0.000 OA
BRANCH  20  22
ATOM     22  O   UNL     1       8.013   7.061  18.662  0.00  0.00    +0.000 OA
BRANCH  22  24
ATOM     23  C   UNL     1       8.197   9.312  17.896  0.00  0.00    +0.000 C 
ATOM     24  C   UNL     1       7.684   7.921  17.565  0.00  0.00    +0.000 C 
ENDBRANCH  22  24
ENDBRANCH  20  22
ENDBRANCH  18  20
ENDBRANCH   1  18
TORSDOF 5
ENDMDL
MODEL 7
REMARK VINA RESULT:      -7.8      0.745      1.230
REMARK  Name = 
REMARK  7 active torsions:
REMARK  status: ('A' for Active; 'I' for Inactive)
REMARK    1  A    between atoms: C_1  and  C_2
REMARK    2  A    between atoms: C_2  and  O_3
REMARK    3  A    between atoms: O_3  and  C_4
REMARK    4  A    between atoms: C_4  and  C_6
REMARK    5  A    between atoms: C_6  and  C_7
REMARK    6  A    between atoms: C_6  and  N_8
REMARK    7  A    between atoms: C_10  and  C_11
REMARK                            x       y       z     vdW  Elec       q    Type
REMARK                         _______ _______ _______ _____ _____    ______ ____
ROOT
ATOM      1  N   UNL     1       5.055   5.493  17.676  0.00  0.00    +0.000 N 
ATOM      2  N   UNL     1       4.209   6.553  17.906  0.00  0.00    +0.000 NA
ATOM      3  C   UNL     1       3.071   6.363  18.512  0.00  0.00    +0.000 A 
ATOM      4  C   UNL     1       2.608   5.003  18.905  0.00  0.00    +0.000 A 
ATOM      5  C   UNL     1       1.326   4.717  19.395  0.00  0.00    +0.000 A 
ATOM      6  C   UNL     1       0.994   3.426  19.820  0.00  0.00    +0.000 A 
ATOM      7  C   UNL     1       1.919   2.397  19.704  0.00  0.00    +0.000 A 
ATOM      8  C   UNL     1       3.168   2.653  19.150  0.00  0.00    +0.000 A 
ATOM      9  C   UNL     1       3.507   3.955  18.746  0.00  0.00    +0.000 A 
ATOM     10  C   UNL     1       4.797   4.193  18.091  0.00  0.00    +0.000 A 
ATOM     11  O   UNL     1       5.571   3.255  17.920  0.00  0.00    +0.000 OA
ENDROOT
BRANCH   3  12
ATOM     12  C   UNL     1       2.252   7.586  18.810  0.00  0.00    +0.000 A 
ATOM     13  C   UNL     1       1.832   7.834  20.123  0.00  0.00    +0.000 A 
ATOM     14  C   UNL     1       1.101   8.986  20.422  0.00  0.00    +0.000 A 
ATOM     15  C   UNL     1       0.788   9.902  19.420  0.00  0.00    +0.000 A 
ATOM     16  C   UNL     1       1.167   9.642  18.105  0.00  0.00    +0.000 A 
ATOM     17  C   UNL     1       1.853   8.468  17.796  0.00  0.00    +0.000 A 
ENDBRANCH   3  12
BRANCH   1  18
ATOM     18  C   UNL     1       6.275   5.748  16.892  0.00  0.00    +0.000 C 
ATOM     19  C   UNL     1       7.109   6.883  17.484  0.00  0.00    +0.000 C 
BRANCH  18  20
ATOM     20  C   UNL     1       5.978   6.065  15.420  0.00  0.00    +0.000 C 
ATOM     21  O   UNL     1       5.106   6.853  15.062  0.00  0.00    +0.000 OA
BRANCH  20  22
ATOM     22  O   UNL     1       6.701   5.288  14.564  0.00  0.00    +0.000 OA
BRANCH  22  24
ATOM     23  C   UNL     1       6.089   3.631  12.962  0.00  0.00    +0.000 C 
ATOM     24  C   UNL     1       6.251   3.934  14.441  0.00  0.00    +0.000 C 
ENDBRANCH  22  24
ENDBRANCH  20  22
ENDBRANCH  18  20
ENDBRANCH   1  18
TORSDOF 5
ENDMDL
MODEL 8
REMARK VINA RESULT:      -7.8      1.077      1.090
REMARK  Name = 
REMARK  7 active torsions:
REMARK  status: ('A' for Active; 'I' for Inactive)
REMARK    1  A    between atoms: C_1  and  C_2
REMARK    2  A    between atoms: C_2  and  O_3
REMARK    3  A    between atoms: O_3  and  C_4
REMARK    4  A    between atoms: C_4  and  C_6
REMARK    5  A    between atoms: C_6  and  C_7
REMARK    6  A    between atoms: C_6  and  N_8
REMARK    7  A    between atoms: C_10  and  C_11
REMARK                            x       y       z     vdW  Elec       q    Type
REMARK                         _______ _______ _______ _____ _____    ______ ____
ROOT
ATOM      1  N   UNL     1       5.012   5.321  17.550  0.00  0.00    +0.000 N 
ATOM      2  N   UNL     1       4.220   6.356  17.994  0.00  0.00    +0.000 NA
ATOM      3  C   UNL     1       3.078   6.105  18.568  0.00  0.00    +0.000 A 
ATOM      4  C   UNL     1       2.549   4.718  18.694  0.00  0.00    +0.000 A 
ATOM      5  C   UNL     1       1.256   4.403  19.136  0.00  0.00    +0.000 A 
ATOM      6  C   UNL     1       0.862   3.072  19.306  0.00  0.00    +0.000 A 
ATOM      7  C   UNL     1       1.735   2.042  18.979  0.00  0.00    +0.000 A 
ATOM      8  C   UNL     1       2.992   2.342  18.468  0.00  0.00    +0.000 A 
ATOM      9  C   UNL     1       3.394   3.680  18.321  0.00  0.00    +0.000 A 
ATOM     10  C   UNL     1       4.692   3.979  17.707  0.00  0.00    +0.000 A 
ATOM     11  O   UNL     1       5.417   3.056  17.345  0.00  0.00    +0.000 OA
ENDROOT
BRANCH   3  12
ATOM     12  C   UNL     1       2.322   7.284  19.109  0.00  0.00    +0.000 A 
ATOM     13  C   UNL     1       2.019   8.359  18.264  0.00  0.00    +0.000 A 
ATOM     14  C   UNL     1       1.285   9.446  18.743  0.00  0.00    +0.000 A 
ATOM     15  C   UNL     1       0.840   9.469  20.063  0.00  0.00    +0.000 A 
ATOM     16  C   UNL     1       1.172   8.424  20.920  0.00  0.00    +0.000 A 
ATOM     17  C   UNL     1       1.947   7.361  20.458  0.00  0.00    +0.000 A 
ENDBRANCH   3  12
BRANCH   1  18
ATOM     18  C   UNL     1       6.239   5.666  16.814  0.00  0.00    +0.000 C 
ATOM     19  C   UNL     1       6.933   6.894  17.401  0.00  0.00    +0.000 C 
BRANCH  18  20
ATOM     20  C   UNL     1       5.986   5.905  15.319  0.00  0.00    +0.000 C 
ATOM     21  O   UNL     1       5.214   6.760  14.894  0.00  0.00    +0.000 OA
BRANCH  20  22
ATOM     22  O   UNL     1       6.616   4.987  14.531  0.00  0.00    +0.000 OA
BRANCH  22  24
ATOM     23  C   UNL     1       6.335   3.611  12.604  0.00  0.00    +0.000 C 
ATOM     24  C   UNL     1       5.767   3.985  13.962  0.00  0.00    +0.000 C 
ENDBRANCH  22  24
ENDBRANCH  20  22
ENDBRANCH  18  20
ENDBRANCH   1  18
TORSDOF 5
ENDMDL
MODEL 9
REMARK VINA RESULT:      -7.8      1.415      2.542
REMARK  Name = 
REMARK  7 active torsions:
REMARK  status: ('A' for Active; 'I' for Inactive)
REMARK    1  A    between atoms: C_1  and  C_2
REMARK    2  A    between atoms: C_2  and  O_3
REMARK    3  A    between atoms: O_3  and  C_4
REMARK    4  A    between atoms: C_4  and  C_6
REMARK    5  A    between atoms: C_6  and  C_7
REMARK    6  A    between atoms: C_6  and  N_8
REMARK    7  A    between atoms: C_10  and  C_11
REMARK                            x       y       z     vdW  Elec       q    Type
REMARK                         _______ _______ _______ _____ _____    ______ ____
ROOT
ATOM      1  N   UNL     1       4.862   5.124  18.067  0.00  0.00    +0.000 N 
ATOM      2  N   UNL     1       4.046   6.228  18.155  0.00  0.00    +0.000 NA
ATOM      3  C   UNL     1       3.004   6.211  18.938  0.00  0.00    +0.000 A 
ATOM      4  C   UNL     1       2.610   4.991  19.696  0.00  0.00    +0.000 A 
ATOM      5  C   UNL     1       1.410   4.857  20.408  0.00  0.00    +0.000 A 
ATOM      6  C   UNL     1       1.150   3.709  21.163  0.00  0.00    +0.000 A 
ATOM      7  C   UNL     1       2.061   2.659  21.167  0.00  0.00    +0.000 A 
ATOM      8  C   UNL     1       3.219   2.750  20.405  0.00  0.00    +0.000 A 
ATOM      9  C   UNL     1       3.488   3.914  19.666  0.00  0.00    +0.000 A 
ATOM     10  C   UNL     1       4.675   3.962  18.806  0.00  0.00    +0.000 A 
ATOM     11  O   UNL     1       5.426   2.992  18.755  0.00  0.00    +0.000 OA
ENDROOT
BRANCH   3  12
ATOM     12  C   UNL     1       2.222   7.489  19.049  0.00  0.00    +0.000 A 
ATOM     13  C   UNL     1       1.730   7.891  20.297  0.00  0.00    +0.000 A 
ATOM     14  C   UNL     1       1.034   9.095  20.423  0.00  0.00    +0.000 A 
ATOM     15  C   UNL     1       0.827   9.910  19.313  0.00  0.00    +0.000 A 
ATOM     16  C   UNL     1       1.277   9.497  18.061  0.00  0.00    +0.000 A 
ATOM     17  C   UNL     1       1.929   8.272  17.924  0.00  0.00    +0.000 A 
ENDBRANCH   3  12
BRANCH   1  18
ATOM     18  C   UNL     1       5.960   5.161  17.088  0.00  0.00    +0.000 C 
ATOM     19  C   UNL     1       5.835   4.051  16.046  0.00  0.00    +0.000 C 
BRANCH  18  20
ATOM     20  C   UNL     1       7.344   5.070  17.746  0.00  0.00    +0.000 C 
ATOM     21  O   UNL     1       8.205   4.267  17.398  0.00  0.00    +0.000 OA
BRANCH  20  22
ATOM     22  O   UNL     1       7.460   5.890  18.830  0.00  0.00    +0.000 OA
BRANCH  22  24
ATOM     23  C   UNL     1       7.627   7.929  17.606  0.00  0.00    +0.000 C 
ATOM     24  C   UNL     1       8.293   7.039  18.640  0.00  0.00    +0.000 C 
ENDBRANCH  22  24
ENDBRANCH  20  22
ENDBRANCH  18  20
ENDBRANCH   1  18
TORSDOF 5
ENDMDL
