MODEL 1
REMARK VINA RESULT:      -8.1      0.000      0.000
REMARK  Name = 
REMARK  6 active torsions:
REMARK  status: ('A' for Active; 'I' for Inactive)
REMARK    1  A    between atoms: C_1  and  O_2
REMARK    2  A    between atoms: O_2  and  C_3
REMARK    3  A    between atoms: C_7  and  S_8
REMARK    4  A    between atoms: S_8  and  N_11
REMARK    5  A    between atoms: N_11  and  C_12
REMARK    6  A    between atoms: C_16  and  C_17
REMARK                            x       y       z     vdW  Elec       q    Type
REMARK                         _______ _______ _______ _____ _____    ______ ____
ROOT
ATOM      1  N   UNL     1       2.845   5.852  20.218  0.00  0.00    +0.000 N 
ATOM      2  H   UNL     1       2.810   5.755  21.231  0.00  0.00    +0.000 HD
ENDROOT
BRANCH   1   3
ATOM      3  C   UNL     1       2.335   7.044  19.642  0.00  0.00    +0.000 A 
ATOM      4  C   UNL     1       2.694   7.344  18.329  0.00  0.00    +0.000 A 
ATOM      5  C   UNL     1       2.292   8.549  17.756  0.00  0.00    +0.000 A 
ATOM      6  C   UNL     1       1.580   9.475  18.520  0.00  0.00    +0.000 A 
ATOM      7  C   UNL     1       1.231   9.186  19.849  0.00  0.00    +0.000 A 
ATOM      8  C   UNL     1       1.556   7.932  20.380  0.00  0.00    +0.000 A 
BRANCH   7   9
ATOM      9  C   UNL     1       0.430  10.197  20.594  0.00  0.00    +0.000 C 
ATOM     10  O   UNL     1       0.841  10.539  21.705  0.00  0.00    +0.000 OA
ATOM     11  N   UNL     1      -0.710  10.754  20.045  0.00  0.00    +0.000 N 
ATOM     12  C   UNL     1      -1.522  10.354  18.908  0.00  0.00    +0.000 C 
ATOM     13  C   UNL     1      -1.892  11.698  18.309  0.00  0.00    +0.000 C 
ATOM     14  C   UNL     1      -2.195  12.533  19.552  0.00  0.00    +0.000 C 
ATOM     15  C   UNL     1      -1.271  11.963  20.630  0.00  0.00    +0.000 C 
ENDBRANCH   7   9
ENDBRANCH   1   3
BRANCH   1  16
ATOM     16  S   UNL     1       2.663   4.381  19.422  0.00  0.00    +0.000 S 
ATOM     17  O   UNL     1       1.458   4.430  18.627  0.00  0.00    +0.000 OA
ATOM     18  O   UNL     1       2.848   3.357  20.428  0.00  0.00    +0.000 OA
BRANCH  16  23
ATOM     19  C   UNL     1       6.442   4.566  17.981  0.00  0.00    +0.000 A 
ATOM     20  C   UNL     1       6.236   4.279  16.626  0.00  0.00    +0.000 A 
ATOM     21  C   UNL     1       4.958   4.022  16.130  0.00  0.00    +0.000 A 
ATOM     22  C   UNL     1       3.868   4.052  16.991  0.00  0.00    +0.000 A 
ATOM     23  C   UNL     1       4.069   4.348  18.342  0.00  0.00    +0.000 A 
ATOM     24  C   UNL     1       5.352   4.594  18.849  0.00  0.00    +0.000 A 
BRANCH  19  26
ATOM     25  C   UNL     1       7.997   5.706  19.382  0.00  0.00    +0.000 C 
ATOM     26  O   UNL     1       7.747   4.807  18.309  0.00  0.00    +0.000 OA
ENDBRANCH  19  26
ENDBRANCH  16  23
ENDBRANCH   1  16
TORSDOF 5
ENDMDL
MODEL 2
REMARK VINA RESULT:      -8.0      0.996      1.683
REMARK  Name = 
REMARK  6 active torsions:
REMARK  status: ('A' for Active; 'I' for Inactive)
REMARK    1  A    between atoms: C_1  and  O_2
REMARK    2  A    between atoms: O_2  and  C_3
REMARK    3  A    between atoms: C_7  and  S_8
REMARK    4  A    between atoms: S_8  and  N_11
REMARK    5  A    between atoms: N_11  and  C_12
REMARK    6  A    between atoms: C_16  and  C_17
REMARK                            x       y       z     vdW  Elec       q    Type
REMARK                         _______ _______ _______ _____ _____    ______ ____
ROOT
ATOM      1  N   UNL     1       3.072   5.816  20.106  0.00  0.00    +0.000 N 
ATOM      2  H   UNL     1       2.959   5.657  21.106  0.00  0.00    +0.000 HD
ENDROOT
BRANCH   1   3
ATOM      3  C   UNL     1       2.505   6.991  19.548  0.00  0.00    +0.000 A 
ATOM      4  C   UNL     1       2.799   7.294  18.220  0.00  0.00    +0.000 A 
ATOM      5  C   UNL     1       2.340   8.484  17.660  0.00  0.00    +0.000 A 
ATOM      6  C   UNL     1       1.636   9.395  18.450  0.00  0.00    +0.000 A 
ATOM      7  C   UNL     1       1.353   9.103  19.793  0.00  0.00    +0.000 A 
ATOM      8  C   UNL     1       1.735   7.861  20.315  0.00  0.00    +0.000 A 
BRANCH   7   9
ATOM      9  C   UNL     1       0.557  10.096  20.568  0.00  0.00    +0.000 C 
ATOM     10  O   UNL     1       0.977  10.413  21.683  0.00  0.00    +0.000 OA
ATOM     11  N   UNL     1      -0.589  10.663  20.041  0.00  0.00    +0.000 N 
ATOM     12  C   UNL     1      -1.410  10.288  18.903  0.00  0.00    +0.000 C 
ATOM     13  C   UNL     1      -1.786  11.645  18.338  0.00  0.00    +0.000 C 
ATOM     14  C   UNL     1      -2.080  12.451  19.602  0.00  0.00    +0.000 C 
ATOM     15  C   UNL     1      -1.146  11.858  20.659  0.00  0.00    +0.000 C 
ENDBRANCH   7   9
ENDBRANCH   1   3
BRANCH   1  16
ATOM     16  S   UNL     1       3.095   4.384  19.223  0.00  0.00    +0.000 S 
ATOM     17  O   UNL     1       2.012   4.411  18.267  0.00  0.00    +0.000 OA
ATOM     18  O   UNL     1       3.201   3.317  20.196  0.00  0.00    +0.000 OA
BRANCH  16  23
ATOM     19  C   UNL     1       5.945   4.174  16.355  0.00  0.00    +0.000 A 
ATOM     20  C   UNL     1       7.060   4.678  17.035  0.00  0.00    +0.000 A 
ATOM     21  C   UNL     1       6.967   5.090  18.365  0.00  0.00    +0.000 A 
ATOM     22  C   UNL     1       5.751   5.001  19.029  0.00  0.00    +0.000 A 
ATOM     23  C   UNL     1       4.637   4.489  18.355  0.00  0.00    +0.000 A 
ATOM     24  C   UNL     1       4.721   4.085  17.016  0.00  0.00    +0.000 A 
BRANCH  19  26
ATOM     25  C   UNL     1       6.937   4.706  14.254  0.00  0.00    +0.000 C 
ATOM     26  O   UNL     1       6.199   3.801  15.064  0.00  0.00    +0.000 OA
ENDBRANCH  19  26
ENDBRANCH  16  23
ENDBRANCH   1  16
TORSDOF 5
ENDMDL
MODEL 3
REMARK VINA RESULT:      -8.0      1.222      1.811
REMARK  Name = 
REMARK  6 active torsions:
REMARK  status: ('A' for Active; 'I' for Inactive)
REMARK    1  A    between atoms: C_1  and  O_2
REMARK    2  A    between atoms: O_2  and  C_3
REMARK    3  A    between atoms: C_7  and  S_8
REMARK    4  A    between atoms: S_8  and  N_11
REMARK    5  A    between atoms: N_11  and  C_12
REMARK    6  A    between atoms: C_16  and  C_17
REMARK                            x       y       z     vdW  Elec       q    Type
REMARK                         _______ _______ _______ _____ _____    ______ ____
ROOT
ATOM      1  N   UNL     1       2.799   5.857  20.247  0.00  0.00    +0.000 N 
ATOM      2  H   UNL     1       2.622   5.856  21.250  0.00  0.00    +0.000 HD
ENDROOT
BRANCH   1   3
ATOM      3  C   UNL     1       2.402   6.996  19.498  0.00  0.00    +0.000 A 
ATOM      4  C   UNL     1       2.944   7.166  18.226  0.00  0.00    +0.000 A 
ATOM      5  C   UNL     1       2.655   8.316  17.495  0.00  0.00    +0.000 A 
ATOM      6  C   UNL     1       1.869   9.319  18.065  0.00  0.00    +0.000 A 
ATOM      7  C   UNL     1       1.336   9.161  19.354  0.00  0.00    +0.000 A 
ATOM      8  C   UNL     1       1.553   7.959  20.038  0.00  0.00    +0.000 A 
BRANCH   7   9
ATOM      9  C   UNL     1       0.467  10.249  19.885  0.00  0.00    +0.000 C 
ATOM     10  O   UNL     1      -0.050  11.013  19.067  0.00  0.00    +0.000 OA
ATOM     11  N   UNL     1       0.225  10.374  21.241  0.00  0.00    +0.000 N 
ATOM     12  C   UNL     1       0.890   9.788  22.393  0.00  0.00    +0.000 C 
ATOM     13  C   UNL     1      -0.284   9.512  23.314  0.00  0.00    +0.000 C 
ATOM     14  C   UNL     1      -1.134  10.770  23.141  0.00  0.00    +0.000 C 
ATOM     15  C   UNL     1      -0.875  11.209  21.698  0.00  0.00    +0.000 C 
ENDBRANCH   7   9
ENDBRANCH   1   3
BRANCH   1  16
ATOM     16  S   UNL     1       2.690   4.319  19.572  0.00  0.00    +0.000 S 
ATOM     17  O   UNL     1       1.472   4.237  18.799  0.00  0.00    +0.000 OA
ATOM     18  O   UNL     1       2.950   3.391  20.650  0.00  0.00    +0.000 OA
BRANCH  16  23
ATOM     19  C   UNL     1       6.439   4.554  18.058  0.00  0.00    +0.000 A 
ATOM     20  C   UNL     1       6.219   4.204  16.720  0.00  0.00    +0.000 A 
ATOM     21  C   UNL     1       4.941   3.890  16.258  0.00  0.00    +0.000 A 
ATOM     22  C   UNL     1       3.865   3.924  17.135  0.00  0.00    +0.000 A 
ATOM     23  C   UNL     1       4.079   4.282  18.470  0.00  0.00    +0.000 A 
ATOM     24  C   UNL     1       5.362   4.586  18.944  0.00  0.00    +0.000 A 
BRANCH  19  26
ATOM     25  C   UNL     1       7.982   5.793  19.385  0.00  0.00    +0.000 C 
ATOM     26  O   UNL     1       7.741   4.845  18.354  0.00  0.00    +0.000 OA
ENDBRANCH  19  26
ENDBRANCH  16  23
ENDBRANCH   1  16
TORSDOF 5
ENDMDL
MODEL 4
REMARK VINA RESULT:      -7.9      1.538      2.484
REMARK  Name = 
REMARK  6 active torsions:
REMARK  status: ('A' for Active; 'I' for Inactive)
REMARK    1  A    between atoms: C_1  and  O_2
REMARK    2  A    between atoms: O_2  and  C_3
REMARK    3  A    between atoms: C_7  and  S_8
REMARK    4  A    between atoms: S_8  and  N_11
REMARK    5  A    between atoms: N_11  and  C_12
REMARK    6  A    between atoms: C_16  and  C_17
REMARK                            x       y       z     vdW  Elec       q    Type
REMARK                         _______ _______ _______ _____ _____    ______ ____
ROOT
ATOM      1  N   UNL     1       3.003   5.840  20.073  0.00  0.00    +0.000 N 
ATOM      2  H   UNL     1       2.731   5.758  21.051  0.00  0.00    +0.000 HD
ENDROOT
BRANCH   1   3
ATOM      3  C   UNL     1       2.557   6.976  19.348  0.00  0.00    +0.000 A 
ATOM      4  C   UNL     1       3.073   7.183  18.071  0.00  0.00    +0.000 A 
ATOM      5  C   UNL     1       2.735   8.333  17.361  0.00  0.00    +0.000 A 
ATOM      6  C   UNL     1       1.925   9.301  17.958  0.00  0.00    +0.000 A 
ATOM      7  C   UNL     1       1.417   9.107  19.252  0.00  0.00    +0.000 A 
ATOM      8  C   UNL     1       1.685   7.903  19.915  0.00  0.00    +0.000 A 
BRANCH   7   9
ATOM      9  C   UNL     1       0.520  10.156  19.813  0.00  0.00    +0.000 C 
ATOM     10  O   UNL     1      -0.054  10.898  19.013  0.00  0.00    +0.000 OA
ATOM     11  N   UNL     1       0.315  10.269  21.176  0.00  0.00    +0.000 N 
ATOM     12  C   UNL     1       1.039   9.711  22.306  0.00  0.00    +0.000 C 
ATOM     13  C   UNL     1      -0.093   9.385  23.262  0.00  0.00    +0.000 C 
ATOM     14  C   UNL     1      -0.999  10.606  23.118  0.00  0.00    +0.000 C 
ATOM     15  C   UNL     1      -0.805  11.058  21.669  0.00  0.00    +0.000 C 
ENDBRANCH   7   9
ENDBRANCH   1   3
BRANCH   1  16
ATOM     16  S   UNL     1       3.131   4.346  19.311  0.00  0.00    +0.000 S 
ATOM     17  O   UNL     1       2.067   4.225  18.343  0.00  0.00    +0.000 OA
ATOM     18  O   UNL     1       3.288   3.371  20.369  0.00  0.00    +0.000 OA
BRANCH  16  23
ATOM     19  C   UNL     1       6.009   4.191  16.466  0.00  0.00    +0.000 A 
ATOM     20  C   UNL     1       7.110   4.712  17.158  0.00  0.00    +0.000 A 
ATOM     21  C   UNL     1       6.999   5.120  18.487  0.00  0.00    +0.000 A 
ATOM     22  C   UNL     1       5.778   5.008  19.141  0.00  0.00    +0.000 A 
ATOM     23  C   UNL     1       4.679   4.480  18.456  0.00  0.00    +0.000 A 
ATOM     24  C   UNL     1       4.781   4.080  17.117  0.00  0.00    +0.000 A 
BRANCH  19  26
ATOM     25  C   UNL     1       6.881   4.800  14.334  0.00  0.00    +0.000 C 
ATOM     26  O   UNL     1       6.280   3.826  15.177  0.00  0.00    +0.000 OA
ENDBRANCH  19  26
ENDBRANCH  16  23
ENDBRANCH   1  16
TORSDOF 5
ENDMDL
MODEL 5
REMARK VINA RESULT:      -7.9      4.717      7.216
REMARK  Name = 
REMARK  6 active torsions:
REMARK  status: ('A' for Active; 'I' for Inactive)
REMARK    1  A    between atoms: C_1  and  O_2
REMARK    2  A    between atoms: O_2  and  C_3
REMARK    3  A    between atoms: C_7  and  S_8
REMARK    4  A    between atoms: S_8  and  N_11
REMARK    5  A    between atoms: N_11  and  C_12
REMARK    6  A    between atoms: C_16  and  C_17
REMARK                            x       y       z     vdW  Elec       q    Type
REMARK                         _______ _______ _______ _____ _____    ______ ____
ROOT
ATOM      1  N   UNL     1       6.585   3.937  15.599  0.00  0.00    +0.000 N 
ATOM      2  H   UNL     1       6.151   3.036  15.407  0.00  0.00    +0.000 HD
ENDROOT
BRANCH   1   3
ATOM      3  C   UNL     1       6.394   4.511  16.883  0.00  0.00    +0.000 A 
ATOM      4  C   UNL     1       7.524   4.831  17.633  0.00  0.00    +0.000 A 
ATOM      5  C   UNL     1       7.383   5.309  18.934  0.00  0.00    +0.000 A 
ATOM      6  C   UNL     1       6.111   5.410  19.501  0.00  0.00    +0.000 A 
ATOM      7  C   UNL     1       4.970   5.071  18.756  0.00  0.00    +0.000 A 
ATOM      8  C   UNL     1       5.120   4.686  17.418  0.00  0.00    +0.000 A 
BRANCH   7   9
ATOM      9  C   UNL     1       3.640   5.246  19.403  0.00  0.00    +0.000 C 
ATOM     10  O   UNL     1       3.237   6.400  19.567  0.00  0.00    +0.000 OA
ATOM     11  N   UNL     1       2.874   4.156  19.773  0.00  0.00    +0.000 N 
ATOM     12  C   UNL     1       3.213   2.750  19.921  0.00  0.00    +0.000 C 
ATOM     13  C   UNL     1       1.959   2.077  19.394  0.00  0.00    +0.000 C 
ATOM     14  C   UNL     1       0.852   2.941  19.995  0.00  0.00    +0.000 C 
ATOM     15  C   UNL     1       1.463   4.341  20.079  0.00  0.00    +0.000 C 
ENDBRANCH   7   9
ENDBRANCH   1   3
BRANCH   1  16
ATOM     16  S   UNL     1       6.665   4.920  14.236  0.00  0.00    +0.000 S 
ATOM     17  O   UNL     1       8.042   5.296  14.015  0.00  0.00    +0.000 OA
ATOM     18  O   UNL     1       5.638   5.924  14.407  0.00  0.00    +0.000 OA
BRANCH  16  23
ATOM     19  C   UNL     1       4.462   3.030  11.412  0.00  0.00    +0.000 A 
ATOM     20  C   UNL     1       5.387   2.104  10.914  0.00  0.00    +0.000 A 
ATOM     21  C   UNL     1       6.685   2.039  11.418  0.00  0.00    +0.000 A 
ATOM     22  C   UNL     1       7.072   2.905  12.433  0.00  0.00    +0.000 A 
ATOM     23  C   UNL     1       6.149   3.824  12.940  0.00  0.00    +0.000 A 
ATOM     24  C   UNL     1       4.846   3.903  12.429  0.00  0.00    +0.000 A 
BRANCH  19  26
ATOM     25  C   UNL     1       2.959   3.868   9.764  0.00  0.00    +0.000 C 
ATOM     26  O   UNL     1       3.229   2.961  10.824  0.00  0.00    +0.000 OA
ENDBRANCH  19  26
ENDBRANCH  16  23
ENDBRANCH   1  16
TORSDOF 5
ENDMDL
MODEL 6
REMARK VINA RESULT:      -7.8      3.244      4.822
REMARK  Name = 
REMARK  6 active torsions:
REMARK  status: ('A' for Active; 'I' for Inactive)
REMARK    1  A    between atoms: C_1  and  O_2
REMARK    2  A    between atoms: O_2  and  C_3
REMARK    3  A    between atoms: C_7  and  S_8
REMARK    4  A    between atoms: S_8  and  N_11
REMARK    5  A    between atoms: N_11  and  C_12
REMARK    6  A    between atoms: C_16  and  C_17
REMARK                            x       y       z     vdW  Elec       q    Type
REMARK                         _______ _______ _______ _____ _____    ______ ____
ROOT
ATOM      1  N   UNL     1       4.829   4.837  16.463  0.00  0.00    +0.000 N 
ATOM      2  H   UNL     1       4.316   4.715  15.592  0.00  0.00    +0.000 HD
ENDROOT
BRANCH   1   3
ATOM      3  C   UNL     1       4.142   5.399  17.571  0.00  0.00    +0.000 A 
ATOM      4  C   UNL     1       3.995   4.619  18.716  0.00  0.00    +0.000 A 
ATOM      5  C   UNL     1       3.248   5.095  19.791  0.00  0.00    +0.000 A 
ATOM      6  C   UNL     1       2.603   6.329  19.693  0.00  0.00    +0.000 A 
ATOM      7  C   UNL     1       2.732   7.111  18.534  0.00  0.00    +0.000 A 
ATOM      8  C   UNL     1       3.565   6.665  17.501  0.00  0.00    +0.000 A 
BRANCH   7   9
ATOM      9  C   UNL     1       2.057   8.439  18.512  0.00  0.00    +0.000 C 
ATOM     10  O   UNL     1       2.097   9.078  17.458  0.00  0.00    +0.000 OA
ATOM     11  N   UNL     1       1.383   8.919  19.620  0.00  0.00    +0.000 N 
ATOM     12  C   UNL     1       1.402   8.499  21.012  0.00  0.00    +0.000 C 
ATOM     13  C   UNL     1      -0.053   8.676  21.403  0.00  0.00    +0.000 C 
ATOM     14  C   UNL     1      -0.411   9.999  20.728  0.00  0.00    +0.000 C 
ATOM     15  C   UNL     1       0.460  10.034  19.471  0.00  0.00    +0.000 C 
ENDBRANCH   7   9
ENDBRANCH   1   3
BRANCH   1  16
ATOM     16  S   UNL     1       6.456   5.183  16.211  0.00  0.00    +0.000 S 
ATOM     17  O   UNL     1       7.252   4.293  17.024  0.00  0.00    +0.000 OA
ATOM     18  O   UNL     1       6.583   6.619  16.338  0.00  0.00    +0.000 OA
BRANCH  16  23
ATOM     19  C   UNL     1       6.042   3.499  12.552  0.00  0.00    +0.000 A 
ATOM     20  C   UNL     1       7.059   4.141  11.835  0.00  0.00    +0.000 A 
ATOM     21  C   UNL     1       7.879   5.092  12.443  0.00  0.00    +0.000 A 
ATOM     22  C   UNL     1       7.689   5.409  13.781  0.00  0.00    +0.000 A 
ATOM     23  C   UNL     1       6.681   4.763  14.503  0.00  0.00    +0.000 A 
ATOM     24  C   UNL     1       5.845   3.816  13.895  0.00  0.00    +0.000 A 
BRANCH  19  26
ATOM     25  C   UNL     1       6.031   1.442  11.349  0.00  0.00    +0.000 C 
ATOM     26  O   UNL     1       5.333   2.586  11.822  0.00  0.00    +0.000 OA
ENDBRANCH  19  26
ENDBRANCH  16  23
ENDBRANCH   1  16
TORSDOF 5
ENDMDL
MODEL 7
REMARK VINA RESULT:      -7.8      2.602      4.476
REMARK  Name = 
REMARK  6 active torsions:
REMARK  status: ('A' for Active; 'I' for Inactive)
REMARK    1  A    between atoms: C_1  and  O_2
REMARK    2  A    between atoms: O_2  and  C_3
REMARK    3  A    between atoms: C_7  and  S_8
REMARK    4  A    between atoms: S_8  and  N_11
REMARK    5  A    between atoms: N_11  and  C_12
REMARK    6  A    between atoms: C_16  and  C_17
REMARK                            x       y       z     vdW  Elec       q    Type
REMARK                         _______ _______ _______ _____ _____    ______ ____
ROOT
ATOM      1  N   UNL     1       6.147   3.962  18.984  0.00  0.00    +0.000 N 
ATOM      2  H   UNL     1       6.454   3.001  19.125  0.00  0.00    +0.000 HD
ENDROOT
BRANCH   1   3
ATOM      3  C   UNL     1       4.760   4.200  18.800  0.00  0.00    +0.000 A 
ATOM      4  C   UNL     1       4.081   3.427  17.860  0.00  0.00    +0.000 A 
ATOM      5  C   UNL     1       2.741   3.689  17.580  0.00  0.00    +0.000 A 
ATOM      6  C   UNL     1       2.102   4.763  18.203  0.00  0.00    +0.000 A 
ATOM      7  C   UNL     1       2.786   5.556  19.137  0.00  0.00    +0.000 A 
ATOM      8  C   UNL     1       4.101   5.221  19.481  0.00  0.00    +0.000 A 
BRANCH   7   9
ATOM      9  C   UNL     1       2.033   6.657  19.800  0.00  0.00    +0.000 C 
ATOM     10  O   UNL     1       1.694   6.486  20.973  0.00  0.00    +0.000 OA
ATOM     11  N   UNL     1       1.756   7.838  19.135  0.00  0.00    +0.000 N 
ATOM     12  C   UNL     1       1.814   8.181  17.724  0.00  0.00    +0.000 C 
ATOM     13  C   UNL     1       2.337   9.605  17.779  0.00  0.00    +0.000 C 
ATOM     14  C   UNL     1       1.556  10.191  18.953  0.00  0.00    +0.000 C 
ATOM     15  C   UNL     1       1.332   9.005  19.894  0.00  0.00    +0.000 C 
ENDBRANCH   7   9
ENDBRANCH   1   3
BRANCH   1  16
ATOM     16  S   UNL     1       7.282   4.887  18.156  0.00  0.00    +0.000 S 
ATOM     17  O   UNL     1       8.483   4.103  17.983  0.00  0.00    +0.000 OA
ATOM     18  O   UNL     1       7.322   6.167  18.829  0.00  0.00    +0.000 OA
BRANCH  16  23
ATOM     19  C   UNL     1       6.020   4.352  14.346  0.00  0.00    +0.000 A 
ATOM     20  C   UNL     1       5.287   5.526  14.130  0.00  0.00    +0.000 A 
ATOM     21  C   UNL     1       5.161   6.491  15.129  0.00  0.00    +0.000 A 
ATOM     22  C   UNL     1       5.771   6.289  16.360  0.00  0.00    +0.000 A 
ATOM     23  C   UNL     1       6.512   5.123  16.576  0.00  0.00    +0.000 A 
ATOM     24  C   UNL     1       6.632   4.143  15.581  0.00  0.00    +0.000 A 
BRANCH  19  26
ATOM     25  C   UNL     1       6.814   3.931  12.139  0.00  0.00    +0.000 C 
ATOM     26  O   UNL     1       6.061   3.511  13.268  0.00  0.00    +0.000 OA
ENDBRANCH  19  26
ENDBRANCH  16  23
ENDBRANCH   1  16
TORSDOF 5
ENDMDL
MODEL 8
REMARK VINA RESULT:      -7.8      2.919      4.444
REMARK  Name = 
REMARK  6 active torsions:
REMARK  status: ('A' for Active; 'I' for Inactive)
REMARK    1  A    between atoms: C_1  and  O_2
REMARK    2  A    between atoms: O_2  and  C_3
REMARK    3  A    between atoms: C_7  and  S_8
REMARK    4  A    between atoms: S_8  and  N_11
REMARK    5  A    between atoms: N_11  and  C_12
REMARK    6  A    between atoms: C_16  and  C_17
REMARK                            x       y       z     vdW  Elec       q    Type
REMARK                         _______ _______ _______ _____ _____    ______ ____
ROOT
ATOM      1  N   UNL     1       5.175   4.149  16.752  0.00  0.00    +0.000 N 
ATOM      2  H   UNL     1       5.219   3.177  16.450  0.00  0.00    +0.000 HD
ENDROOT
BRANCH   1   3
ATOM      3  C   UNL     1       3.945   4.635  17.266  0.00  0.00    +0.000 A 
ATOM      4  C   UNL     1       2.884   3.740  17.384  0.00  0.00    +0.000 A 
ATOM      5  C   UNL     1       1.633   4.194  17.795  0.00  0.00    +0.000 A 
ATOM      6  C   UNL     1       1.434   5.556  18.031  0.00  0.00    +0.000 A 
ATOM      7  C   UNL     1       2.495   6.465  17.896  0.00  0.00    +0.000 A 
ATOM      8  C   UNL     1       3.770   5.981  17.578  0.00  0.00    +0.000 A 
BRANCH   7   9
ATOM      9  C   UNL     1       2.228   7.897  18.208  0.00  0.00    +0.000 C 
ATOM     10  O   UNL     1       2.387   8.715  17.299  0.00  0.00    +0.000 OA
ATOM     11  N   UNL     1       1.787   8.287  19.460  0.00  0.00    +0.000 N 
ATOM     12  C   UNL     1       1.767   7.586  20.732  0.00  0.00    +0.000 C 
ATOM     13  C   UNL     1       0.449   8.057  21.318  0.00  0.00    +0.000 C 
ATOM     14  C   UNL     1       0.446   9.541  20.957  0.00  0.00    +0.000 C 
ATOM     15  C   UNL     1       1.215   9.614  19.636  0.00  0.00    +0.000 C 
ENDBRANCH   7   9
ENDBRANCH   1   3
BRANCH   1  16
ATOM     16  S   UNL     1       6.168   5.153  15.838  0.00  0.00    +0.000 S 
ATOM     17  O   UNL     1       5.339   6.069  15.090  0.00  0.00    +0.000 OA
ATOM     18  O   UNL     1       7.107   4.281  15.165  0.00  0.00    +0.000 OA
BRANCH  16  23
ATOM     19  C   UNL     1       7.982   8.119  17.914  0.00  0.00    +0.000 A 
ATOM     20  C   UNL     1       8.433   7.428  19.046  0.00  0.00    +0.000 A 
ATOM     21  C   UNL     1       8.193   6.063  19.200  0.00  0.00    +0.000 A 
ATOM     22  C   UNL     1       7.497   5.372  18.217  0.00  0.00    +0.000 A 
ATOM     23  C   UNL     1       7.054   6.056  17.080  0.00  0.00    +0.000 A 
ATOM     24  C   UNL     1       7.280   7.430  16.925  0.00  0.00    +0.000 A 
BRANCH  19  26
ATOM     25  C   UNL     1       9.056   9.947  19.002  0.00  0.00    +0.000 C 
ATOM     26  O   UNL     1       8.305   9.447  17.903  0.00  0.00    +0.000 OA
ENDBRANCH  19  26
ENDBRANCH  16  23
ENDBRANCH   1  16
TORSDOF 5
ENDMDL
MODEL 9
REMARK VINA RESULT:      -7.8      2.998      8.028
REMARK  Name = 
REMARK  6 active torsions:
REMARK  status: ('A' for Active; 'I' for Inactive)
REMARK    1  A    between atoms: C_1  and  O_2
REMARK    2  A    between atoms: O_2  and  C_3
REMARK    3  A    between atoms: C_7  and  S_8
REMARK    4  A    between atoms: S_8  and  N_11
REMARK    5  A    between atoms: N_11  and  C_12
REMARK    6  A    between atoms: C_16  and  C_17
REMARK                            x       y       z     vdW  Elec       q    Type
REMARK                         _______ _______ _______ _____ _____    ______ ____
ROOT
ATOM      1  N   UNL     1       1.729   9.509  17.610  0.00  0.00    +0.000 N 
ATOM      2  H   UNL     1       1.221   9.709  16.750  0.00  0.00    +0.000 HD
ENDROOT
BRANCH   1   3
ATOM      3  C   UNL     1       2.387   8.257  17.723  0.00  0.00    +0.000 A 
ATOM      4  C   UNL     1       3.749   8.202  17.431  0.00  0.00    +0.000 A 
ATOM      5  C   UNL     1       4.413   6.978  17.438  0.00  0.00    +0.000 A 
ATOM      6  C   UNL     1       3.699   5.804  17.682  0.00  0.00    +0.000 A 
ATOM      7  C   UNL     1       2.323   5.851  17.959  0.00  0.00    +0.000 A 
ATOM      8  C   UNL     1       1.689   7.096  18.045  0.00  0.00    +0.000 A 
BRANCH   7   9
ATOM      9  C   UNL     1       1.629   4.567  18.257  0.00  0.00    +0.000 C 
ATOM     10  O   UNL     1       1.220   3.907  17.298  0.00  0.00    +0.000 OA
ATOM     11  N   UNL     1       1.480   4.117  19.556  0.00  0.00    +0.000 N 
ATOM     12  C   UNL     1       1.635   4.798  20.831  0.00  0.00    +0.000 C 
ATOM     13  C   UNL     1       2.267   3.712  21.681  0.00  0.00    +0.000 C 
ATOM     14  C   UNL     1       1.479   2.473  21.261  0.00  0.00    +0.000 C 
ATOM     15  C   UNL     1       1.115   2.729  19.797  0.00  0.00    +0.000 C 
ENDBRANCH   7   9
ENDBRANCH   1   3
BRANCH   1  16
ATOM     16  S   UNL     1       1.016  10.216  18.960  0.00  0.00    +0.000 S 
ATOM     17  O   UNL     1       1.665  11.481  19.219  0.00  0.00    +0.000 OA
ATOM     18  O   UNL     1       0.968   9.184  19.972  0.00  0.00    +0.000 OA
BRANCH  16  23
ATOM     19  C   UNL     1      -2.461  10.075  16.888  0.00  0.00    +0.000 A 
ATOM     20  C   UNL     1      -3.234  11.015  17.582  0.00  0.00    +0.000 A 
ATOM     21  C   UNL     1      -2.720  11.699  18.683  0.00  0.00    +0.000 A 
ATOM     22  C   UNL     1      -1.420  11.449  19.102  0.00  0.00    +0.000 A 
ATOM     23  C   UNL     1      -0.642  10.519  18.407  0.00  0.00    +0.000 A 
ATOM     24  C   UNL     1      -1.156   9.819  17.307  0.00  0.00    +0.000 A 
BRANCH  19  26
ATOM     25  C   UNL     1      -3.511  10.353  14.767  0.00  0.00    +0.000 C 
ATOM     26  O   UNL     1      -3.100   9.499  15.826  0.00  0.00    +0.000 OA
ENDBRANCH  19  26
ENDBRANCH  16  23
ENDBRANCH   1  16
TORSDOF 5
ENDMDL
