MODEL 1
REMARK VINA RESULT:      -7.5      0.000      0.000
REMARK  Name = 
REMARK  2 active torsions:
REMARK  status: ('A' for Active; 'I' for Inactive)
REMARK    1  A    between atoms: C_2  and  C_3
REMARK    2  A    between atoms: C_3  and  N_4
REMARK                            x       y       z     vdW  Elec       q    Type
REMARK                         _______ _______ _______ _____ _____    ______ ____
ROOT
ATOM      1  C   UNL     1       6.357   4.992  18.082  0.00  0.00    +0.000 C 
ENDROOT
BRANCH   1   2
ATOM      2  N   UNL     1       4.924   4.752  18.237  0.00  0.00    +0.000 N 
ATOM      3  S   UNL     1       4.096   5.520  19.553  0.00  0.00    +0.000 S 
ATOM      4  C   UNL     1       2.742   4.393  19.412  0.00  0.00    +0.000 A 
ATOM      5  C   UNL     1       1.559   4.374  20.133  0.00  0.00    +0.000 A 
ATOM      6  C   UNL     1       0.596   3.409  19.817  0.00  0.00    +0.000 A 
ATOM      7  C   UNL     1       0.826   2.472  18.795  0.00  0.00    +0.000 A 
ATOM      8  C   UNL     1       2.031   2.477  18.093  0.00  0.00    +0.000 A 
ATOM      9  C   UNL     1       2.974   3.439  18.424  0.00  0.00    +0.000 A 
ATOM     10  C   UNL     1       4.308   3.579  17.821  0.00  0.00    +0.000 A 
ATOM     11  O   UNL     1       4.782   2.734  17.076  0.00  0.00    +0.000 OA
ENDBRANCH   1   2
BRANCH   1  13
ATOM     12  O   UNL     1       7.474   6.482  16.568  0.00  0.00    +0.000 OA
ATOM     13  C   UNL     1       6.818   5.446  16.688  0.00  0.00    +0.000 C 
ATOM     14  N   UNL     1       6.513   4.560  15.682  0.00  0.00    +0.000 N 
ATOM     15  C   UNL     1       6.947   4.711  14.398  0.00  0.00    +0.000 A 
ATOM     16  N   UNL     1       7.856   5.517  13.915  0.00  0.00    +0.000 NA
ATOM     17  C   UNL     1       7.938   5.343  12.548  0.00  0.00    +0.000 A 
ATOM     18  C   UNL     1       7.078   4.408  12.014  0.00  0.00    +0.000 A 
ATOM     19  S   UNL     1       6.178   3.674  13.277  0.00  0.00    +0.000 S 
ATOM     20  H   UNL     1       5.828   3.823  15.840  0.00  0.00    +0.000 HD
ENDBRANCH   1  13
TORSDOF 2
ENDMDL
MODEL 2
REMARK VINA RESULT:      -7.2      1.136      1.136
REMARK  Name = 
REMARK  2 active torsions:
REMARK  status: ('A' for Active; 'I' for Inactive)
REMARK    1  A    between atoms: C_2  and  C_3
REMARK    2  A    between atoms: C_3  and  N_4
REMARK                            x       y       z     vdW  Elec       q    Type
REMARK                         _______ _______ _______ _____ _____    ______ ____
ROOT
ATOM      1  C   UNL     1       6.503   5.351  18.394  0.00  0.00    +0.000 C 
ENDROOT
BRANCH   1   2
ATOM      2  N   UNL     1       5.123   4.916  18.597  0.00  0.00    +0.000 N 
ATOM      3  S   UNL     1       3.877   6.120  18.654  0.00  0.00    +0.000 S 
ATOM      4  C   UNL     1       2.762   4.989  19.430  0.00  0.00    +0.000 A 
ATOM      5  C   UNL     1       1.438   5.190  19.782  0.00  0.00    +0.000 A 
ATOM      6  C   UNL     1       0.724   4.128  20.347  0.00  0.00    +0.000 A 
ATOM      7  C   UNL     1       1.340   2.882  20.561  0.00  0.00    +0.000 A 
ATOM      8  C   UNL     1       2.682   2.694  20.231  0.00  0.00    +0.000 A 
ATOM      9  C   UNL     1       3.373   3.761  19.676  0.00  0.00    +0.000 A 
ATOM     10  C   UNL     1       4.793   3.763  19.298  0.00  0.00    +0.000 A 
ATOM     11  O   UNL     1       5.554   2.856  19.605  0.00  0.00    +0.000 OA
ENDBRANCH   1   2
BRANCH   1  13
ATOM     12  O   UNL     1       7.573   6.685  16.709  0.00  0.00    +0.000 OA
ATOM     13  C   UNL     1       6.900   5.680  16.946  0.00  0.00    +0.000 C 
ATOM     14  N   UNL     1       6.522   4.726  16.031  0.00  0.00    +0.000 N 
ATOM     15  C   UNL     1       6.891   4.762  14.719  0.00  0.00    +0.000 A 
ATOM     16  N   UNL     1       7.792   5.502  14.127  0.00  0.00    +0.000 NA
ATOM     17  C   UNL     1       7.796   5.218  12.776  0.00  0.00    +0.000 A 
ATOM     18  C   UNL     1       6.888   4.267  12.364  0.00  0.00    +0.000 A 
ATOM     19  S   UNL     1       6.039   3.661  13.726  0.00  0.00    +0.000 S 
ATOM     20  H   UNL     1       5.829   4.023  16.283  0.00  0.00    +0.000 HD
ENDBRANCH   1  13
TORSDOF 2
ENDMDL
MODEL 3
REMARK VINA RESULT:      -7.0      1.430      1.636
REMARK  Name = 
REMARK  2 active torsions:
REMARK  status: ('A' for Active; 'I' for Inactive)
REMARK    1  A    between atoms: C_2  and  C_3
REMARK    2  A    between atoms: C_3  and  N_4
REMARK                            x       y       z     vdW  Elec       q    Type
REMARK                         _______ _______ _______ _____ _____    ______ ____
ROOT
ATOM      1  C   UNL     1       6.606   5.937  18.426  0.00  0.00    +0.000 C 
ENDROOT
BRANCH   1   2
ATOM      2  N   UNL     1       5.321   5.296  18.695  0.00  0.00    +0.000 N 
ATOM      3  S   UNL     1       5.317   3.647  19.232  0.00  0.00    +0.000 S 
ATOM      4  C   UNL     1       3.612   3.468  18.798  0.00  0.00    +0.000 A 
ATOM      5  C   UNL     1       2.789   2.369  18.980  0.00  0.00    +0.000 A 
ATOM      6  C   UNL     1       1.446   2.467  18.601  0.00  0.00    +0.000 A 
ATOM      7  C   UNL     1       0.942   3.654  18.040  0.00  0.00    +0.000 A 
ATOM      8  C   UNL     1       1.782   4.746  17.833  0.00  0.00    +0.000 A 
ATOM      9  C   UNL     1       3.112   4.628  18.211  0.00  0.00    +0.000 A 
ATOM     10  C   UNL     1       4.150   5.655  18.041  0.00  0.00    +0.000 A 
ATOM     11  O   UNL     1       3.967   6.666  17.379  0.00  0.00    +0.000 OA
ENDBRANCH   1   2
BRANCH   1  13
ATOM     12  O   UNL     1       7.718   7.000  16.584  0.00  0.00    +0.000 OA
ATOM     13  C   UNL     1       6.997   6.069  16.946  0.00  0.00    +0.000 C 
ATOM     14  N   UNL     1       6.553   5.036  16.155  0.00  0.00    +0.000 N 
ATOM     15  C   UNL     1       6.901   4.896  14.844  0.00  0.00    +0.000 A 
ATOM     16  N   UNL     1       7.830   5.509  14.159  0.00  0.00    +0.000 NA
ATOM     17  C   UNL     1       7.797   5.067  12.851  0.00  0.00    +0.000 A 
ATOM     18  C   UNL     1       6.832   4.126  12.565  0.00  0.00    +0.000 A 
ATOM     19  S   UNL     1       5.975   3.734  13.998  0.00  0.00    +0.000 S 
ATOM     20  H   UNL     1       5.827   4.407  16.496  0.00  0.00    +0.000 HD
ENDBRANCH   1  13
TORSDOF 2
ENDMDL
MODEL 4
REMARK VINA RESULT:      -6.9      1.973      6.935
REMARK  Name = 
REMARK  2 active torsions:
REMARK  status: ('A' for Active; 'I' for Inactive)
REMARK    1  A    between atoms: C_2  and  C_3
REMARK    2  A    between atoms: C_3  and  N_4
REMARK                            x       y       z     vdW  Elec       q    Type
REMARK                         _______ _______ _______ _____ _____    ______ ____
ROOT
ATOM      1  C   UNL     1       5.493   5.776  18.098  0.00  0.00    +0.000 C 
ENDROOT
BRANCH   1   2
ATOM      2  N   UNL     1       5.605   5.536  16.661  0.00  0.00    +0.000 N 
ATOM      3  S   UNL     1       4.632   4.287  15.955  0.00  0.00    +0.000 S 
ATOM      4  C   UNL     1       5.663   4.238  14.520  0.00  0.00    +0.000 A 
ATOM      5  C   UNL     1       5.510   3.473  13.375  0.00  0.00    +0.000 A 
ATOM      6  C   UNL     1       6.430   3.633  12.333  0.00  0.00    +0.000 A 
ATOM      7  C   UNL     1       7.493   4.546  12.447  0.00  0.00    +0.000 A 
ATOM      8  C   UNL     1       7.658   5.291  13.613  0.00  0.00    +0.000 A 
ATOM      9  C   UNL     1       6.739   5.116  14.637  0.00  0.00    +0.000 A 
ATOM     10  C   UNL     1       6.769   5.785  15.945  0.00  0.00    +0.000 A 
ATOM     11  O   UNL     1       7.727   6.443  16.321  0.00  0.00    +0.000 OA
ENDBRANCH   1   2
BRANCH   1  13
ATOM     12  O   UNL     1       5.647   3.688  19.271  0.00  0.00    +0.000 OA
ATOM     13  C   UNL     1       4.918   4.621  18.933  0.00  0.00    +0.000 C 
ATOM     14  N   UNL     1       3.608   4.800  19.308  0.00  0.00    +0.000 N 
ATOM     15  C   UNL     1       2.952   3.959  20.157  0.00  0.00    +0.000 A 
ATOM     16  N   UNL     1       3.428   3.013  20.925  0.00  0.00    +0.000 NA
ATOM     17  C   UNL     1       2.385   2.398  21.588  0.00  0.00    +0.000 A 
ATOM     18  C   UNL     1       1.128   2.885  21.303  0.00  0.00    +0.000 A 
ATOM     19  S   UNL     1       1.261   4.204  20.213  0.00  0.00    +0.000 S 
ATOM     20  H   UNL     1       3.036   5.507  18.847  0.00  0.00    +0.000 HD
ENDBRANCH   1  13
TORSDOF 2
ENDMDL
MODEL 5
REMARK VINA RESULT:      -6.8      1.911      7.013
REMARK  Name = 
REMARK  2 active torsions:
REMARK  status: ('A' for Active; 'I' for Inactive)
REMARK    1  A    between atoms: C_2  and  C_3
REMARK    2  A    between atoms: C_3  and  N_4
REMARK                            x       y       z     vdW  Elec       q    Type
REMARK                         _______ _______ _______ _____ _____    ______ ____
ROOT
ATOM      1  C   UNL     1       5.875   5.131  17.969  0.00  0.00    +0.000 C 
ENDROOT
BRANCH   1   2
ATOM      2  N   UNL     1       5.906   5.037  16.512  0.00  0.00    +0.000 N 
ATOM      3  S   UNL     1       5.109   3.696  15.753  0.00  0.00    +0.000 S 
ATOM      4  C   UNL     1       6.009   3.956  14.254  0.00  0.00    +0.000 A 
ATOM      5  C   UNL     1       5.895   3.275  13.053  0.00  0.00    +0.000 A 
ATOM      6  C   UNL     1       6.682   3.687  11.972  0.00  0.00    +0.000 A 
ATOM      7  C   UNL     1       7.576   4.764  12.103  0.00  0.00    +0.000 A 
ATOM      8  C   UNL     1       7.707   5.426  13.322  0.00  0.00    +0.000 A 
ATOM      9  C   UNL     1       6.921   5.001  14.383  0.00  0.00    +0.000 A 
ATOM     10  C   UNL     1       6.944   5.552  15.746  0.00  0.00    +0.000 A 
ATOM     11  O   UNL     1       7.801   6.339  16.119  0.00  0.00    +0.000 OA
ENDBRANCH   1   2
BRANCH   1  13
ATOM     12  O   UNL     1       3.732   6.128  18.385  0.00  0.00    +0.000 OA
ATOM     13  C   UNL     1       4.480   5.176  18.613  0.00  0.00    +0.000 C 
ATOM     14  N   UNL     1       4.163   4.054  19.341  0.00  0.00    +0.000 N 
ATOM     15  C   UNL     1       2.929   3.839  19.881  0.00  0.00    +0.000 A 
ATOM     16  N   UNL     1       1.803   4.465  19.662  0.00  0.00    +0.000 NA
ATOM     17  C   UNL     1       0.818   3.922  20.461  0.00  0.00    +0.000 A 
ATOM     18  C   UNL     1       1.219   2.891  21.283  0.00  0.00    +0.000 A 
ATOM     19  S   UNL     1       2.875   2.548  21.001  0.00  0.00    +0.000 S 
ATOM     20  H   UNL     1       4.894   3.401  19.618  0.00  0.00    +0.000 HD
ENDBRANCH   1  13
TORSDOF 2
ENDMDL
MODEL 6
REMARK VINA RESULT:      -6.7      3.686      7.211
REMARK  Name = 
REMARK  2 active torsions:
REMARK  status: ('A' for Active; 'I' for Inactive)
REMARK    1  A    between atoms: C_2  and  C_3
REMARK    2  A    between atoms: C_3  and  N_4
REMARK                            x       y       z     vdW  Elec       q    Type
REMARK                         _______ _______ _______ _____ _____    ______ ____
ROOT
ATOM      1  C   UNL     1       2.857   5.364  19.989  0.00  0.00    +0.000 C 
ENDROOT
BRANCH   1   2
ATOM      2  N   UNL     1       3.867   4.876  19.053  0.00  0.00    +0.000 N 
ATOM      3  S   UNL     1       5.495   5.449  19.221  0.00  0.00    +0.000 S 
ATOM      4  C   UNL     1       5.889   4.936  17.576  0.00  0.00    +0.000 A 
ATOM      5  C   UNL     1       7.109   5.002  16.923  0.00  0.00    +0.000 A 
ATOM      6  C   UNL     1       7.204   4.488  15.625  0.00  0.00    +0.000 A 
ATOM      7  C   UNL     1       6.083   3.922  14.993  0.00  0.00    +0.000 A 
ATOM      8  C   UNL     1       4.851   3.885  15.644  0.00  0.00    +0.000 A 
ATOM      9  C   UNL     1       4.776   4.404  16.929  0.00  0.00    +0.000 A 
ATOM     10  C   UNL     1       3.564   4.483  17.756  0.00  0.00    +0.000 A 
ATOM     11  O   UNL     1       2.450   4.249  17.309  0.00  0.00    +0.000 OA
ENDBRANCH   1   2
BRANCH   1  13
ATOM     12  O   UNL     1       2.477   7.325  18.659  0.00  0.00    +0.000 OA
ATOM     13  C   UNL     1       2.380   6.809  19.773  0.00  0.00    +0.000 C 
ATOM     14  N   UNL     1       1.784   7.372  20.876  0.00  0.00    +0.000 N 
ATOM     15  C   UNL     1       1.177   8.593  20.855  0.00  0.00    +0.000 A 
ATOM     16  N   UNL     1       0.841   9.340  19.835  0.00  0.00    +0.000 NA
ATOM     17  C   UNL     1       0.279  10.513  20.296  0.00  0.00    +0.000 A 
ATOM     18  C   UNL     1       0.205  10.640  21.666  0.00  0.00    +0.000 A 
ATOM     19  S   UNL     1       0.803   9.211  22.405  0.00  0.00    +0.000 S 
ATOM     20  H   UNL     1       1.899   6.944  21.794  0.00  0.00    +0.000 HD
ENDBRANCH   1  13
TORSDOF 2
ENDMDL
MODEL 7
REMARK VINA RESULT:      -6.6      3.028      6.259
REMARK  Name = 
REMARK  2 active torsions:
REMARK  status: ('A' for Active; 'I' for Inactive)
REMARK    1  A    between atoms: C_2  and  C_3
REMARK    2  A    between atoms: C_3  and  N_4
REMARK                            x       y       z     vdW  Elec       q    Type
REMARK                         _______ _______ _______ _____ _____    ______ ____
ROOT
ATOM      1  C   UNL     1       3.345   3.898  19.956  0.00  0.00    +0.000 C 
ENDROOT
BRANCH   1   2
ATOM      2  N   UNL     1       4.305   3.882  18.855  0.00  0.00    +0.000 N 
ATOM      3  S   UNL     1       5.816   4.708  19.065  0.00  0.00    +0.000 S 
ATOM      4  C   UNL     1       6.093   4.730  17.320  0.00  0.00    +0.000 A 
ATOM      5  C   UNL     1       7.195   5.207  16.629  0.00  0.00    +0.000 A 
ATOM      6  C   UNL     1       7.223   5.077  15.236  0.00  0.00    +0.000 A 
ATOM      7  C   UNL     1       6.150   4.481  14.549  0.00  0.00    +0.000 A 
ATOM      8  C   UNL     1       5.031   4.029  15.247  0.00  0.00    +0.000 A 
ATOM      9  C   UNL     1       5.022   4.171  16.627  0.00  0.00    +0.000 A 
ATOM     10  C   UNL     1       3.922   3.787  17.524  0.00  0.00    +0.000 A 
ATOM     11  O   UNL     1       2.821   3.458  17.106  0.00  0.00    +0.000 OA
ENDBRANCH   1   2
BRANCH   1  13
ATOM     12  O   UNL     1       1.759   5.310  21.074  0.00  0.00    +0.000 OA
ATOM     13  C   UNL     1       2.515   5.182  20.109  0.00  0.00    +0.000 C 
ATOM     14  N   UNL     1       2.780   6.137  19.157  0.00  0.00    +0.000 N 
ATOM     15  C   UNL     1       2.249   7.393  19.190  0.00  0.00    +0.000 A 
ATOM     16  N   UNL     1       1.617   8.004  20.158  0.00  0.00    +0.000 NA
ATOM     17  C   UNL     1       1.231   9.257  19.727  0.00  0.00    +0.000 A 
ATOM     18  C   UNL     1       1.572   9.573  18.430  0.00  0.00    +0.000 A 
ATOM     19  S   UNL     1       2.464   8.278  17.744  0.00  0.00    +0.000 S 
ATOM     20  H   UNL     1       3.285   5.886  18.308  0.00  0.00    +0.000 HD
ENDBRANCH   1  13
TORSDOF 2
ENDMDL
MODEL 8
REMARK VINA RESULT:      -6.6      3.130      6.936
REMARK  Name = 
REMARK  2 active torsions:
REMARK  status: ('A' for Active; 'I' for Inactive)
REMARK    1  A    between atoms: C_2  and  C_3
REMARK    2  A    between atoms: C_3  and  N_4
REMARK                            x       y       z     vdW  Elec       q    Type
REMARK                         _______ _______ _______ _____ _____    ______ ____
ROOT
ATOM      1  C   UNL     1       3.512   4.169  19.799  0.00  0.00    +0.000 C 
ENDROOT
BRANCH   1   2
ATOM      2  N   UNL     1       4.169   4.508  18.538  0.00  0.00    +0.000 N 
ATOM      3  S   UNL     1       3.475   3.919  17.062  0.00  0.00    +0.000 S 
ATOM      4  C   UNL     1       4.985   4.208  16.190  0.00  0.00    +0.000 A 
ATOM      5  C   UNL     1       5.248   4.028  14.842  0.00  0.00    +0.000 A 
ATOM      6  C   UNL     1       6.515   4.369  14.354  0.00  0.00    +0.000 A 
ATOM      7  C   UNL     1       7.503   4.878  15.215  0.00  0.00    +0.000 A 
ATOM      8  C   UNL     1       7.241   5.029  16.575  0.00  0.00    +0.000 A 
ATOM      9  C   UNL     1       5.982   4.681  17.040  0.00  0.00    +0.000 A 
ATOM     10  C   UNL     1       5.534   4.739  18.440  0.00  0.00    +0.000 A 
ATOM     11  O   UNL     1       6.306   4.942  19.365  0.00  0.00    +0.000 OA
ENDBRANCH   1   2
BRANCH   1  13
ATOM     12  O   UNL     1       1.835   4.942  21.332  0.00  0.00    +0.000 OA
ATOM     13  C   UNL     1       2.518   5.208  20.342  0.00  0.00    +0.000 C 
ATOM     14  N   UNL     1       2.561   6.418  19.691  0.00  0.00    +0.000 N 
ATOM     15  C   UNL     1       1.856   7.511  20.099  0.00  0.00    +0.000 A 
ATOM     16  N   UNL     1       1.224   7.723  21.224  0.00  0.00    +0.000 NA
ATOM     17  C   UNL     1       0.624   8.965  21.182  0.00  0.00    +0.000 A 
ATOM     18  C   UNL     1       0.806   9.675  20.016  0.00  0.00    +0.000 A 
ATOM     19  S   UNL     1       1.818   8.782  18.956  0.00  0.00    +0.000 S 
ATOM     20  H   UNL     1       3.024   6.495  18.786  0.00  0.00    +0.000 HD
ENDBRANCH   1  13
TORSDOF 2
ENDMDL
MODEL 9
REMARK VINA RESULT:      -6.5      4.098      5.209
REMARK  Name = 
REMARK  2 active torsions:
REMARK  status: ('A' for Active; 'I' for Inactive)
REMARK    1  A    between atoms: C_2  and  C_3
REMARK    2  A    between atoms: C_3  and  N_4
REMARK                            x       y       z     vdW  Elec       q    Type
REMARK                         _______ _______ _______ _____ _____    ______ ____
ROOT
ATOM      1  C   UNL     1       6.941   6.916  16.809  0.00  0.00    +0.000 C 
ENDROOT
BRANCH   1   2
ATOM      2  N   UNL     1       5.913   6.022  17.334  0.00  0.00    +0.000 N 
ATOM      3  S   UNL     1       6.139   4.311  17.161  0.00  0.00    +0.000 S 
ATOM      4  C   UNL     1       4.422   4.013  17.456  0.00  0.00    +0.000 A 
ATOM      5  C   UNL     1       3.761   2.798  17.542  0.00  0.00    +0.000 A 
ATOM      6  C   UNL     1       2.393   2.797  17.834  0.00  0.00    +0.000 A 
ATOM      7  C   UNL     1       1.699   4.005  18.029  0.00  0.00    +0.000 A 
ATOM      8  C   UNL     1       2.363   5.225  17.912  0.00  0.00    +0.000 A 
ATOM      9  C   UNL     1       3.719   5.205  17.618  0.00  0.00    +0.000 A 
ATOM     10  C   UNL     1       4.575   6.384  17.424  0.00  0.00    +0.000 A 
ATOM     11  O   UNL     1       4.120   7.515  17.333  0.00  0.00    +0.000 OA
ENDBRANCH   1   2
BRANCH   1  13
ATOM     12  O   UNL     1       8.208   7.195  18.828  0.00  0.00    +0.000 OA
ATOM     13  C   UNL     1       7.706   7.749  17.849  0.00  0.00    +0.000 C 
ATOM     14  N   UNL     1       7.834   9.078  17.519  0.00  0.00    +0.000 N 
ATOM     15  C   UNL     1       8.586   9.958  18.240  0.00  0.00    +0.000 A 
ATOM     16  N   UNL     1       9.466   9.727  19.179  0.00  0.00    +0.000 NA
ATOM     17  C   UNL     1       9.956  10.929  19.648  0.00  0.00    +0.000 A 
ATOM     18  C   UNL     1       9.430  12.058  19.057  0.00  0.00    +0.000 A 
ATOM     19  S   UNL     1       8.328  11.596  17.826  0.00  0.00    +0.000 S 
ATOM     20  H   UNL     1       7.248   9.481  16.789  0.00  0.00    +0.000 HD
ENDBRANCH   1  13
TORSDOF 2
ENDMDL
