MODEL 1
REMARK VINA RESULT:      -6.4      0.000      0.000
REMARK  Name = 
REMARK  3 active torsions:
REMARK  status: ('A' for Active; 'I' for Inactive)
REMARK    1  A    between atoms: C_1  and  N_2
REMARK    2  A    between atoms: N_2  and  C_14
REMARK    3  A    between atoms: C_3  and  C_5
REMARK                            x       y       z     vdW  Elec       q    Type
REMARK                         _______ _______ _______ _____ _____    ______ ____
ROOT
ATOM      1  C   UNL     1       3.033   5.690  17.673  0.00  0.00    +0.000 C 
ATOM      2  N   UNL     1       3.545   4.501  18.363  0.00  0.00    +0.000 N 
ATOM      3  C   UNL     1       4.795   3.912  18.064  0.00  0.00    +0.000 C 
ATOM      4  O   UNL     1       5.325   2.996  18.690  0.00  0.00    +0.000 OA
ENDROOT
BRANCH   3   5
ATOM      5  C   UNL     1       5.589   4.356  16.878  0.00  0.00    +0.000 A 
ATOM      6  C   UNL     1       6.587   5.319  17.080  0.00  0.00    +0.000 A 
ATOM      7  C   UNL     1       7.409   5.738  16.027  0.00  0.00    +0.000 A 
ATOM      8  C   UNL     1       7.218   5.198  14.740  0.00  0.00    +0.000 A 
ATOM      9  N   UNL     1       7.924   5.544  13.601  0.00  0.00    +0.000 NA
ATOM     10  C   UNL     1       7.484   4.844  12.581  0.00  0.00    +0.000 A 
ATOM     11  S   UNL     1       6.224   3.733  12.908  0.00  0.00    +0.000 S 
ATOM     12  C   UNL     1       6.241   4.216  14.563  0.00  0.00    +0.000 A 
ATOM     13  C   UNL     1       5.447   3.748  15.624  0.00  0.00    +0.000 A 
ENDBRANCH   3   5
BRANCH   2  14
ATOM     14  C   UNL     1       2.701   3.976  19.421  0.00  0.00    +0.000 A 
ATOM     15  C   UNL     1       2.873   4.325  20.769  0.00  0.00    +0.000 A 
ATOM     16  C   UNL     1       2.064   3.788  21.779  0.00  0.00    +0.000 A 
ATOM     17  C   UNL     1       1.054   2.886  21.462  0.00  0.00    +0.000 A 
ATOM     18  C   UNL     1       0.846   2.537  20.135  0.00  0.00    +0.000 A 
ATOM     19  C   UNL     1       1.653   3.081  19.127  0.00  0.00    +0.000 A 
ENDBRANCH   2  14
TORSDOF 2
ENDMDL
MODEL 2
REMARK VINA RESULT:      -6.4      0.869      1.152
REMARK  Name = 
REMARK  3 active torsions:
REMARK  status: ('A' for Active; 'I' for Inactive)
REMARK    1  A    between atoms: C_1  and  N_2
REMARK    2  A    between atoms: N_2  and  C_14
REMARK    3  A    between atoms: C_3  and  C_5
REMARK                            x       y       z     vdW  Elec       q    Type
REMARK                         _______ _______ _______ _____ _____    ______ ____
ROOT
ATOM      1  C   UNL     1       4.374   5.740  18.732  0.00  0.00    +0.000 C 
ATOM      2  N   UNL     1       3.963   4.342  18.569  0.00  0.00    +0.000 N 
ATOM      3  C   UNL     1       4.496   3.490  17.574  0.00  0.00    +0.000 C 
ATOM      4  O   UNL     1       4.281   2.285  17.470  0.00  0.00    +0.000 OA
ENDROOT
BRANCH   3   5
ATOM      5  C   UNL     1       5.379   4.030  16.495  0.00  0.00    +0.000 A 
ATOM      6  C   UNL     1       6.372   4.950  16.858  0.00  0.00    +0.000 A 
ATOM      7  C   UNL     1       7.272   5.451  15.909  0.00  0.00    +0.000 A 
ATOM      8  C   UNL     1       7.168   5.039  14.567  0.00  0.00    +0.000 A 
ATOM      9  N   UNL     1       7.957   5.477  13.518  0.00  0.00    +0.000 NA
ATOM     10  C   UNL     1       7.583   4.886  12.408  0.00  0.00    +0.000 A 
ATOM     11  S   UNL     1       6.289   3.773  12.537  0.00  0.00    +0.000 S 
ATOM     12  C   UNL     1       6.194   4.097  14.228  0.00  0.00    +0.000 A 
ATOM     13  C   UNL     1       5.320   3.546  15.181  0.00  0.00    +0.000 A 
ENDBRANCH   3   5
BRANCH   2  14
ATOM     14  C   UNL     1       2.989   3.856  19.529  0.00  0.00    +0.000 A 
ATOM     15  C   UNL     1       1.622   4.156  19.437  0.00  0.00    +0.000 A 
ATOM     16  C   UNL     1       0.701   3.698  20.389  0.00  0.00    +0.000 A 
ATOM     17  C   UNL     1       1.128   2.921  21.460  0.00  0.00    +0.000 A 
ATOM     18  C   UNL     1       2.472   2.590  21.567  0.00  0.00    +0.000 A 
ATOM     19  C   UNL     1       3.389   3.045  20.610  0.00  0.00    +0.000 A 
ENDBRANCH   2  14
TORSDOF 2
ENDMDL
MODEL 3
REMARK VINA RESULT:      -6.2      1.165      1.645
REMARK  Name = 
REMARK  3 active torsions:
REMARK  status: ('A' for Active; 'I' for Inactive)
REMARK    1  A    between atoms: C_1  and  N_2
REMARK    2  A    between atoms: N_2  and  C_14
REMARK    3  A    between atoms: C_3  and  C_5
REMARK                            x       y       z     vdW  Elec       q    Type
REMARK                         _______ _______ _______ _____ _____    ______ ____
ROOT
ATOM      1  C   UNL     1       4.343   2.133  17.661  0.00  0.00    +0.000 C 
ATOM      2  N   UNL     1       3.725   3.358  18.177  0.00  0.00    +0.000 N 
ATOM      3  C   UNL     1       3.937   4.633  17.601  0.00  0.00    +0.000 C 
ATOM      4  O   UNL     1       3.352   5.668  17.913  0.00  0.00    +0.000 OA
ENDROOT
BRANCH   3   5
ATOM      5  C   UNL     1       4.970   4.832  16.540  0.00  0.00    +0.000 A 
ATOM      6  C   UNL     1       6.084   5.626  16.849  0.00  0.00    +0.000 A 
ATOM      7  C   UNL     1       7.120   5.806  15.924  0.00  0.00    +0.000 A 
ATOM      8  C   UNL     1       7.034   5.197  14.657  0.00  0.00    +0.000 A 
ATOM      9  N   UNL     1       7.957   5.319  13.633  0.00  0.00    +0.000 NA
ATOM     10  C   UNL     1       7.559   4.618  12.596  0.00  0.00    +0.000 A 
ATOM     11  S   UNL     1       6.084   3.769  12.773  0.00  0.00    +0.000 S 
ATOM     12  C   UNL     1       5.934   4.383  14.377  0.00  0.00    +0.000 A 
ATOM     13  C   UNL     1       4.915   4.151  15.317  0.00  0.00    +0.000 A 
ENDBRANCH   3   5
BRANCH   2  14
ATOM     14  C   UNL     1       2.832   3.185  19.309  0.00  0.00    +0.000 A 
ATOM     15  C   UNL     1       1.451   3.412  19.223  0.00  0.00    +0.000 A 
ATOM     16  C   UNL     1       0.609   3.264  20.333  0.00  0.00    +0.000 A 
ATOM     17  C   UNL     1       1.132   2.879  21.562  0.00  0.00    +0.000 A 
ATOM     18  C   UNL     1       2.492   2.626  21.674  0.00  0.00    +0.000 A 
ATOM     19  C   UNL     1       3.330   2.770  20.559  0.00  0.00    +0.000 A 
ENDBRANCH   2  14
TORSDOF 2
ENDMDL
MODEL 4
REMARK VINA RESULT:      -6.1      1.103      1.276
REMARK  Name = 
REMARK  3 active torsions:
REMARK  status: ('A' for Active; 'I' for Inactive)
REMARK    1  A    between atoms: C_1  and  N_2
REMARK    2  A    between atoms: N_2  and  C_14
REMARK    3  A    between atoms: C_3  and  C_5
REMARK                            x       y       z     vdW  Elec       q    Type
REMARK                         _______ _______ _______ _____ _____    ______ ____
ROOT
ATOM      1  C   UNL     1       3.771   2.330  17.307  0.00  0.00    +0.000 C 
ATOM      2  N   UNL     1       3.629   3.478  18.209  0.00  0.00    +0.000 N 
ATOM      3  C   UNL     1       4.204   4.743  17.948  0.00  0.00    +0.000 C 
ATOM      4  O   UNL     1       4.015   5.766  18.602  0.00  0.00    +0.000 OA
ENDROOT
BRANCH   3   5
ATOM      5  C   UNL     1       5.165   4.930  16.818  0.00  0.00    +0.000 A 
ATOM      6  C   UNL     1       6.274   5.761  17.031  0.00  0.00    +0.000 A 
ATOM      7  C   UNL     1       7.246   5.934  16.038  0.00  0.00    +0.000 A 
ATOM      8  C   UNL     1       7.099   5.278  14.800  0.00  0.00    +0.000 A 
ATOM      9  N   UNL     1       7.955   5.386  13.718  0.00  0.00    +0.000 NA
ATOM     10  C   UNL     1       7.513   4.639  12.732  0.00  0.00    +0.000 A 
ATOM     11  S   UNL     1       6.075   3.761  13.028  0.00  0.00    +0.000 S 
ATOM     12  C   UNL     1       6.007   4.428  14.617  0.00  0.00    +0.000 A 
ATOM     13  C   UNL     1       5.053   4.204  15.625  0.00  0.00    +0.000 A 
ENDBRANCH   3   5
BRANCH   2  14
ATOM     14  C   UNL     1       2.814   3.253  19.390  0.00  0.00    +0.000 A 
ATOM     15  C   UNL     1       3.348   2.788  20.600  0.00  0.00    +0.000 A 
ATOM     16  C   UNL     1       2.541   2.554  21.721  0.00  0.00    +0.000 A 
ATOM     17  C   UNL     1       1.171   2.784  21.658  0.00  0.00    +0.000 A 
ATOM     18  C   UNL     1       0.615   3.264  20.480  0.00  0.00    +0.000 A 
ATOM     19  C   UNL     1       1.427   3.504  19.363  0.00  0.00    +0.000 A 
ENDBRANCH   2  14
TORSDOF 2
ENDMDL
MODEL 5
REMARK VINA RESULT:      -5.9      4.992      6.903
REMARK  Name = 
REMARK  3 active torsions:
REMARK  status: ('A' for Active; 'I' for Inactive)
REMARK    1  A    between atoms: C_1  and  N_2
REMARK    2  A    between atoms: N_2  and  C_14
REMARK    3  A    between atoms: C_3  and  C_5
REMARK                            x       y       z     vdW  Elec       q    Type
REMARK                         _______ _______ _______ _____ _____    ______ ____
ROOT
ATOM      1  C   UNL     1       1.078   5.188  20.459  0.00  0.00    +0.000 C 
ATOM      2  N   UNL     1       2.200   5.188  19.513  0.00  0.00    +0.000 N 
ATOM      3  C   UNL     1       2.765   6.372  18.985  0.00  0.00    +0.000 C 
ATOM      4  O   UNL     1       3.777   6.436  18.291  0.00  0.00    +0.000 OA
ENDROOT
BRANCH   3   5
ATOM      5  C   UNL     1       2.116   7.699  19.212  0.00  0.00    +0.000 A 
ATOM      6  C   UNL     1       1.931   8.538  18.104  0.00  0.00    +0.000 A 
ATOM      7  C   UNL     1       1.276   9.769  18.233  0.00  0.00    +0.000 A 
ATOM      8  C   UNL     1       0.814  10.181  19.498  0.00  0.00    +0.000 A 
ATOM      9  N   UNL     1       0.189  11.382  19.782  0.00  0.00    +0.000 NA
ATOM     10  C   UNL     1      -0.107  11.433  21.061  0.00  0.00    +0.000 A 
ATOM     11  S   UNL     1       0.324  10.066  21.996  0.00  0.00    +0.000 S 
ATOM     12  C   UNL     1       0.977   9.320  20.585  0.00  0.00    +0.000 A 
ATOM     13  C   UNL     1       1.584   8.058  20.458  0.00  0.00    +0.000 A 
ENDBRANCH   3   5
BRANCH   2  14
ATOM     14  C   UNL     1       2.737   3.883  19.174  0.00  0.00    +0.000 A 
ATOM     15  C   UNL     1       3.748   3.264  19.923  0.00  0.00    +0.000 A 
ATOM     16  C   UNL     1       4.272   2.014  19.565  0.00  0.00    +0.000 A 
ATOM     17  C   UNL     1       3.791   1.349  18.443  0.00  0.00    +0.000 A 
ATOM     18  C   UNL     1       2.776   1.927  17.692  0.00  0.00    +0.000 A 
ATOM     19  C   UNL     1       2.250   3.174  18.058  0.00  0.00    +0.000 A 
ENDBRANCH   2  14
TORSDOF 2
ENDMDL
MODEL 6
REMARK VINA RESULT:      -5.9      4.969      7.011
REMARK  Name = 
REMARK  3 active torsions:
REMARK  status: ('A' for Active; 'I' for Inactive)
REMARK    1  A    between atoms: C_1  and  N_2
REMARK    2  A    between atoms: N_2  and  C_14
REMARK    3  A    between atoms: C_3  and  C_5
REMARK                            x       y       z     vdW  Elec       q    Type
REMARK                         _______ _______ _______ _____ _____    ______ ____
ROOT
ATOM      1  C   UNL     1       1.096   5.191  20.427  0.00  0.00    +0.000 C 
ATOM      2  N   UNL     1       2.205   5.215  19.468  0.00  0.00    +0.000 N 
ATOM      3  C   UNL     1       2.759   6.411  18.956  0.00  0.00    +0.000 C 
ATOM      4  O   UNL     1       3.762   6.494  18.250  0.00  0.00    +0.000 OA
ENDROOT
BRANCH   3   5
ATOM      5  C   UNL     1       2.108   7.731  19.217  0.00  0.00    +0.000 A 
ATOM      6  C   UNL     1       1.923   8.598  18.132  0.00  0.00    +0.000 A 
ATOM      7  C   UNL     1       1.266   9.824  18.292  0.00  0.00    +0.000 A 
ATOM      8  C   UNL     1       0.800  10.202  19.567  0.00  0.00    +0.000 A 
ATOM      9  N   UNL     1       0.173  11.394  19.882  0.00  0.00    +0.000 NA
ATOM     10  C   UNL     1      -0.125  11.409  21.161  0.00  0.00    +0.000 A 
ATOM     11  S   UNL     1       0.306  10.019  22.060  0.00  0.00    +0.000 S 
ATOM     12  C   UNL     1       0.963   9.312  20.631  0.00  0.00    +0.000 A 
ATOM     13  C   UNL     1       1.572   8.055  20.471  0.00  0.00    +0.000 A 
ENDBRANCH   3   5
BRANCH   2  14
ATOM     14  C   UNL     1       2.744   3.919  19.096  0.00  0.00    +0.000 A 
ATOM     15  C   UNL     1       2.331   3.230  17.946  0.00  0.00    +0.000 A 
ATOM     16  C   UNL     1       2.845   1.969  17.618  0.00  0.00    +0.000 A 
ATOM     17  C   UNL     1       3.793   1.364  18.435  0.00  0.00    +0.000 A 
ATOM     18  C   UNL     1       4.238   2.030  19.569  0.00  0.00    +0.000 A 
ATOM     19  C   UNL     1       3.726   3.295  19.891  0.00  0.00    +0.000 A 
ENDBRANCH   2  14
TORSDOF 2
ENDMDL
MODEL 7
REMARK VINA RESULT:      -5.9      3.808      4.735
REMARK  Name = 
REMARK  3 active torsions:
REMARK  status: ('A' for Active; 'I' for Inactive)
REMARK    1  A    between atoms: C_1  and  N_2
REMARK    2  A    between atoms: N_2  and  C_14
REMARK    3  A    between atoms: C_3  and  C_5
REMARK                            x       y       z     vdW  Elec       q    Type
REMARK                         _______ _______ _______ _____ _____    ______ ____
ROOT
ATOM      1  C   UNL     1       2.576   8.646  17.946  0.00  0.00    +0.000 C 
ATOM      2  N   UNL     1       2.127   7.950  19.157  0.00  0.00    +0.000 N 
ATOM      3  C   UNL     1       2.539   6.640  19.494  0.00  0.00    +0.000 C 
ATOM      4  O   UNL     1       2.295   6.060  20.549  0.00  0.00    +0.000 OA
ENDROOT
BRANCH   3   5
ATOM      5  C   UNL     1       3.311   5.806  18.523  0.00  0.00    +0.000 A 
ATOM      6  C   UNL     1       2.674   4.688  17.966  0.00  0.00    +0.000 A 
ATOM      7  C   UNL     1       3.315   3.897  17.006  0.00  0.00    +0.000 A 
ATOM      8  C   UNL     1       4.627   4.216  16.605  0.00  0.00    +0.000 A 
ATOM      9  N   UNL     1       5.396   3.506  15.700  0.00  0.00    +0.000 NA
ATOM     10  C   UNL     1       6.566   4.087  15.565  0.00  0.00    +0.000 A 
ATOM     11  S   UNL     1       6.821   5.507  16.485  0.00  0.00    +0.000 S 
ATOM     12  C   UNL     1       5.235   5.352  17.145  0.00  0.00    +0.000 A 
ATOM     13  C   UNL     1       4.581   6.185  18.069  0.00  0.00    +0.000 A 
ENDBRANCH   3   5
BRANCH   2  14
ATOM     14  C   UNL     1       1.252   8.710  20.032  0.00  0.00    +0.000 A 
ATOM     15  C   UNL     1       1.206   8.504  21.418  0.00  0.00    +0.000 A 
ATOM     16  C   UNL     1       0.336   9.230  22.243  0.00  0.00    +0.000 A 
ATOM     17  C   UNL     1      -0.510  10.189  21.697  0.00  0.00    +0.000 A 
ATOM     18  C   UNL     1      -0.472  10.431  20.331  0.00  0.00    +0.000 A 
ATOM     19  C   UNL     1       0.404   9.707  19.510  0.00  0.00    +0.000 A 
ENDBRANCH   2  14
TORSDOF 2
ENDMDL
MODEL 8
REMARK VINA RESULT:      -5.9      2.637      7.120
REMARK  Name = 
REMARK  3 active torsions:
REMARK  status: ('A' for Active; 'I' for Inactive)
REMARK    1  A    between atoms: C_1  and  N_2
REMARK    2  A    between atoms: N_2  and  C_14
REMARK    3  A    between atoms: C_3  and  C_5
REMARK                            x       y       z     vdW  Elec       q    Type
REMARK                         _______ _______ _______ _____ _____    ______ ____
ROOT
ATOM      1  C   UNL     1       5.730   2.922  16.224  0.00  0.00    +0.000 C 
ATOM      2  N   UNL     1       5.603   4.232  15.575  0.00  0.00    +0.000 N 
ATOM      3  C   UNL     1       4.905   5.317  16.154  0.00  0.00    +0.000 C 
ATOM      4  O   UNL     1       4.871   6.464  15.716  0.00  0.00    +0.000 OA
ENDROOT
BRANCH   3   5
ATOM      5  C   UNL     1       4.080   5.128  17.386  0.00  0.00    +0.000 A 
ATOM      6  C   UNL     1       4.288   6.009  18.457  0.00  0.00    +0.000 A 
ATOM      7  C   UNL     1       3.510   5.929  19.618  0.00  0.00    +0.000 A 
ATOM      8  C   UNL     1       2.516   4.936  19.721  0.00  0.00    +0.000 A 
ATOM      9  N   UNL     1       1.702   4.713  20.818  0.00  0.00    +0.000 NA
ATOM     10  C   UNL     1       0.892   3.710  20.568  0.00  0.00    +0.000 A 
ATOM     11  S   UNL     1       1.036   2.982  19.026  0.00  0.00    +0.000 S 
ATOM     12  C   UNL     1       2.300   4.088  18.634  0.00  0.00    +0.000 A 
ATOM     13  C   UNL     1       3.038   4.194  17.442  0.00  0.00    +0.000 A 
ENDBRANCH   3   5
BRANCH   2  14
ATOM     14  C   UNL     1       6.283   4.371  14.300  0.00  0.00    +0.000 A 
ATOM     15  C   UNL     1       7.356   5.253  14.108  0.00  0.00    +0.000 A 
ATOM     16  C   UNL     1       7.983   5.392  12.863  0.00  0.00    +0.000 A 
ATOM     17  C   UNL     1       7.551   4.644  11.774  0.00  0.00    +0.000 A 
ATOM     18  C   UNL     1       6.504   3.747  11.937  0.00  0.00    +0.000 A 
ATOM     19  C   UNL     1       5.884   3.606  13.186  0.00  0.00    +0.000 A 
ENDBRANCH   2  14
TORSDOF 2
ENDMDL
MODEL 9
REMARK VINA RESULT:      -5.9      4.800      6.096
REMARK  Name = 
REMARK  3 active torsions:
REMARK  status: ('A' for Active; 'I' for Inactive)
REMARK    1  A    between atoms: C_1  and  N_2
REMARK    2  A    between atoms: N_2  and  C_14
REMARK    3  A    between atoms: C_3  and  C_5
REMARK                            x       y       z     vdW  Elec       q    Type
REMARK                         _______ _______ _______ _____ _____    ______ ____
ROOT
ATOM      1  C   UNL     1       1.546   7.911  20.742  0.00  0.00    +0.000 C 
ATOM      2  N   UNL     1       1.380   8.823  19.605  0.00  0.00    +0.000 N 
ATOM      3  C   UNL     1       1.865   8.538  18.308  0.00  0.00    +0.000 C 
ATOM      4  O   UNL     1       1.648   9.204  17.298  0.00  0.00    +0.000 OA
ENDROOT
BRANCH   3   5
ATOM      5  C   UNL     1       2.756   7.363  18.064  0.00  0.00    +0.000 A 
ATOM      6  C   UNL     1       2.194   6.082  18.155  0.00  0.00    +0.000 A 
ATOM      7  C   UNL     1       2.955   4.940  17.880  0.00  0.00    +0.000 A 
ATOM      8  C   UNL     1       4.311   5.077  17.524  0.00  0.00    +0.000 A 
ATOM      9  N   UNL     1       5.191   4.041  17.265  0.00  0.00    +0.000 NA
ATOM     10  C   UNL     1       6.372   4.532  16.965  0.00  0.00    +0.000 A 
ATOM     11  S   UNL     1       6.508   6.238  16.960  0.00  0.00    +0.000 S 
ATOM     12  C   UNL     1       4.847   6.361  17.406  0.00  0.00    +0.000 A 
ATOM     13  C   UNL     1       4.078   7.517  17.627  0.00  0.00    +0.000 A 
ENDBRANCH   3   5
BRANCH   2  14
ATOM     14  C   UNL     1       0.639  10.042  19.879  0.00  0.00    +0.000 A 
ATOM     15  C   UNL     1       1.127  11.050  20.722  0.00  0.00    +0.000 A 
ATOM     16  C   UNL     1       0.385  12.207  20.994  0.00  0.00    +0.000 A 
ATOM     17  C   UNL     1      -0.869  12.387  20.420  0.00  0.00    +0.000 A 
ATOM     18  C   UNL     1      -1.370  11.416  19.564  0.00  0.00    +0.000 A 
ATOM     19  C   UNL     1      -0.622  10.262  19.290  0.00  0.00    +0.000 A 
ENDBRANCH   2  14
TORSDOF 2
ENDMDL
