MODEL 1
REMARK VINA RESULT:      -6.0      0.000      0.000
REMARK  Name = 
REMARK  20 active torsions:
REMARK  status: ('A' for Active; 'I' for Inactive)
REMARK    1  A    between atoms: C_1  and  C_2
REMARK    2  A    between atoms: C_2  and  C_3
REMARK    3  A    between atoms: C_3  and  C_4
REMARK    4  A    between atoms: C_4  and  C_5
REMARK    5  A    between atoms: C_5  and  C_6
REMARK    6  A    between atoms: C_6  and  S_8
REMARK    7  A    between atoms: S_8  and  C_9
REMARK    8  A    between atoms: C_9  and  C_10
REMARK    9  A    between atoms: C_10  and  C_11
REMARK   10  A    between atoms: C_10  and  S_18
REMARK   11  A    between atoms: C_11  and  O_12
REMARK   12  A    between atoms: O_12  and  P_13
REMARK   13  A    between atoms: P_13  and  O_16
REMARK   14  A    between atoms: O_16  and  C_17
REMARK   15  A    between atoms: S_18  and  C_19
REMARK   16  A    between atoms: C_19  and  C_21
REMARK   17  A    between atoms: C_21  and  C_22
REMARK   18  A    between atoms: C_22  and  C_23
REMARK   19  A    between atoms: C_23  and  C_24
REMARK   20  A    between atoms: C_24  and  C_25
REMARK                            x       y       z     vdW  Elec       q    Type
REMARK                         _______ _______ _______ _____ _____    ______ ____
ROOT
ATOM      1  C   UNL     1       3.769   4.280  17.465  0.00  0.00    +0.000 C 
ENDROOT
BRANCH   1   2
ATOM      2  S   UNL     1       3.648   6.123  17.355  0.00  0.00    +0.000 S 
BRANCH   2   3
ATOM      3  C   UNL     1       3.221   6.513  19.021  0.00  0.00    +0.000 C 
ATOM      4  O   UNL     1       3.628   5.867  19.968  0.00  0.00    +0.000 OA
BRANCH   3   5
ATOM      5  C   UNL     1       2.291   7.708  19.155  0.00  0.00    +0.000 C 
BRANCH   5   6
ATOM      6  C   UNL     1       1.980   8.346  17.808  0.00  0.00    +0.000 C 
BRANCH   6   7
ATOM      7  C   UNL     1       1.964   9.871  17.930  0.00  0.00    +0.000 C 
BRANCH   7   8
ATOM      8  C   UNL     1       0.711  10.358  18.656  0.00  0.00    +0.000 C 
ATOM      9  C   UNL     1      -0.554   9.935  17.927  0.00  0.00    +0.000 C 
ENDBRANCH   7   8
ENDBRANCH   6   7
ENDBRANCH   5   6
ENDBRANCH   3   5
ENDBRANCH   2   3
ENDBRANCH   1   2
BRANCH   1  10
ATOM     10  C   UNL     1       2.504   3.646  16.862  0.00  0.00    +0.000 C 
BRANCH  10  11
ATOM     11  O   UNL     1       1.357   3.887  17.677  0.00  0.00    +0.000 OA
BRANCH  11  12
ATOM     12  P   UNL     1       1.368   3.067  19.200  0.00  0.00    +0.000 P 
ATOM     13  O   UNL     1       0.846   4.317  19.917  0.00  0.00    +0.000 OA
ATOM     14  O   UNL     1       0.408   2.000  18.657  0.00  0.00    +0.000 OA
BRANCH  12  15
ATOM     15  O   UNL     1       1.378   2.247  20.724  0.00  0.00    +0.000 OA
ATOM     16  C   UNL     1       2.314   2.695  21.677  0.00  0.00    +0.000 C 
ENDBRANCH  12  15
ENDBRANCH  11  12
ENDBRANCH  10  11
ENDBRANCH   1  10
BRANCH   1  17
ATOM     17  C   UNL     1       5.018   3.649  16.811  0.00  0.00    +0.000 C 
BRANCH  17  18
ATOM     18  S   UNL     1       6.535   4.646  16.878  0.00  0.00    +0.000 S 
BRANCH  18  19
ATOM     19  C   UNL     1       6.832   4.925  15.160  0.00  0.00    +0.000 C 
ATOM     20  O   UNL     1       7.725   5.661  14.727  0.00  0.00    +0.000 OA
BRANCH  19  21
ATOM     21  C   UNL     1       5.833   4.198  14.275  0.00  0.00    +0.000 C 
BRANCH  21  22
ATOM     22  C   UNL     1       6.457   3.636  13.005  0.00  0.00    +0.000 C 
BRANCH  22  23
ATOM     23  C   UNL     1       5.376   3.283  11.982  0.00  0.00    +0.000 C 
BRANCH  23  25
ATOM     24  C   UNL     1       6.962   1.586  11.007  0.00  0.00    +0.000 C 
ATOM     25  C   UNL     1       5.546   1.850  11.488  0.00  0.00    +0.000 C 
ENDBRANCH  23  25
ENDBRANCH  22  23
ENDBRANCH  21  22
ENDBRANCH  19  21
ENDBRANCH  18  19
ENDBRANCH  17  18
ENDBRANCH   1  17
TORSDOF 17
ENDMDL
MODEL 2
REMARK VINA RESULT:      -5.9      3.531      6.910
REMARK  Name = 
REMARK  20 active torsions:
REMARK  status: ('A' for Active; 'I' for Inactive)
REMARK    1  A    between atoms: C_1  and  C_2
REMARK    2  A    between atoms: C_2  and  C_3
REMARK    3  A    between atoms: C_3  and  C_4
REMARK    4  A    between atoms: C_4  and  C_5
REMARK    5  A    between atoms: C_5  and  C_6
REMARK    6  A    between atoms: C_6  and  S_8
REMARK    7  A    between atoms: S_8  and  C_9
REMARK    8  A    between atoms: C_9  and  C_10
REMARK    9  A    between atoms: C_10  and  C_11
REMARK   10  A    between atoms: C_10  and  S_18
REMARK   11  A    between atoms: C_11  and  O_12
REMARK   12  A    between atoms: O_12  and  P_13
REMARK   13  A    between atoms: P_13  and  O_16
REMARK   14  A    between atoms: O_16  and  C_17
REMARK   15  A    between atoms: S_18  and  C_19
REMARK   16  A    between atoms: C_19  and  C_21
REMARK   17  A    between atoms: C_21  and  C_22
REMARK   18  A    between atoms: C_22  and  C_23
REMARK   19  A    between atoms: C_23  and  C_24
REMARK   20  A    between atoms: C_24  and  C_25
REMARK                            x       y       z     vdW  Elec       q    Type
REMARK                         _______ _______ _______ _____ _____    ______ ____
ROOT
ATOM      1  C   UNL     1       5.258   4.749  16.588  0.00  0.00    +0.000 C 
ENDROOT
BRANCH   1   2
ATOM      2  S   UNL     1       6.950   4.305  15.988  0.00  0.00    +0.000 S 
BRANCH   2   3
ATOM      3  C   UNL     1       6.753   4.572  14.256  0.00  0.00    +0.000 C 
ATOM      4  O   UNL     1       7.412   5.389  13.642  0.00  0.00    +0.000 OA
BRANCH   3   5
ATOM      5  C   UNL     1       5.679   3.706  13.618  0.00  0.00    +0.000 C 
BRANCH   5   6
ATOM      6  C   UNL     1       5.929   3.482  12.133  0.00  0.00    +0.000 C 
BRANCH   6   7
ATOM      7  C   UNL     1       4.682   2.906  11.462  0.00  0.00    +0.000 C 
BRANCH   7   8
ATOM      8  C   UNL     1       3.733   4.013  11.005  0.00  0.00    +0.000 C 
ATOM      9  C   UNL     1       3.135   3.704   9.642  0.00  0.00    +0.000 C 
ENDBRANCH   7   8
ENDBRANCH   6   7
ENDBRANCH   5   6
ENDBRANCH   3   5
ENDBRANCH   2   3
ENDBRANCH   1   2
BRANCH   1  10
ATOM     10  C   UNL     1       4.593   3.511  17.212  0.00  0.00    +0.000 C 
BRANCH  10  11
ATOM     11  O   UNL     1       3.169   3.626  17.213  0.00  0.00    +0.000 OA
BRANCH  11  12
ATOM     12  P   UNL     1       2.385   2.870  18.557  0.00  0.00    +0.000 P 
ATOM     13  O   UNL     1       3.215   3.691  19.549  0.00  0.00    +0.000 OA
ATOM     14  O   UNL     1       1.017   3.360  18.063  0.00  0.00    +0.000 OA
BRANCH  12  15
ATOM     15  O   UNL     1       1.600   2.115  19.902  0.00  0.00    +0.000 OA
ATOM     16  C   UNL     1       1.241   2.954  20.977  0.00  0.00    +0.000 C 
ENDBRANCH  12  15
ENDBRANCH  11  12
ENDBRANCH  10  11
ENDBRANCH   1  10
BRANCH   1  17
ATOM     17  C   UNL     1       5.186   5.925  17.589  0.00  0.00    +0.000 C 
BRANCH  17  18
ATOM     18  S   UNL     1       5.819   7.517  16.985  0.00  0.00    +0.000 S 
BRANCH  18  19
ATOM     19  C   UNL     1       7.365   7.610  17.833  0.00  0.00    +0.000 C 
ATOM     20  O   UNL     1       7.826   6.697  18.526  0.00  0.00    +0.000 OA
BRANCH  19  21
ATOM     21  C   UNL     1       8.040   8.961  17.656  0.00  0.00    +0.000 C 
BRANCH  21  22
ATOM     22  C   UNL     1       8.855   9.384  18.871  0.00  0.00    +0.000 C 
BRANCH  22  23
ATOM     23  C   UNL     1       9.745  10.582  18.534  0.00  0.00    +0.000 C 
BRANCH  23  25
ATOM     24  C   UNL     1       9.734  12.869  17.477  0.00  0.00    +0.000 C 
ATOM     25  C   UNL     1       8.900  11.795  18.155  0.00  0.00    +0.000 C 
ENDBRANCH  23  25
ENDBRANCH  22  23
ENDBRANCH  21  22
ENDBRANCH  19  21
ENDBRANCH  18  19
ENDBRANCH  17  18
ENDBRANCH   1  17
TORSDOF 17
ENDMDL
MODEL 3
REMARK VINA RESULT:      -5.8      4.238      6.945
REMARK  Name = 
REMARK  20 active torsions:
REMARK  status: ('A' for Active; 'I' for Inactive)
REMARK    1  A    between atoms: C_1  and  C_2
REMARK    2  A    between atoms: C_2  and  C_3
REMARK    3  A    between atoms: C_3  and  C_4
REMARK    4  A    between atoms: C_4  and  C_5
REMARK    5  A    between atoms: C_5  and  C_6
REMARK    6  A    between atoms: C_6  and  S_8
REMARK    7  A    between atoms: S_8  and  C_9
REMARK    8  A    between atoms: C_9  and  C_10
REMARK    9  A    between atoms: C_10  and  C_11
REMARK   10  A    between atoms: C_10  and  S_18
REMARK   11  A    between atoms: C_11  and  O_12
REMARK   12  A    between atoms: O_12  and  P_13
REMARK   13  A    between atoms: P_13  and  O_16
REMARK   14  A    between atoms: O_16  and  C_17
REMARK   15  A    between atoms: S_18  and  C_19
REMARK   16  A    between atoms: C_19  and  C_21
REMARK   17  A    between atoms: C_21  and  C_22
REMARK   18  A    between atoms: C_22  and  C_23
REMARK   19  A    between atoms: C_23  and  C_24
REMARK   20  A    between atoms: C_24  and  C_25
REMARK                            x       y       z     vdW  Elec       q    Type
REMARK                         _______ _______ _______ _____ _____    ______ ____
ROOT
ATOM      1  C   UNL     1       4.645   6.598  18.311  0.00  0.00    +0.000 C 
ENDROOT
BRANCH   1   2
ATOM      2  S   UNL     1       5.855   6.585  16.911  0.00  0.00    +0.000 S 
BRANCH   2   3
ATOM      3  C   UNL     1       7.327   7.054  17.761  0.00  0.00    +0.000 C 
ATOM      4  O   UNL     1       7.970   6.273  18.434  0.00  0.00    +0.000 OA
BRANCH   3   5
ATOM      5  C   UNL     1       7.699   8.518  17.584  0.00  0.00    +0.000 C 
BRANCH   5   6
ATOM      6  C   UNL     1       8.727   8.976  18.610  0.00  0.00    +0.000 C 
BRANCH   6   7
ATOM      7  C   UNL     1       9.068  10.453  18.401  0.00  0.00    +0.000 C 
BRANCH   7   8
ATOM      8  C   UNL     1       9.581  11.093  19.690  0.00  0.00    +0.000 C 
ATOM      9  C   UNL     1      11.026  11.542  19.550  0.00  0.00    +0.000 C 
ENDBRANCH   7   8
ENDBRANCH   6   7
ENDBRANCH   5   6
ENDBRANCH   3   5
ENDBRANCH   2   3
ENDBRANCH   1   2
BRANCH   1  10
ATOM     10  C   UNL     1       3.288   7.123  17.812  0.00  0.00    +0.000 C 
BRANCH  10  11
ATOM     11  O   UNL     1       3.238   8.551  17.837  0.00  0.00    +0.000 OA
BRANCH  11  12
ATOM     12  P   UNL     1       1.660   9.213  18.090  0.00  0.00    +0.000 P 
ATOM     13  O   UNL     1       1.596   8.613  19.498  0.00  0.00    +0.000 OA
ATOM     14  O   UNL     1       2.194  10.632  17.851  0.00  0.00    +0.000 OA
BRANCH  12  15
ATOM     15  O   UNL     1       0.083   9.876  18.344  0.00  0.00    +0.000 OA
ATOM     16  C   UNL     1       0.022  11.156  18.934  0.00  0.00    +0.000 C 
ENDBRANCH  12  15
ENDBRANCH  11  12
ENDBRANCH  10  11
ENDBRANCH   1  10
BRANCH   1  17
ATOM     17  C   UNL     1       4.436   5.247  19.031  0.00  0.00    +0.000 C 
BRANCH  17  18
ATOM     18  S   UNL     1       4.943   3.769  18.102  0.00  0.00    +0.000 S 
BRANCH  18  19
ATOM     19  C   UNL     1       4.329   2.486  19.148  0.00  0.00    +0.000 C 
ATOM     20  O   UNL     1       4.813   2.205  20.250  0.00  0.00    +0.000 OA
BRANCH  19  21
ATOM     21  C   UNL     1       3.171   1.731  18.516  0.00  0.00    +0.000 C 
BRANCH  21  22
ATOM     22  C   UNL     1       2.050   2.646  18.041  0.00  0.00    +0.000 C 
BRANCH  22  23
ATOM     23  C   UNL     1       0.864   2.592  19.005  0.00  0.00    +0.000 C 
BRANCH  23  25
ATOM     24  C   UNL     1       1.386   2.958  21.443  0.00  0.00    +0.000 C 
ATOM     25  C   UNL     1       1.028   3.618  20.122  0.00  0.00    +0.000 C 
ENDBRANCH  23  25
ENDBRANCH  22  23
ENDBRANCH  21  22
ENDBRANCH  19  21
ENDBRANCH  18  19
ENDBRANCH  17  18
ENDBRANCH   1  17
TORSDOF 17
ENDMDL
MODEL 4
REMARK VINA RESULT:      -5.7      2.662      4.880
REMARK  Name = 
REMARK  20 active torsions:
REMARK  status: ('A' for Active; 'I' for Inactive)
REMARK    1  A    between atoms: C_1  and  C_2
REMARK    2  A    between atoms: C_2  and  C_3
REMARK    3  A    between atoms: C_3  and  C_4
REMARK    4  A    between atoms: C_4  and  C_5
REMARK    5  A    between atoms: C_5  and  C_6
REMARK    6  A    between atoms: C_6  and  S_8
REMARK    7  A    between atoms: S_8  and  C_9
REMARK    8  A    between atoms: C_9  and  C_10
REMARK    9  A    between atoms: C_10  and  C_11
REMARK   10  A    between atoms: C_10  and  S_18
REMARK   11  A    between atoms: C_11  and  O_12
REMARK   12  A    between atoms: O_12  and  P_13
REMARK   13  A    between atoms: P_13  and  O_16
REMARK   14  A    between atoms: O_16  and  C_17
REMARK   15  A    between atoms: S_18  and  C_19
REMARK   16  A    between atoms: C_19  and  C_21
REMARK   17  A    between atoms: C_21  and  C_22
REMARK   18  A    between atoms: C_22  and  C_23
REMARK   19  A    between atoms: C_23  and  C_24
REMARK   20  A    between atoms: C_24  and  C_25
REMARK                            x       y       z     vdW  Elec       q    Type
REMARK                         _______ _______ _______ _____ _____    ______ ____
ROOT
ATOM      1  C   UNL     1       3.711   5.788  17.473  0.00  0.00    +0.000 C 
ENDROOT
BRANCH   1   2
ATOM      2  S   UNL     1       4.429   4.813  18.872  0.00  0.00    +0.000 S 
BRANCH   2   3
ATOM      3  C   UNL     1       4.197   3.173  18.267  0.00  0.00    +0.000 C 
ATOM      4  O   UNL     1       4.658   2.796  17.207  0.00  0.00    +0.000 OA
BRANCH   3   5
ATOM      5  C   UNL     1       3.360   2.293  19.181  0.00  0.00    +0.000 C 
BRANCH   5   6
ATOM      6  C   UNL     1       3.425   2.747  20.632  0.00  0.00    +0.000 C 
BRANCH   6   7
ATOM      7  C   UNL     1       2.046   2.648  21.286  0.00  0.00    +0.000 C 
BRANCH   7   8
ATOM      8  C   UNL     1       1.036   3.566  20.599  0.00  0.00    +0.000 C 
ATOM      9  C   UNL     1       1.402   5.030  20.782  0.00  0.00    +0.000 C 
ENDBRANCH   7   8
ENDBRANCH   6   7
ENDBRANCH   5   6
ENDBRANCH   3   5
ENDBRANCH   2   3
ENDBRANCH   1   2
BRANCH   1  10
ATOM     10  C   UNL     1       2.485   6.572  17.969  0.00  0.00    +0.000 C 
BRANCH  10  11
ATOM     11  O   UNL     1       2.814   7.931  18.259  0.00  0.00    +0.000 OA
BRANCH  11  12
ATOM     12  P   UNL     1       1.452   8.974  18.473  0.00  0.00    +0.000 P 
ATOM     13  O   UNL     1       1.586   8.895  19.998  0.00  0.00    +0.000 OA
ATOM     14  O   UNL     1       2.145  10.081  17.668  0.00  0.00    +0.000 OA
BRANCH  12  15
ATOM     15  O   UNL     1       0.089  10.019  18.688  0.00  0.00    +0.000 OA
ATOM     16  C   UNL     1      -0.860  10.043  17.646  0.00  0.00    +0.000 C 
ENDBRANCH  12  15
ENDBRANCH  11  12
ENDBRANCH  10  11
ENDBRANCH   1  10
BRANCH   1  17
ATOM     17  C   UNL     1       4.682   6.757  16.761  0.00  0.00    +0.000 C 
BRANCH  17  18
ATOM     18  S   UNL     1       6.438   6.575  17.192  0.00  0.00    +0.000 S 
BRANCH  18  19
ATOM     19  C   UNL     1       6.894   5.202  16.181  0.00  0.00    +0.000 C 
ATOM     20  O   UNL     1       7.809   4.419  16.455  0.00  0.00    +0.000 OA
BRANCH  19  21
ATOM     21  C   UNL     1       6.066   5.121  14.908  0.00  0.00    +0.000 C 
BRANCH  21  22
ATOM     22  C   UNL     1       6.253   3.810  14.156  0.00  0.00    +0.000 C 
BRANCH  22  23
ATOM     23  C   UNL     1       6.060   4.018  12.653  0.00  0.00    +0.000 C 
BRANCH  23  25
ATOM     24  C   UNL     1       4.193   3.203  11.171  0.00  0.00    +0.000 C 
ATOM     25  C   UNL     1       5.387   2.804  12.020  0.00  0.00    +0.000 C 
ENDBRANCH  23  25
ENDBRANCH  22  23
ENDBRANCH  21  22
ENDBRANCH  19  21
ENDBRANCH  18  19
ENDBRANCH  17  18
ENDBRANCH   1  17
TORSDOF 17
ENDMDL
MODEL 5
REMARK VINA RESULT:      -5.7      2.280      7.102
REMARK  Name = 
REMARK  20 active torsions:
REMARK  status: ('A' for Active; 'I' for Inactive)
REMARK    1  A    between atoms: C_1  and  C_2
REMARK    2  A    between atoms: C_2  and  C_3
REMARK    3  A    between atoms: C_3  and  C_4
REMARK    4  A    between atoms: C_4  and  C_5
REMARK    5  A    between atoms: C_5  and  C_6
REMARK    6  A    between atoms: C_6  and  S_8
REMARK    7  A    between atoms: S_8  and  C_9
REMARK    8  A    between atoms: C_9  and  C_10
REMARK    9  A    between atoms: C_10  and  C_11
REMARK   10  A    between atoms: C_10  and  S_18
REMARK   11  A    between atoms: C_11  and  O_12
REMARK   12  A    between atoms: O_12  and  P_13
REMARK   13  A    between atoms: P_13  and  O_16
REMARK   14  A    between atoms: O_16  and  C_17
REMARK   15  A    between atoms: S_18  and  C_19
REMARK   16  A    between atoms: C_19  and  C_21
REMARK   17  A    between atoms: C_21  and  C_22
REMARK   18  A    between atoms: C_22  and  C_23
REMARK   19  A    between atoms: C_23  and  C_24
REMARK   20  A    between atoms: C_24  and  C_25
REMARK                            x       y       z     vdW  Elec       q    Type
REMARK                         _______ _______ _______ _____ _____    ______ ____
ROOT
ATOM      1  C   UNL     1       5.055   5.301  18.627  0.00  0.00    +0.000 C 
ENDROOT
BRANCH   1   2
ATOM      2  S   UNL     1       6.101   6.503  17.687  0.00  0.00    +0.000 S 
BRANCH   2   3
ATOM      3  C   UNL     1       6.725   5.452  16.416  0.00  0.00    +0.000 C 
ATOM      4  O   UNL     1       7.715   4.763  16.566  0.00  0.00    +0.000 OA
BRANCH   3   5
ATOM      5  C   UNL     1       5.926   5.507  15.125  0.00  0.00    +0.000 C 
BRANCH   5   6
ATOM      6  C   UNL     1       6.577   4.698  14.011  0.00  0.00    +0.000 C 
BRANCH   6   7
ATOM      7  C   UNL     1       5.650   3.570  13.557  0.00  0.00    +0.000 C 
BRANCH   7   8
ATOM      8  C   UNL     1       5.806   3.286  12.064  0.00  0.00    +0.000 C 
ATOM      9  C   UNL     1       4.455   3.160  11.378  0.00  0.00    +0.000 C 
ENDBRANCH   7   8
ENDBRANCH   6   7
ENDBRANCH   5   6
ENDBRANCH   3   5
ENDBRANCH   2   3
ENDBRANCH   1   2
BRANCH   1  10
ATOM     10  C   UNL     1       3.691   5.940  18.938  0.00  0.00    +0.000 C 
BRANCH  10  11
ATOM     11  O   UNL     1       3.302   6.865  17.921  0.00  0.00    +0.000 OA
BRANCH  11  12
ATOM     12  P   UNL     1       2.166   8.065  18.432  0.00  0.00    +0.000 P 
ATOM     13  O   UNL     1       2.258   7.583  19.884  0.00  0.00    +0.000 OA
ATOM     14  O   UNL     1       3.075   9.182  17.903  0.00  0.00    +0.000 OA
BRANCH  12  15
ATOM     15  O   UNL     1       1.031   9.265  18.944  0.00  0.00    +0.000 OA
ATOM     16  C   UNL     1       0.165   9.780  17.957  0.00  0.00    +0.000 C 
ENDBRANCH  12  15
ENDBRANCH  11  12
ENDBRANCH  10  11
ENDBRANCH   1  10
BRANCH   1  17
ATOM     17  C   UNL     1       4.833   3.930  17.950  0.00  0.00    +0.000 C 
BRANCH  17  18
ATOM     18  S   UNL     1       3.201   3.677  17.192  0.00  0.00    +0.000 S 
BRANCH  18  19
ATOM     19  C   UNL     1       2.577   2.346  18.169  0.00  0.00    +0.000 C 
ATOM     20  O   UNL     1       3.267   1.402  18.569  0.00  0.00    +0.000 OA
BRANCH  19  21
ATOM     21  C   UNL     1       1.082   2.466  18.419  0.00  0.00    +0.000 C 
BRANCH  21  22
ATOM     22  C   UNL     1       0.734   2.613  19.895  0.00  0.00    +0.000 C 
BRANCH  22  23
ATOM     23  C   UNL     1       0.943   4.055  20.358  0.00  0.00    +0.000 C 
BRANCH  23  25
ATOM     24  C   UNL     1       2.551   2.748  21.792  0.00  0.00    +0.000 C 
ATOM     25  C   UNL     1       1.987   4.121  21.469  0.00  0.00    +0.000 C 
ENDBRANCH  23  25
ENDBRANCH  22  23
ENDBRANCH  21  22
ENDBRANCH  19  21
ENDBRANCH  18  19
ENDBRANCH  17  18
ENDBRANCH   1  17
TORSDOF 17
ENDMDL
MODEL 6
REMARK VINA RESULT:      -5.7      1.786      7.354
REMARK  Name = 
REMARK  20 active torsions:
REMARK  status: ('A' for Active; 'I' for Inactive)
REMARK    1  A    between atoms: C_1  and  C_2
REMARK    2  A    between atoms: C_2  and  C_3
REMARK    3  A    between atoms: C_3  and  C_4
REMARK    4  A    between atoms: C_4  and  C_5
REMARK    5  A    between atoms: C_5  and  C_6
REMARK    6  A    between atoms: C_6  and  S_8
REMARK    7  A    between atoms: S_8  and  C_9
REMARK    8  A    between atoms: C_9  and  C_10
REMARK    9  A    between atoms: C_10  and  C_11
REMARK   10  A    between atoms: C_10  and  S_18
REMARK   11  A    between atoms: C_11  and  O_12
REMARK   12  A    between atoms: O_12  and  P_13
REMARK   13  A    between atoms: P_13  and  O_16
REMARK   14  A    between atoms: O_16  and  C_17
REMARK   15  A    between atoms: S_18  and  C_19
REMARK   16  A    between atoms: C_19  and  C_21
REMARK   17  A    between atoms: C_21  and  C_22
REMARK   18  A    between atoms: C_22  and  C_23
REMARK   19  A    between atoms: C_23  and  C_24
REMARK   20  A    between atoms: C_24  and  C_25
REMARK                            x       y       z     vdW  Elec       q    Type
REMARK                         _______ _______ _______ _____ _____    ______ ____
ROOT
ATOM      1  C   UNL     1       4.799   4.958  16.767  0.00  0.00    +0.000 C 
ENDROOT
BRANCH   1   2
ATOM      2  S   UNL     1       6.477   4.216  16.533  0.00  0.00    +0.000 S 
BRANCH   2   3
ATOM      3  C   UNL     1       6.786   4.653  14.852  0.00  0.00    +0.000 C 
ATOM      4  O   UNL     1       7.700   5.384  14.526  0.00  0.00    +0.000 OA
BRANCH   3   5
ATOM      5  C   UNL     1       5.798   4.049  13.868  0.00  0.00    +0.000 C 
BRANCH   5   6
ATOM      6  C   UNL     1       6.451   3.707  12.536  0.00  0.00    +0.000 C 
BRANCH   6   7
ATOM      7  C   UNL     1       5.599   2.698  11.766  0.00  0.00    +0.000 C 
BRANCH   7   8
ATOM      8  C   UNL     1       4.137   3.136  11.703  0.00  0.00    +0.000 C 
ATOM      9  C   UNL     1       3.805   3.774  10.364  0.00  0.00    +0.000 C 
ENDBRANCH   7   8
ENDBRANCH   6   7
ENDBRANCH   5   6
ENDBRANCH   3   5
ENDBRANCH   2   3
ENDBRANCH   1   2
BRANCH   1  10
ATOM     10  C   UNL     1       3.760   3.837  16.934  0.00  0.00    +0.000 C 
BRANCH  10  11
ATOM     11  O   UNL     1       4.171   2.885  17.917  0.00  0.00    +0.000 OA
BRANCH  11  12
ATOM     12  P   UNL     1       2.954   2.470  19.074  0.00  0.00    +0.000 P 
ATOM     13  O   UNL     1       3.649   3.303  20.156  0.00  0.00    +0.000 OA
ATOM     14  O   UNL     1       1.865   3.076  18.178  0.00  0.00    +0.000 OA
BRANCH  12  15
ATOM     15  O   UNL     1       1.736   2.057  20.231  0.00  0.00    +0.000 OA
ATOM     16  C   UNL     1       1.168   3.122  20.960  0.00  0.00    +0.000 C 
ENDBRANCH  12  15
ENDBRANCH  11  12
ENDBRANCH  10  11
ENDBRANCH   1  10
BRANCH   1  17
ATOM     17  C   UNL     1       4.663   5.958  17.937  0.00  0.00    +0.000 C 
BRANCH  17  18
ATOM     18  S   UNL     1       4.025   7.603  17.503  0.00  0.00    +0.000 S 
BRANCH  18  19
ATOM     19  C   UNL     1       2.514   7.630  18.416  0.00  0.00    +0.000 C 
ATOM     20  O   UNL     1       1.534   8.317  18.106  0.00  0.00    +0.000 OA
BRANCH  19  21
ATOM     21  C   UNL     1       2.572   6.752  19.656  0.00  0.00    +0.000 C 
BRANCH  21  22
ATOM     22  C   UNL     1       1.340   6.887  20.541  0.00  0.00    +0.000 C 
BRANCH  22  23
ATOM     23  C   UNL     1       1.383   8.197  21.330  0.00  0.00    +0.000 C 
BRANCH  23  25
ATOM     24  C   UNL     1      -0.290   9.945  20.630  0.00  0.00    +0.000 C 
ATOM     25  C   UNL     1      -0.023   8.754  21.533  0.00  0.00    +0.000 C 
ENDBRANCH  23  25
ENDBRANCH  22  23
ENDBRANCH  21  22
ENDBRANCH  19  21
ENDBRANCH  18  19
ENDBRANCH  17  18
ENDBRANCH   1  17
TORSDOF 17
ENDMDL
MODEL 7
REMARK VINA RESULT:      -5.7      3.184      6.345
REMARK  Name = 
REMARK  20 active torsions:
REMARK  status: ('A' for Active; 'I' for Inactive)
REMARK    1  A    between atoms: C_1  and  C_2
REMARK    2  A    between atoms: C_2  and  C_3
REMARK    3  A    between atoms: C_3  and  C_4
REMARK    4  A    between atoms: C_4  and  C_5
REMARK    5  A    between atoms: C_5  and  C_6
REMARK    6  A    between atoms: C_6  and  S_8
REMARK    7  A    between atoms: S_8  and  C_9
REMARK    8  A    between atoms: C_9  and  C_10
REMARK    9  A    between atoms: C_10  and  C_11
REMARK   10  A    between atoms: C_10  and  S_18
REMARK   11  A    between atoms: C_11  and  O_12
REMARK   12  A    between atoms: O_12  and  P_13
REMARK   13  A    between atoms: P_13  and  O_16
REMARK   14  A    between atoms: O_16  and  C_17
REMARK   15  A    between atoms: S_18  and  C_19
REMARK   16  A    between atoms: C_19  and  C_21
REMARK   17  A    between atoms: C_21  and  C_22
REMARK   18  A    between atoms: C_22  and  C_23
REMARK   19  A    between atoms: C_23  and  C_24
REMARK   20  A    between atoms: C_24  and  C_25
REMARK                            x       y       z     vdW  Elec       q    Type
REMARK                         _______ _______ _______ _____ _____    ______ ____
ROOT
ATOM      1  C   UNL     1       3.665   3.669  16.929  0.00  0.00    +0.000 C 
ENDROOT
BRANCH   1   2
ATOM      2  S   UNL     1       2.555   4.964  17.644  0.00  0.00    +0.000 S 
BRANCH   2   3
ATOM      3  C   UNL     1       3.752   6.106  18.256  0.00  0.00    +0.000 C 
ATOM      4  O   UNL     1       4.615   5.784  19.049  0.00  0.00    +0.000 OA
BRANCH   3   5
ATOM      5  C   UNL     1       3.590   7.516  17.714  0.00  0.00    +0.000 C 
BRANCH   5   6
ATOM      6  C   UNL     1       2.130   7.945  17.657  0.00  0.00    +0.000 C 
BRANCH   6   7
ATOM      7  C   UNL     1       2.004   9.450  17.893  0.00  0.00    +0.000 C 
BRANCH   7   8
ATOM      8  C   UNL     1       1.100   9.754  19.086  0.00  0.00    +0.000 C 
ATOM      9  C   UNL     1      -0.225  10.351  18.642  0.00  0.00    +0.000 C 
ENDBRANCH   7   8
ENDBRANCH   6   7
ENDBRANCH   5   6
ENDBRANCH   3   5
ENDBRANCH   2   3
ENDBRANCH   1   2
BRANCH   1  10
ATOM     10  C   UNL     1       4.622   4.317  15.914  0.00  0.00    +0.000 C 
BRANCH  10  11
ATOM     11  O   UNL     1       5.988   4.068  16.250  0.00  0.00    +0.000 OA
BRANCH  11  12
ATOM     12  P   UNL     1       6.965   5.488  16.396  0.00  0.00    +0.000 P 
ATOM     13  O   UNL     1       7.780   4.853  17.528  0.00  0.00    +0.000 OA
ATOM     14  O   UNL     1       7.404   5.363  14.931  0.00  0.00    +0.000 OA
BRANCH  12  15
ATOM     15  O   UNL     1       7.944   6.907  16.542  0.00  0.00    +0.000 OA
ATOM     16  C   UNL     1       7.643   7.776  17.611  0.00  0.00    +0.000 C 
ENDBRANCH  12  15
ENDBRANCH  11  12
ENDBRANCH  10  11
ENDBRANCH   1  10
BRANCH   1  17
ATOM     17  C   UNL     1       4.484   2.847  17.950  0.00  0.00    +0.000 C 
BRANCH  17  18
ATOM     18  S   UNL     1       3.553   1.607  18.896  0.00  0.00    +0.000 S 
BRANCH  18  19
ATOM     19  C   UNL     1       3.985   2.049  20.550  0.00  0.00    +0.000 C 
ATOM     20  O   UNL     1       5.113   1.895  21.031  0.00  0.00    +0.000 OA
BRANCH  19  21
ATOM     21  C   UNL     1       2.800   2.593  21.331  0.00  0.00    +0.000 C 
BRANCH  21  22
ATOM     22  C   UNL     1       1.520   2.655  20.507  0.00  0.00    +0.000 C 
BRANCH  22  23
ATOM     23  C   UNL     1       0.866   4.032  20.629  0.00  0.00    +0.000 C 
BRANCH  23  25
ATOM     24  C   UNL     1       1.387   6.484  20.884  0.00  0.00    +0.000 C 
ATOM     25  C   UNL     1       1.869   5.066  21.135  0.00  0.00    +0.000 C 
ENDBRANCH  23  25
ENDBRANCH  22  23
ENDBRANCH  21  22
ENDBRANCH  19  21
ENDBRANCH  18  19
ENDBRANCH  17  18
ENDBRANCH   1  17
TORSDOF 17
ENDMDL
MODEL 8
REMARK VINA RESULT:      -5.7      3.102      5.558
REMARK  Name = 
REMARK  20 active torsions:
REMARK  status: ('A' for Active; 'I' for Inactive)
REMARK    1  A    between atoms: C_1  and  C_2
REMARK    2  A    between atoms: C_2  and  C_3
REMARK    3  A    between atoms: C_3  and  C_4
REMARK    4  A    between atoms: C_4  and  C_5
REMARK    5  A    between atoms: C_5  and  C_6
REMARK    6  A    between atoms: C_6  and  S_8
REMARK    7  A    between atoms: S_8  and  C_9
REMARK    8  A    between atoms: C_9  and  C_10
REMARK    9  A    between atoms: C_10  and  C_11
REMARK   10  A    between atoms: C_10  and  S_18
REMARK   11  A    between atoms: C_11  and  O_12
REMARK   12  A    between atoms: O_12  and  P_13
REMARK   13  A    between atoms: P_13  and  O_16
REMARK   14  A    between atoms: O_16  and  C_17
REMARK   15  A    between atoms: S_18  and  C_19
REMARK   16  A    between atoms: C_19  and  C_21
REMARK   17  A    between atoms: C_21  and  C_22
REMARK   18  A    between atoms: C_22  and  C_23
REMARK   19  A    between atoms: C_23  and  C_24
REMARK   20  A    between atoms: C_24  and  C_25
REMARK                            x       y       z     vdW  Elec       q    Type
REMARK                         _______ _______ _______ _____ _____    ______ ____
ROOT
ATOM      1  C   UNL     1       2.369   5.962  19.654  0.00  0.00    +0.000 C 
ENDROOT
BRANCH   1   2
ATOM      2  S   UNL     1       2.397   5.003  21.236  0.00  0.00    +0.000 S 
BRANCH   2   3
ATOM      3  C   UNL     1       1.487   3.571  20.754  0.00  0.00    +0.000 C 
ATOM      4  O   UNL     1       1.383   2.593  21.468  0.00  0.00    +0.000 OA
BRANCH   3   5
ATOM      5  C   UNL     1       0.869   3.672  19.369  0.00  0.00    +0.000 C 
BRANCH   5   6
ATOM      6  C   UNL     1       1.241   2.488  18.487  0.00  0.00    +0.000 C 
BRANCH   6   7
ATOM      7  C   UNL     1       2.295   2.898  17.458  0.00  0.00    +0.000 C 
BRANCH   7   8
ATOM      8  C   UNL     1       3.500   1.961  17.490  0.00  0.00    +0.000 C 
ATOM      9  C   UNL     1       3.635   1.276  18.841  0.00  0.00    +0.000 C 
ENDBRANCH   7   8
ENDBRANCH   6   7
ENDBRANCH   5   6
ENDBRANCH   3   5
ENDBRANCH   2   3
ENDBRANCH   1   2
BRANCH   1  10
ATOM     10  C   UNL     1       2.006   7.428  19.948  0.00  0.00    +0.000 C 
BRANCH  10  11
ATOM     11  O   UNL     1       1.438   7.575  21.250  0.00  0.00    +0.000 OA
BRANCH  11  12
ATOM     12  P   UNL     1       0.851   9.163  21.606  0.00  0.00    +0.000 P 
ATOM     13  O   UNL     1      -0.539   8.612  21.942  0.00  0.00    +0.000 OA
ATOM     14  O   UNL     1       1.923   9.339  22.690  0.00  0.00    +0.000 OA
BRANCH  12  15
ATOM     15  O   UNL     1       0.264  10.751  21.964  0.00  0.00    +0.000 OA
ATOM     16  C   UNL     1      -0.912  10.831  22.738  0.00  0.00    +0.000 C 
ENDBRANCH  12  15
ENDBRANCH  11  12
ENDBRANCH  10  11
ENDBRANCH   1  10
BRANCH   1  17
ATOM     17  C   UNL     1       3.667   5.917  18.817  0.00  0.00    +0.000 C 
BRANCH  17  18
ATOM     18  S   UNL     1       4.983   4.840  19.458  0.00  0.00    +0.000 S 
BRANCH  18  19
ATOM     19  C   UNL     1       6.008   4.673  18.031  0.00  0.00    +0.000 C 
ATOM     20  O   UNL     1       7.212   4.398  18.076  0.00  0.00    +0.000 OA
BRANCH  19  21
ATOM     21  C   UNL     1       5.254   4.956  16.741  0.00  0.00    +0.000 C 
BRANCH  21  22
ATOM     22  C   UNL     1       6.018   5.868  15.790  0.00  0.00    +0.000 C 
BRANCH  22  23
ATOM     23  C   UNL     1       6.623   5.062  14.640  0.00  0.00    +0.000 C 
BRANCH  23  25
ATOM     24  C   UNL     1       6.023   3.493  12.762  0.00  0.00    +0.000 C 
ATOM     25  C   UNL     1       5.636   4.012  14.136  0.00  0.00    +0.000 C 
ENDBRANCH  23  25
ENDBRANCH  22  23
ENDBRANCH  21  22
ENDBRANCH  19  21
ENDBRANCH  18  19
ENDBRANCH  17  18
ENDBRANCH   1  17
TORSDOF 17
ENDMDL
MODEL 9
REMARK VINA RESULT:      -5.7      2.191      7.751
REMARK  Name = 
REMARK  20 active torsions:
REMARK  status: ('A' for Active; 'I' for Inactive)
REMARK    1  A    between atoms: C_1  and  C_2
REMARK    2  A    between atoms: C_2  and  C_3
REMARK    3  A    between atoms: C_3  and  C_4
REMARK    4  A    between atoms: C_4  and  C_5
REMARK    5  A    between atoms: C_5  and  C_6
REMARK    6  A    between atoms: C_6  and  S_8
REMARK    7  A    between atoms: S_8  and  C_9
REMARK    8  A    between atoms: C_9  and  C_10
REMARK    9  A    between atoms: C_10  and  C_11
REMARK   10  A    between atoms: C_10  and  S_18
REMARK   11  A    between atoms: C_11  and  O_12
REMARK   12  A    between atoms: O_12  and  P_13
REMARK   13  A    between atoms: P_13  and  O_16
REMARK   14  A    between atoms: O_16  and  C_17
REMARK   15  A    between atoms: S_18  and  C_19
REMARK   16  A    between atoms: C_19  and  C_21
REMARK   17  A    between atoms: C_21  and  C_22
REMARK   18  A    between atoms: C_22  and  C_23
REMARK   19  A    between atoms: C_23  and  C_24
REMARK   20  A    between atoms: C_24  and  C_25
REMARK                            x       y       z     vdW  Elec       q    Type
REMARK                         _______ _______ _______ _____ _____    ______ ____
ROOT
ATOM      1  C   UNL     1       4.678   5.202  17.872  0.00  0.00    +0.000 C 
ENDROOT
BRANCH   1   2
ATOM      2  S   UNL     1       5.940   6.473  17.405  0.00  0.00    +0.000 S 
BRANCH   2   3
ATOM      3  C   UNL     1       6.600   5.741  15.942  0.00  0.00    +0.000 C 
ATOM      4  O   UNL     1       7.790   5.738  15.693  0.00  0.00    +0.000 OA
BRANCH   3   5
ATOM      5  C   UNL     1       5.547   5.139  15.027  0.00  0.00    +0.000 C 
BRANCH   5   6
ATOM      6  C   UNL     1       5.993   3.808  14.436  0.00  0.00    +0.000 C 
BRANCH   6   7
ATOM      7  C   UNL     1       6.408   3.985  12.974  0.00  0.00    +0.000 C 
BRANCH   7   8
ATOM      8  C   UNL     1       5.808   2.894  12.089  0.00  0.00    +0.000 C 
ATOM      9  C   UNL     1       4.471   3.324  11.507  0.00  0.00    +0.000 C 
ENDBRANCH   7   8
ENDBRANCH   6   7
ENDBRANCH   5   6
ENDBRANCH   3   5
ENDBRANCH   2   3
ENDBRANCH   1   2
BRANCH   1  10
ATOM     10  C   UNL     1       4.954   4.706  19.301  0.00  0.00    +0.000 C 
BRANCH  10  11
ATOM     11  O   UNL     1       4.921   3.280  19.376  0.00  0.00    +0.000 OA
BRANCH  11  12
ATOM     12  P   UNL     1       3.337   2.601  19.520  0.00  0.00    +0.000 P 
ATOM     13  O   UNL     1       3.712   1.438  18.596  0.00  0.00    +0.000 OA
ATOM     14  O   UNL     1       3.497   2.495  21.042  0.00  0.00    +0.000 OA
BRANCH  12  15
ATOM     15  O   UNL     1       1.752   1.922  19.665  0.00  0.00    +0.000 OA
ATOM     16  C   UNL     1       0.753   2.461  18.828  0.00  0.00    +0.000 C 
ENDBRANCH  12  15
ENDBRANCH  11  12
ENDBRANCH  10  11
ENDBRANCH   1  10
BRANCH   1  17
ATOM     17  C   UNL     1       3.203   5.649  17.763  0.00  0.00    +0.000 C 
BRANCH  17  18
ATOM     18  S   UNL     1       2.417   6.168  19.317  0.00  0.00    +0.000 S 
BRANCH  18  19
ATOM     19  C   UNL     1       2.200   7.895  19.025  0.00  0.00    +0.000 C 
ATOM     20  O   UNL     1       2.459   8.451  17.953  0.00  0.00    +0.000 OA
BRANCH  19  21
ATOM     21  C   UNL     1       1.706   8.632  20.261  0.00  0.00    +0.000 C 
BRANCH  21  22
ATOM     22  C   UNL     1       0.848   9.845  19.929  0.00  0.00    +0.000 C 
BRANCH  22  23
ATOM     23  C   UNL     1       0.632  10.710  21.171  0.00  0.00    +0.000 C 
BRANCH  23  25
ATOM     24  C   UNL     1      -0.265   9.637  23.267  0.00  0.00    +0.000 C 
ATOM     25  C   UNL     1      -0.615  10.268  21.930  0.00  0.00    +0.000 C 
ENDBRANCH  23  25
ENDBRANCH  22  23
ENDBRANCH  21  22
ENDBRANCH  19  21
ENDBRANCH  18  19
ENDBRANCH  17  18
ENDBRANCH   1  17
TORSDOF 17
ENDMDL
