MODEL 1
REMARK VINA RESULT:      -7.1      0.000      0.000
REMARK  Name = 
REMARK  4 active torsions:
REMARK  status: ('A' for Active; 'I' for Inactive)
REMARK    1  A    between atoms: C_2  and  C_13
REMARK    2  A    between atoms: N_3  and  N_4
REMARK    3  A    between atoms: C_5  and  C_6
REMARK    4  A    between atoms: C_9  and  O_10
REMARK                            x       y       z     vdW  Elec       q    Type
REMARK                         _______ _______ _______ _____ _____    ______ ____
ROOT
ATOM      1  O   UNL     1       7.768   6.135  19.037  0.00  0.00    +0.000 OA
ATOM      2  C   UNL     1       7.105   6.519  18.074  0.00  0.00    +0.000 C 
ATOM      3  N   UNL     1       7.347   7.681  17.351  0.00  0.00    +0.000 N 
ATOM      4  H   UNL     1       6.704   8.011  16.643  0.00  0.00    +0.000 HD
ENDROOT
BRANCH   2   5
ATOM      5  C   UNL     1       5.937   5.703  17.649  0.00  0.00    +0.000 A 
ATOM      6  C   UNL     1       4.743   5.825  18.382  0.00  0.00    +0.000 A 
ATOM      7  C   UNL     1       3.635   5.039  18.062  0.00  0.00    +0.000 A 
ATOM      8  C   UNL     1       3.726   4.126  17.018  0.00  0.00    +0.000 A 
ATOM      9  F   UNL     1       2.672   3.357  16.720  0.00  0.00    +0.000 F 
ATOM     10  C   UNL     1       4.905   3.987  16.289  0.00  0.00    +0.000 A 
ATOM     11  C   UNL     1       6.015   4.776  16.602  0.00  0.00    +0.000 A 
ENDBRANCH   2   5
BRANCH   3  12
ATOM     12  N   UNL     1       8.401   8.466  17.718  0.00  0.00    +0.000 NA
ATOM     13  C   UNL     1       8.135   9.653  18.159  0.00  0.00    +0.000 C 
BRANCH  13  14
ATOM     14  C   UNL     1       9.222  10.556  18.601  0.00  0.00    +0.000 A 
ATOM     15  C   UNL     1      10.046  11.184  17.657  0.00  0.00    +0.000 A 
ATOM     16  C   UNL     1      11.093  12.008  18.076  0.00  0.00    +0.000 A 
ATOM     17  C   UNL     1      11.310  12.194  19.437  0.00  0.00    +0.000 A 
ATOM     18  C   UNL     1      10.490  11.583  20.383  0.00  0.00    +0.000 A 
ATOM     19  C   UNL     1       9.439  10.761  19.966  0.00  0.00    +0.000 A 
BRANCH  17  20
ATOM     20  O   UNL     1      12.333  12.971  19.892  0.00  0.00    +0.000 OA
ATOM     21  H   UNL     1      12.172  13.889  19.617  0.00  0.00    +0.000 HD
ENDBRANCH  17  20
ENDBRANCH  13  14
ENDBRANCH   3  12
TORSDOF 4
ENDMDL
MODEL 2
REMARK VINA RESULT:      -7.0      7.692      9.964
REMARK  Name = 
REMARK  4 active torsions:
REMARK  status: ('A' for Active; 'I' for Inactive)
REMARK    1  A    between atoms: C_2  and  C_13
REMARK    2  A    between atoms: N_3  and  N_4
REMARK    3  A    between atoms: C_5  and  C_6
REMARK    4  A    between atoms: C_9  and  O_10
REMARK                            x       y       z     vdW  Elec       q    Type
REMARK                         _______ _______ _______ _____ _____    ______ ____
ROOT
ATOM      1  O   UNL     1       1.638   8.649  19.258  0.00  0.00    +0.000 OA
ATOM      2  C   UNL     1       1.289   8.394  20.409  0.00  0.00    +0.000 C 
ATOM      3  N   UNL     1       1.502   7.183  21.058  0.00  0.00    +0.000 N 
ATOM      4  H   UNL     1       1.094   6.985  21.963  0.00  0.00    +0.000 HD
ENDROOT
BRANCH   2   5
ATOM      5  C   UNL     1       0.561   9.440  21.177  0.00  0.00    +0.000 A 
ATOM      6  C   UNL     1       0.097   9.114  22.463  0.00  0.00    +0.000 A 
ATOM      7  C   UNL     1      -0.642  10.039  23.202  0.00  0.00    +0.000 A 
ATOM      8  C   UNL     1      -0.925  11.282  22.649  0.00  0.00    +0.000 A 
ATOM      9  F   UNL     1      -1.649  12.166  23.347  0.00  0.00    +0.000 F 
ATOM     10  C   UNL     1      -0.480  11.617  21.372  0.00  0.00    +0.000 A 
ATOM     11  C   UNL     1       0.266  10.696  20.631  0.00  0.00    +0.000 A 
ENDBRANCH   2   5
BRANCH   3  12
ATOM     12  N   UNL     1       2.152   6.192  20.384  0.00  0.00    +0.000 NA
ATOM     13  C   UNL     1       1.687   4.990  20.496  0.00  0.00    +0.000 C 
BRANCH  13  14
ATOM     14  C   UNL     1       2.322   3.864  19.775  0.00  0.00    +0.000 A 
ATOM     15  C   UNL     1       1.757   3.378  18.588  0.00  0.00    +0.000 A 
ATOM     16  C   UNL     1       2.337   2.292  17.927  0.00  0.00    +0.000 A 
ATOM     17  C   UNL     1       3.476   1.698  18.462  0.00  0.00    +0.000 A 
ATOM     18  C   UNL     1       4.050   2.182  19.636  0.00  0.00    +0.000 A 
ATOM     19  C   UNL     1       3.475   3.270  20.296  0.00  0.00    +0.000 A 
BRANCH  17  20
ATOM     20  O   UNL     1       4.062   0.623  17.864  0.00  0.00    +0.000 OA
ATOM     21  H   UNL     1       4.672   0.943  17.179  0.00  0.00    +0.000 HD
ENDBRANCH  17  20
ENDBRANCH  13  14
ENDBRANCH   3  12
TORSDOF 4
ENDMDL
MODEL 3
REMARK VINA RESULT:      -6.9      0.565      1.066
REMARK  Name = 
REMARK  4 active torsions:
REMARK  status: ('A' for Active; 'I' for Inactive)
REMARK    1  A    between atoms: C_2  and  C_13
REMARK    2  A    between atoms: N_3  and  N_4
REMARK    3  A    between atoms: C_5  and  C_6
REMARK    4  A    between atoms: C_9  and  O_10
REMARK                            x       y       z     vdW  Elec       q    Type
REMARK                         _______ _______ _______ _____ _____    ______ ____
ROOT
ATOM      1  O   UNL     1       8.155   6.247  19.176  0.00  0.00    +0.000 OA
ATOM      2  C   UNL     1       7.434   6.557  18.228  0.00  0.00    +0.000 C 
ATOM      3  N   UNL     1       7.575   7.705  17.458  0.00  0.00    +0.000 N 
ATOM      4  H   UNL     1       6.886   7.969  16.766  0.00  0.00    +0.000 HD
ENDROOT
BRANCH   2   5
ATOM      5  C   UNL     1       6.303   5.656  17.877  0.00  0.00    +0.000 A 
ATOM      6  C   UNL     1       5.911   5.580  16.529  0.00  0.00    +0.000 A 
ATOM      7  C   UNL     1       4.819   4.796  16.153  0.00  0.00    +0.000 A 
ATOM      8  C   UNL     1       4.114   4.100  17.129  0.00  0.00    +0.000 A 
ATOM      9  F   UNL     1       3.055   3.362  16.775  0.00  0.00    +0.000 F 
ATOM     10  C   UNL     1       4.483   4.173  18.470  0.00  0.00    +0.000 A 
ATOM     11  C   UNL     1       5.580   4.952  18.849  0.00  0.00    +0.000 A 
ENDBRANCH   2   5
BRANCH   3  12
ATOM     12  N   UNL     1       8.591   8.565  17.757  0.00  0.00    +0.000 NA
ATOM     13  C   UNL     1       8.275   9.695  18.300  0.00  0.00    +0.000 C 
BRANCH  13  14
ATOM     14  C   UNL     1       9.322  10.672  18.677  0.00  0.00    +0.000 A 
ATOM     15  C   UNL     1      10.033  11.362  17.686  0.00  0.00    +0.000 A 
ATOM     16  C   UNL     1      11.045  12.256  18.042  0.00  0.00    +0.000 A 
ATOM     17  C   UNL     1      11.340  12.452  19.388  0.00  0.00    +0.000 A 
ATOM     18  C   UNL     1      10.630  11.779  20.380  0.00  0.00    +0.000 A 
ATOM     19  C   UNL     1       9.615  10.886  20.027  0.00  0.00    +0.000 A 
BRANCH  17  20
ATOM     20  O   UNL     1      12.333  13.298  19.781  0.00  0.00    +0.000 OA
ATOM     21  H   UNL     1      11.958  13.955  20.390  0.00  0.00    +0.000 HD
ENDBRANCH  17  20
ENDBRANCH  13  14
ENDBRANCH   3  12
TORSDOF 4
ENDMDL
MODEL 4
REMARK VINA RESULT:      -6.9      7.735     10.055
REMARK  Name = 
REMARK  4 active torsions:
REMARK  status: ('A' for Active; 'I' for Inactive)
REMARK    1  A    between atoms: C_2  and  C_13
REMARK    2  A    between atoms: N_3  and  N_4
REMARK    3  A    between atoms: C_5  and  C_6
REMARK    4  A    between atoms: C_9  and  O_10
REMARK                            x       y       z     vdW  Elec       q    Type
REMARK                         _______ _______ _______ _____ _____    ______ ____
ROOT
ATOM      1  O   UNL     1       1.733   8.697  19.480  0.00  0.00    +0.000 OA
ATOM      2  C   UNL     1       1.259   8.423  20.582  0.00  0.00    +0.000 C 
ATOM      3  N   UNL     1       1.371   7.191  21.216  0.00  0.00    +0.000 N 
ATOM      4  H   UNL     1       0.865   6.983  22.067  0.00  0.00    +0.000 HD
ENDROOT
BRANCH   2   5
ATOM      5  C   UNL     1       0.482   9.470  21.298  0.00  0.00    +0.000 A 
ATOM      6  C   UNL     1       0.497  10.776  20.778  0.00  0.00    +0.000 A 
ATOM      7  C   UNL     1      -0.167  11.809  21.442  0.00  0.00    +0.000 A 
ATOM      8  C   UNL     1      -0.833  11.535  22.631  0.00  0.00    +0.000 A 
ATOM      9  F   UNL     1      -1.456  12.525  23.281  0.00  0.00    +0.000 F 
ATOM     10  C   UNL     1      -0.850  10.248  23.164  0.00  0.00    +0.000 A 
ATOM     11  C   UNL     1      -0.192   9.210  22.498  0.00  0.00    +0.000 A 
ENDBRANCH   2   5
BRANCH   3  12
ATOM     12  N   UNL     1       2.063   6.198  20.586  0.00  0.00    +0.000 NA
ATOM     13  C   UNL     1       1.480   5.050  20.464  0.00  0.00    +0.000 C 
BRANCH  13  14
ATOM     14  C   UNL     1       2.155   3.930  19.771  0.00  0.00    +0.000 A 
ATOM     15  C   UNL     1       1.602   3.387  18.603  0.00  0.00    +0.000 A 
ATOM     16  C   UNL     1       2.221   2.307  17.969  0.00  0.00    +0.000 A 
ATOM     17  C   UNL     1       3.387   1.776  18.511  0.00  0.00    +0.000 A 
ATOM     18  C   UNL     1       3.949   2.315  19.665  0.00  0.00    +0.000 A 
ATOM     19  C   UNL     1       3.334   3.399  20.299  0.00  0.00    +0.000 A 
BRANCH  17  20
ATOM     20  O   UNL     1       4.012   0.708  17.939  0.00  0.00    +0.000 OA
ATOM     21  H   UNL     1       3.491   0.418  17.172  0.00  0.00    +0.000 HD
ENDBRANCH  17  20
ENDBRANCH  13  14
ENDBRANCH   3  12
TORSDOF 4
ENDMDL
MODEL 5
REMARK VINA RESULT:      -6.9      4.058      8.779
REMARK  Name = 
REMARK  4 active torsions:
REMARK  status: ('A' for Active; 'I' for Inactive)
REMARK    1  A    between atoms: C_2  and  C_13
REMARK    2  A    between atoms: N_3  and  N_4
REMARK    3  A    between atoms: C_5  and  C_6
REMARK    4  A    between atoms: C_9  and  O_10
REMARK                            x       y       z     vdW  Elec       q    Type
REMARK                         _______ _______ _______ _____ _____    ______ ____
ROOT
ATOM      1  O   UNL     1       9.559  11.089  19.990  0.00  0.00    +0.000 OA
ATOM      2  C   UNL     1       9.548  11.265  18.773  0.00  0.00    +0.000 C 
ATOM      3  N   UNL     1       9.028  10.374  17.841  0.00  0.00    +0.000 N 
ATOM      4  H   UNL     1       9.148  10.513  16.846  0.00  0.00    +0.000 HD
ENDROOT
BRANCH   2   5
ATOM      5  C   UNL     1      10.154  12.511  18.233  0.00  0.00    +0.000 A 
ATOM      6  C   UNL     1      11.286  12.394  17.407  0.00  0.00    +0.000 A 
ATOM      7  C   UNL     1      11.928  13.534  16.922  0.00  0.00    +0.000 A 
ATOM      8  C   UNL     1      11.444  14.789  17.274  0.00  0.00    +0.000 A 
ATOM      9  F   UNL     1      12.068  15.885  16.825  0.00  0.00    +0.000 F 
ATOM     10  C   UNL     1      10.329  14.923  18.098  0.00  0.00    +0.000 A 
ATOM     11  C   UNL     1       9.679  13.783  18.581  0.00  0.00    +0.000 A 
ENDBRANCH   2   5
BRANCH   3  12
ATOM     12  N   UNL     1       8.476   9.211  18.294  0.00  0.00    +0.000 NA
ATOM     13  C   UNL     1       7.839   8.480  17.438  0.00  0.00    +0.000 C 
BRANCH  13  14
ATOM     14  C   UNL     1       7.235   7.192  17.845  0.00  0.00    +0.000 A 
ATOM     15  C   UNL     1       7.860   6.393  18.811  0.00  0.00    +0.000 A 
ATOM     16  C   UNL     1       7.307   5.161  19.169  0.00  0.00    +0.000 A 
ATOM     17  C   UNL     1       6.134   4.736  18.554  0.00  0.00    +0.000 A 
ATOM     18  C   UNL     1       5.499   5.529  17.600  0.00  0.00    +0.000 A 
ATOM     19  C   UNL     1       6.048   6.764  17.243  0.00  0.00    +0.000 A 
BRANCH  17  20
ATOM     20  O   UNL     1       5.571   3.532  18.855  0.00  0.00    +0.000 OA
ATOM     21  H   UNL     1       5.729   3.342  19.795  0.00  0.00    +0.000 HD
ENDBRANCH  17  20
ENDBRANCH  13  14
ENDBRANCH   3  12
TORSDOF 4
ENDMDL
MODEL 6
REMARK VINA RESULT:      -6.8      3.996      8.679
REMARK  Name = 
REMARK  4 active torsions:
REMARK  status: ('A' for Active; 'I' for Inactive)
REMARK    1  A    between atoms: C_2  and  C_13
REMARK    2  A    between atoms: N_3  and  N_4
REMARK    3  A    between atoms: C_5  and  C_6
REMARK    4  A    between atoms: C_9  and  O_10
REMARK                            x       y       z     vdW  Elec       q    Type
REMARK                         _______ _______ _______ _____ _____    ______ ____
ROOT
ATOM      1  O   UNL     1       9.467  10.727  20.019  0.00  0.00    +0.000 OA
ATOM      2  C   UNL     1       9.436  10.952  18.810  0.00  0.00    +0.000 C 
ATOM      3  N   UNL     1       8.898  10.101  17.853  0.00  0.00    +0.000 N 
ATOM      4  H   UNL     1       9.001  10.280  16.862  0.00  0.00    +0.000 HD
ENDROOT
BRANCH   2   5
ATOM      5  C   UNL     1      10.037  12.218  18.311  0.00  0.00    +0.000 A 
ATOM      6  C   UNL     1      11.274  12.147  17.646  0.00  0.00    +0.000 A 
ATOM      7  C   UNL     1      11.909  13.310  17.209  0.00  0.00    +0.000 A 
ATOM      8  C   UNL     1      11.312  14.542  17.449  0.00  0.00    +0.000 A 
ATOM      9  F   UNL     1      11.926  15.662  17.048  0.00  0.00    +0.000 F 
ATOM     10  C   UNL     1      10.091  14.631  18.114  0.00  0.00    +0.000 A 
ATOM     11  C   UNL     1       9.449  13.467  18.548  0.00  0.00    +0.000 A 
ENDBRANCH   2   5
BRANCH   3  12
ATOM     12  N   UNL     1       8.350   8.922  18.267  0.00  0.00    +0.000 NA
ATOM     13  C   UNL     1       7.700   8.226  17.393  0.00  0.00    +0.000 C 
BRANCH  13  14
ATOM     14  C   UNL     1       7.098   6.924  17.758  0.00  0.00    +0.000 A 
ATOM     15  C   UNL     1       5.984   6.440  17.059  0.00  0.00    +0.000 A 
ATOM     16  C   UNL     1       5.396   5.228  17.428  0.00  0.00    +0.000 A 
ATOM     17  C   UNL     1       5.926   4.510  18.495  0.00  0.00    +0.000 A 
ATOM     18  C   UNL     1       7.039   4.978  19.189  0.00  0.00    +0.000 A 
ATOM     19  C   UNL     1       7.632   6.188  18.820  0.00  0.00    +0.000 A 
BRANCH  17  20
ATOM     20  O   UNL     1       5.371   3.334  18.904  0.00  0.00    +0.000 OA
ATOM     21  H   UNL     1       4.826   2.981  18.182  0.00  0.00    +0.000 HD
ENDBRANCH  17  20
ENDBRANCH  13  14
ENDBRANCH   3  12
TORSDOF 4
ENDMDL
MODEL 7
REMARK VINA RESULT:      -6.8      0.645      1.590
REMARK  Name = 
REMARK  4 active torsions:
REMARK  status: ('A' for Active; 'I' for Inactive)
REMARK    1  A    between atoms: C_2  and  C_13
REMARK    2  A    between atoms: N_3  and  N_4
REMARK    3  A    between atoms: C_5  and  C_6
REMARK    4  A    between atoms: C_9  and  O_10
REMARK                            x       y       z     vdW  Elec       q    Type
REMARK                         _______ _______ _______ _____ _____    ______ ____
ROOT
ATOM      1  O   UNL     1       8.097   6.233  18.951  0.00  0.00    +0.000 OA
ATOM      2  C   UNL     1       7.302   6.617  18.093  0.00  0.00    +0.000 C 
ATOM      3  N   UNL     1       7.356   7.846  17.447  0.00  0.00    +0.000 N 
ATOM      4  H   UNL     1       6.613   8.158  16.835  0.00  0.00    +0.000 HD
ENDROOT
BRANCH   2   5
ATOM      5  C   UNL     1       6.176   5.719  17.721  0.00  0.00    +0.000 A 
ATOM      6  C   UNL     1       6.394   4.768  16.709  0.00  0.00    +0.000 A 
ATOM      7  C   UNL     1       5.355   3.941  16.281  0.00  0.00    +0.000 A 
ATOM      8  C   UNL     1       4.097   4.075  16.857  0.00  0.00    +0.000 A 
ATOM      9  F   UNL     1       3.093   3.297  16.437  0.00  0.00    +0.000 F 
ATOM     10  C   UNL     1       3.862   5.019  17.854  0.00  0.00    +0.000 A 
ATOM     11  C   UNL     1       4.902   5.845  18.291  0.00  0.00    +0.000 A 
ENDBRANCH   2   5
BRANCH   3  12
ATOM     12  N   UNL     1       8.365   8.705  17.770  0.00  0.00    +0.000 NA
ATOM     13  C   UNL     1       8.047   9.935  18.010  0.00  0.00    +0.000 C 
BRANCH  13  14
ATOM     14  C   UNL     1       9.082  10.923  18.392  0.00  0.00    +0.000 A 
ATOM     15  C   UNL     1       9.953  10.656  19.457  0.00  0.00    +0.000 A 
ATOM     16  C   UNL     1      10.905  11.604  19.839  0.00  0.00    +0.000 A 
ATOM     17  C   UNL     1      10.977  12.813  19.155  0.00  0.00    +0.000 A 
ATOM     18  C   UNL     1      10.122  13.082  18.088  0.00  0.00    +0.000 A 
ATOM     19  C   UNL     1       9.171  12.134  17.701  0.00  0.00    +0.000 A 
BRANCH  17  20
ATOM     20  O   UNL     1      11.874  13.776  19.508  0.00  0.00    +0.000 OA
ATOM     21  H   UNL     1      12.057  14.329  18.730  0.00  0.00    +0.000 HD
ENDBRANCH  17  20
ENDBRANCH  13  14
ENDBRANCH   3  12
TORSDOF 4
ENDMDL
MODEL 8
REMARK VINA RESULT:      -6.8      0.660      1.204
REMARK  Name = 
REMARK  4 active torsions:
REMARK  status: ('A' for Active; 'I' for Inactive)
REMARK    1  A    between atoms: C_2  and  C_13
REMARK    2  A    between atoms: N_3  and  N_4
REMARK    3  A    between atoms: C_5  and  C_6
REMARK    4  A    between atoms: C_9  and  O_10
REMARK                            x       y       z     vdW  Elec       q    Type
REMARK                         _______ _______ _______ _____ _____    ______ ____
ROOT
ATOM      1  O   UNL     1       8.159   6.210  18.973  0.00  0.00    +0.000 OA
ATOM      2  C   UNL     1       7.356   6.694  18.177  0.00  0.00    +0.000 C 
ATOM      3  N   UNL     1       7.400   7.995  17.691  0.00  0.00    +0.000 N 
ATOM      4  H   UNL     1       6.650   8.379  17.129  0.00  0.00    +0.000 HD
ENDROOT
BRANCH   2   5
ATOM      5  C   UNL     1       6.230   5.845  17.704  0.00  0.00    +0.000 A 
ATOM      6  C   UNL     1       5.233   5.492  18.630  0.00  0.00    +0.000 A 
ATOM      7  C   UNL     1       4.186   4.649  18.253  0.00  0.00    +0.000 A 
ATOM      8  C   UNL     1       4.145   4.153  16.955  0.00  0.00    +0.000 A 
ATOM      9  F   UNL     1       3.153   3.330  16.595  0.00  0.00    +0.000 F 
ATOM     10  C   UNL     1       5.131   4.486  16.029  0.00  0.00    +0.000 A 
ATOM     11  C   UNL     1       6.178   5.335  16.400  0.00  0.00    +0.000 A 
ENDBRANCH   2   5
BRANCH   3  12
ATOM     12  N   UNL     1       8.408   8.812  18.112  0.00  0.00    +0.000 NA
ATOM     13  C   UNL     1       8.245  10.086  17.964  0.00  0.00    +0.000 C 
BRANCH  13  14
ATOM     14  C   UNL     1       9.282  11.039  18.419  0.00  0.00    +0.000 A 
ATOM     15  C   UNL     1       9.976  10.809  19.614  0.00  0.00    +0.000 A 
ATOM     16  C   UNL     1      10.930  11.727  20.060  0.00  0.00    +0.000 A 
ATOM     17  C   UNL     1      11.179  12.871  19.309  0.00  0.00    +0.000 A 
ATOM     18  C   UNL     1      10.501  13.103  18.114  0.00  0.00    +0.000 A 
ATOM     19  C   UNL     1       9.549  12.184  17.663  0.00  0.00    +0.000 A 
BRANCH  17  20
ATOM     20  O   UNL     1      12.083  13.805  19.717  0.00  0.00    +0.000 OA
ATOM     21  H   UNL     1      12.403  13.561  20.602  0.00  0.00    +0.000 HD
ENDBRANCH  17  20
ENDBRANCH  13  14
ENDBRANCH   3  12
TORSDOF 4
ENDMDL
MODEL 9
REMARK VINA RESULT:      -6.7      5.757      7.395
REMARK  Name = 
REMARK  4 active torsions:
REMARK  status: ('A' for Active; 'I' for Inactive)
REMARK    1  A    between atoms: C_2  and  C_13
REMARK    2  A    between atoms: N_3  and  N_4
REMARK    3  A    between atoms: C_5  and  C_6
REMARK    4  A    between atoms: C_9  and  O_10
REMARK                            x       y       z     vdW  Elec       q    Type
REMARK                         _______ _______ _______ _____ _____    ______ ____
ROOT
ATOM      1  O   UNL     1       4.284   5.549  19.630  0.00  0.00    +0.000 OA
ATOM      2  C   UNL     1       3.939   5.944  18.518  0.00  0.00    +0.000 C 
ATOM      3  N   UNL     1       2.934   6.873  18.276  0.00  0.00    +0.000 N 
ATOM      4  H   UNL     1       2.611   7.077  17.339  0.00  0.00    +0.000 HD
ENDROOT
BRANCH   2   5
ATOM      5  C   UNL     1       4.623   5.380  17.323  0.00  0.00    +0.000 A 
ATOM      6  C   UNL     1       4.989   6.262  16.292  0.00  0.00    +0.000 A 
ATOM      7  C   UNL     1       5.580   5.777  15.124  0.00  0.00    +0.000 A 
ATOM      8  C   UNL     1       5.793   4.411  14.986  0.00  0.00    +0.000 A 
ATOM      9  F   UNL     1       6.343   3.939  13.860  0.00  0.00    +0.000 F 
ATOM     10  C   UNL     1       5.427   3.522  15.995  0.00  0.00    +0.000 A 
ATOM     11  C   UNL     1       4.840   4.005  17.168  0.00  0.00    +0.000 A 
ENDBRANCH   2   5
BRANCH   3  12
ATOM     12  N   UNL     1       2.271   7.404  19.344  0.00  0.00    +0.000 NA
ATOM     13  C   UNL     1       1.717   8.562  19.186  0.00  0.00    +0.000 C 
BRANCH  13  14
ATOM     14  C   UNL     1       0.957   9.193  20.289  0.00  0.00    +0.000 A 
ATOM     15  C   UNL     1       0.128  10.294  20.035  0.00  0.00    +0.000 A 
ATOM     16  C   UNL     1      -0.560  10.911  21.082  0.00  0.00    +0.000 A 
ATOM     17  C   UNL     1      -0.411  10.423  22.377  0.00  0.00    +0.000 A 
ATOM     18  C   UNL     1       0.402   9.322  22.637  0.00  0.00    +0.000 A 
ATOM     19  C   UNL     1       1.089   8.701  21.590  0.00  0.00    +0.000 A 
BRANCH  17  20
ATOM     20  O   UNL     1      -1.045  11.007  23.432  0.00  0.00    +0.000 OA
ATOM     21  H   UNL     1      -1.796  10.448  23.691  0.00  0.00    +0.000 HD
ENDBRANCH  17  20
ENDBRANCH  13  14
ENDBRANCH   3  12
TORSDOF 4
ENDMDL
