MODEL 1
REMARK VINA RESULT:      -8.5      0.000      0.000
REMARK  Name = 
REMARK  12 active torsions:
REMARK  status: ('A' for Active; 'I' for Inactive)
REMARK    1  A    between atoms: C_1  and  C_2
REMARK    2  A    between atoms: C_2  and  C_3
REMARK    3  A    between atoms: C_8  and  C_9
REMARK    4  A    between atoms: C_9  and  O_10
REMARK    5  A    between atoms: O_10  and  C_11
REMARK    6  A    between atoms: C_14  and  S_15
REMARK    7  A    between atoms: S_15  and  N_18
REMARK    8  A    between atoms: C_20  and  O_21
REMARK    9  A    between atoms: C_23  and  C_24
REMARK   10  A    between atoms: C_23  and  C_25
REMARK   11  A    between atoms: C_26  and  C_27
REMARK   12  A    between atoms: N_29  and  O_30
REMARK                            x       y       z     vdW  Elec       q    Type
REMARK                         _______ _______ _______ _____ _____    ______ ____
ROOT
ATOM      1  S   UNL     1       5.244   5.037  17.541  0.00  0.00    +0.000 S 
ATOM      2  O   UNL     1       4.033   5.638  17.022  0.00  0.00    +0.000 OA
ATOM      3  O   UNL     1       5.986   4.062  16.772  0.00  0.00    +0.000 OA
ENDROOT
BRANCH   1   4
ATOM      4  N   UNL     1       4.825   4.277  19.029  0.00  0.00    +0.000 NA
ATOM      5  C   UNL     1       4.151   5.151  20.021  0.00  0.00    +0.000 C 
ATOM      6  C   UNL     1       2.670   5.385  19.700  0.00  0.00    +0.000 C 
ATOM      7  C   UNL     1       1.862   4.151  19.265  0.00  0.00    +0.000 C 
ATOM      8  C   UNL     1       2.590   3.029  18.469  0.00  0.00    +0.000 C 
ATOM      9  C   UNL     1       2.457   3.152  16.931  0.00  0.00    +0.000 C 
ATOM     10  C   UNL     1       1.775   1.713  18.727  0.00  0.00    +0.000 C 
ATOM     11  C   UNL     1       4.091   2.915  18.920  0.00  0.00    +0.000 C 
BRANCH  11  12
ATOM     12  C   UNL     1       4.164   2.248  20.321  0.00  0.00    +0.000 C 
ATOM     13  O   UNL     1       3.294   2.357  21.188  0.00  0.00    +0.000 OA
ATOM     14  N   UNL     1       5.306   1.534  20.598  0.00  0.00    +0.000 N 
ATOM     15  H   UNL     1       6.196   1.817  20.200  0.00  0.00    +0.000 HD
BRANCH  14  16
ATOM     16  O   UNL     1       5.356   1.029  21.929  0.00  0.00    +0.000 OA
ATOM     17  H   UNL     1       6.187   0.497  21.924  0.00  0.00    +0.000 HD
ENDBRANCH  14  16
ENDBRANCH  11  12
BRANCH   6  18
ATOM     18  O   UNL     1       2.038   5.953  20.857  0.00  0.00    +0.000 OA
ATOM     19  H   UNL     1       2.369   6.863  20.970  0.00  0.00    +0.000 HD
ENDBRANCH   6  18
ENDBRANCH   1   4
BRANCH   1  23
ATOM     20  C   UNL     1       8.144   8.606  17.935  0.00  0.00    +0.000 A 
ATOM     21  C   UNL     1       8.429   7.398  18.585  0.00  0.00    +0.000 A 
ATOM     22  C   UNL     1       7.534   6.302  18.526  0.00  0.00    +0.000 A 
ATOM     23  C   UNL     1       6.339   6.426  17.820  0.00  0.00    +0.000 A 
ATOM     24  C   UNL     1       6.060   7.630  17.152  0.00  0.00    +0.000 A 
ATOM     25  C   UNL     1       6.950   8.712  17.221  0.00  0.00    +0.000 A 
BRANCH  20  26
ATOM     26  O   UNL     1       8.907   9.747  17.952  0.00  0.00    +0.000 OA
BRANCH  26  27
ATOM     27  C   UNL     1       9.256  10.282  19.229  0.00  0.00    +0.000 C 
BRANCH  27  33
ATOM     28  C   UNL     1      10.530  12.322  20.186  0.00  0.00    +0.000 A 
ATOM     29  C   UNL     1      11.520  13.312  20.004  0.00  0.00    +0.000 A 
ATOM     30  C   UNL     1      12.199  13.449  18.795  0.00  0.00    +0.000 A 
ATOM     31  C   UNL     1      11.896  12.610  17.733  0.00  0.00    +0.000 A 
ATOM     32  C   UNL     1      10.921  11.621  17.885  0.00  0.00    +0.000 A 
ATOM     33  C   UNL     1      10.232  11.452  19.105  0.00  0.00    +0.000 A 
BRANCH  28  35
ATOM     34  C   UNL     1       8.576  13.079  21.723  0.00  0.00    +0.000 C 
ATOM     35  C   UNL     1       9.793  12.185  21.504  0.00  0.00    +0.000 C 
ENDBRANCH  28  35
ENDBRANCH  27  33
ENDBRANCH  26  27
ENDBRANCH  20  26
ENDBRANCH   1  23
TORSDOF 9
ENDMDL
MODEL 2
REMARK VINA RESULT:      -8.1      5.225      8.817
REMARK  Name = 
REMARK  12 active torsions:
REMARK  status: ('A' for Active; 'I' for Inactive)
REMARK    1  A    between atoms: C_1  and  C_2
REMARK    2  A    between atoms: C_2  and  C_3
REMARK    3  A    between atoms: C_8  and  C_9
REMARK    4  A    between atoms: C_9  and  O_10
REMARK    5  A    between atoms: O_10  and  C_11
REMARK    6  A    between atoms: C_14  and  S_15
REMARK    7  A    between atoms: S_15  and  N_18
REMARK    8  A    between atoms: C_20  and  O_21
REMARK    9  A    between atoms: C_23  and  C_24
REMARK   10  A    between atoms: C_23  and  C_25
REMARK   11  A    between atoms: C_26  and  C_27
REMARK   12  A    between atoms: N_29  and  O_30
REMARK                            x       y       z     vdW  Elec       q    Type
REMARK                         _______ _______ _______ _____ _____    ______ ____
ROOT
ATOM      1  S   UNL     1       0.913   9.004  20.921  0.00  0.00    +0.000 S 
ATOM      2  O   UNL     1      -0.486   8.661  21.064  0.00  0.00    +0.000 OA
ATOM      3  O   UNL     1       1.724   9.341  22.071  0.00  0.00    +0.000 OA
ENDROOT
BRANCH   1   4
ATOM      4  N   UNL     1       0.988  10.352  19.852  0.00  0.00    +0.000 NA
ATOM      5  C   UNL     1       0.026  10.321  18.722  0.00  0.00    +0.000 C 
ATOM      6  C   UNL     1      -1.398  10.706  19.141  0.00  0.00    +0.000 C 
ATOM      7  C   UNL     1      -1.530  11.921  20.074  0.00  0.00    +0.000 C 
ATOM      8  C   UNL     1      -0.392  12.198  21.099  0.00  0.00    +0.000 C 
ATOM      9  C   UNL     1      -0.645  11.603  22.506  0.00  0.00    +0.000 C 
ATOM     10  C   UNL     1      -0.457  13.733  21.416  0.00  0.00    +0.000 C 
ATOM     11  C   UNL     1       0.998  11.755  20.515  0.00  0.00    +0.000 C 
BRANCH  11  12
ATOM     12  C   UNL     1       1.454  12.766  19.429  0.00  0.00    +0.000 C 
ATOM     13  O   UNL     1       1.256  13.982  19.486  0.00  0.00    +0.000 OA
ATOM     14  N   UNL     1       2.077  12.236  18.323  0.00  0.00    +0.000 N 
ATOM     15  H   UNL     1       1.819  11.315  17.984  0.00  0.00    +0.000 HD
BRANCH  14  16
ATOM     16  O   UNL     1       2.384  13.200  17.323  0.00  0.00    +0.000 OA
ATOM     17  H   UNL     1       2.011  14.030  17.705  0.00  0.00    +0.000 HD
ENDBRANCH  14  16
ENDBRANCH  11  12
BRANCH   6  18
ATOM     18  O   UNL     1      -2.167  10.962  17.955  0.00  0.00    +0.000 OA
ATOM     19  H   UNL     1      -2.994  10.448  18.010  0.00  0.00    +0.000 HD
ENDBRANCH   6  18
ENDBRANCH   1   4
BRANCH   1  23
ATOM     20  C   UNL     1       3.025   5.261  19.240  0.00  0.00    +0.000 A 
ATOM     21  C   UNL     1       3.062   6.465  18.525  0.00  0.00    +0.000 A 
ATOM     22  C   UNL     1       2.380   7.616  18.988  0.00  0.00    +0.000 A 
ATOM     23  C   UNL     1       1.647   7.553  20.171  0.00  0.00    +0.000 A 
ATOM     24  C   UNL     1       1.624   6.351  20.900  0.00  0.00    +0.000 A 
ATOM     25  C   UNL     1       2.298   5.215  20.430  0.00  0.00    +0.000 A 
BRANCH  20  26
ATOM     26  O   UNL     1       3.607   4.071  18.875  0.00  0.00    +0.000 OA
BRANCH  26  27
ATOM     27  C   UNL     1       5.034   4.018  18.864  0.00  0.00    +0.000 C 
BRANCH  27  33
ATOM     28  C   UNL     1       6.860   4.963  17.292  0.00  0.00    +0.000 A 
ATOM     29  C   UNL     1       7.344   5.125  15.976  0.00  0.00    +0.000 A 
ATOM     30  C   UNL     1       6.614   4.688  14.872  0.00  0.00    +0.000 A 
ATOM     31  C   UNL     1       5.375   4.091  15.056  0.00  0.00    +0.000 A 
ATOM     32  C   UNL     1       4.872   3.918  16.347  0.00  0.00    +0.000 A 
ATOM     33  C   UNL     1       5.600   4.336  17.480  0.00  0.00    +0.000 A 
BRANCH  28  35
ATOM     34  C   UNL     1       8.010   6.932  18.539  0.00  0.00    +0.000 C 
ATOM     35  C   UNL     1       7.660   5.448  18.485  0.00  0.00    +0.000 C 
ENDBRANCH  28  35
ENDBRANCH  27  33
ENDBRANCH  26  27
ENDBRANCH  20  26
ENDBRANCH   1  23
TORSDOF 9
ENDMDL
MODEL 3
REMARK VINA RESULT:      -8.1      5.641      9.114
REMARK  Name = 
REMARK  12 active torsions:
REMARK  status: ('A' for Active; 'I' for Inactive)
REMARK    1  A    between atoms: C_1  and  C_2
REMARK    2  A    between atoms: C_2  and  C_3
REMARK    3  A    between atoms: C_8  and  C_9
REMARK    4  A    between atoms: C_9  and  O_10
REMARK    5  A    between atoms: O_10  and  C_11
REMARK    6  A    between atoms: C_14  and  S_15
REMARK    7  A    between atoms: S_15  and  N_18
REMARK    8  A    between atoms: C_20  and  O_21
REMARK    9  A    between atoms: C_23  and  C_24
REMARK   10  A    between atoms: C_23  and  C_25
REMARK   11  A    between atoms: C_26  and  C_27
REMARK   12  A    between atoms: N_29  and  O_30
REMARK                            x       y       z     vdW  Elec       q    Type
REMARK                         _______ _______ _______ _____ _____    ______ ____
ROOT
ATOM      1  S   UNL     1       0.692   9.787  20.764  0.00  0.00    +0.000 S 
ATOM      2  O   UNL     1      -0.686   9.556  20.386  0.00  0.00    +0.000 OA
ATOM      3  O   UNL     1       1.072   9.946  22.151  0.00  0.00    +0.000 OA
ENDROOT
BRANCH   1   4
ATOM      4  N   UNL     1       1.200  11.215  19.946  0.00  0.00    +0.000 NA
ATOM      5  C   UNL     1       0.527  11.477  18.649  0.00  0.00    +0.000 C 
ATOM      6  C   UNL     1      -0.885  12.050  18.815  0.00  0.00    +0.000 C 
ATOM      7  C   UNL     1      -1.054  13.155  19.870  0.00  0.00    +0.000 C 
ATOM      8  C   UNL     1      -0.153  13.116  21.138  0.00  0.00    +0.000 C 
ATOM      9  C   UNL     1      -0.803  12.418  22.358  0.00  0.00    +0.000 C 
ATOM     10  C   UNL     1      -0.071  14.593  21.659  0.00  0.00    +0.000 C 
ATOM     11  C   UNL     1       1.256  12.511  20.797  0.00  0.00    +0.000 C 
BRANCH  11  12
ATOM     12  C   UNL     1       2.087  13.546  19.992  0.00  0.00    +0.000 C 
ATOM     13  O   UNL     1       1.735  14.032  18.915  0.00  0.00    +0.000 OA
ATOM     14  N   UNL     1       3.311  13.889  20.517  0.00  0.00    +0.000 N 
ATOM     15  H   UNL     1       3.849  13.210  21.045  0.00  0.00    +0.000 HD
BRANCH  14  16
ATOM     16  O   UNL     1       4.065  14.766  19.687  0.00  0.00    +0.000 OA
ATOM     17  H   UNL     1       4.851  14.217  19.456  0.00  0.00    +0.000 HD
ENDBRANCH  14  16
ENDBRANCH  11  12
BRANCH   6  18
ATOM     18  O   UNL     1      -1.318  12.566  17.547  0.00  0.00    +0.000 OA
ATOM     19  H   UNL     1      -1.591  13.494  17.672  0.00  0.00    +0.000 HD
ENDBRANCH   6  18
ENDBRANCH   1   4
BRANCH   1  23
ATOM     20  C   UNL     1       2.711   6.067  18.926  0.00  0.00    +0.000 A 
ATOM     21  C   UNL     1       2.140   5.993  20.203  0.00  0.00    +0.000 A 
ATOM     22  C   UNL     1       1.559   7.130  20.815  0.00  0.00    +0.000 A 
ATOM     23  C   UNL     1       1.564   8.352  20.145  0.00  0.00    +0.000 A 
ATOM     24  C   UNL     1       2.120   8.423  18.856  0.00  0.00    +0.000 A 
ATOM     25  C   UNL     1       2.698   7.293  18.260  0.00  0.00    +0.000 A 
BRANCH  20  26
ATOM     26  O   UNL     1       3.338   5.050  18.247  0.00  0.00    +0.000 OA
BRANCH  26  27
ATOM     27  C   UNL     1       4.752   4.934  18.404  0.00  0.00    +0.000 C 
BRANCH  27  33
ATOM     28  C   UNL     1       6.758   5.455  16.852  0.00  0.00    +0.000 A 
ATOM     29  C   UNL     1       7.381   5.281  15.597  0.00  0.00    +0.000 A 
ATOM     30  C   UNL     1       6.759   4.581  14.565  0.00  0.00    +0.000 A 
ATOM     31  C   UNL     1       5.492   4.049  14.757  0.00  0.00    +0.000 A 
ATOM     32  C   UNL     1       4.852   4.205  15.989  0.00  0.00    +0.000 A 
ATOM     33  C   UNL     1       5.469   4.895  17.054  0.00  0.00    +0.000 A 
BRANCH  28  35
ATOM     34  C   UNL     1       7.704   7.709  17.735  0.00  0.00    +0.000 C 
ATOM     35  C   UNL     1       7.442   6.223  17.966  0.00  0.00    +0.000 C 
ENDBRANCH  28  35
ENDBRANCH  27  33
ENDBRANCH  26  27
ENDBRANCH  20  26
ENDBRANCH   1  23
TORSDOF 9
ENDMDL
MODEL 4
REMARK VINA RESULT:      -8.1      5.725      9.233
REMARK  Name = 
REMARK  12 active torsions:
REMARK  status: ('A' for Active; 'I' for Inactive)
REMARK    1  A    between atoms: C_1  and  C_2
REMARK    2  A    between atoms: C_2  and  C_3
REMARK    3  A    between atoms: C_8  and  C_9
REMARK    4  A    between atoms: C_9  and  O_10
REMARK    5  A    between atoms: O_10  and  C_11
REMARK    6  A    between atoms: C_14  and  S_15
REMARK    7  A    between atoms: S_15  and  N_18
REMARK    8  A    between atoms: C_20  and  O_21
REMARK    9  A    between atoms: C_23  and  C_24
REMARK   10  A    between atoms: C_23  and  C_25
REMARK   11  A    between atoms: C_26  and  C_27
REMARK   12  A    between atoms: N_29  and  O_30
REMARK                            x       y       z     vdW  Elec       q    Type
REMARK                         _______ _______ _______ _____ _____    ______ ____
ROOT
ATOM      1  S   UNL     1       0.642  10.015  20.767  0.00  0.00    +0.000 S 
ATOM      2  O   UNL     1      -0.784   9.787  20.863  0.00  0.00    +0.000 OA
ATOM      3  O   UNL     1       1.431  10.331  21.939  0.00  0.00    +0.000 OA
ENDROOT
BRANCH   1   4
ATOM      4  N   UNL     1       0.866  11.313  19.657  0.00  0.00    +0.000 NA
ATOM      5  C   UNL     1      -0.104  11.361  18.534  0.00  0.00    +0.000 C 
ATOM      6  C   UNL     1      -1.468  11.925  18.949  0.00  0.00    +0.000 C 
ATOM      7  C   UNL     1      -1.447  13.174  19.845  0.00  0.00    +0.000 C 
ATOM      8  C   UNL     1      -0.274  13.345  20.854  0.00  0.00    +0.000 C 
ATOM      9  C   UNL     1      -0.583  12.827  22.280  0.00  0.00    +0.000 C 
ATOM     10  C   UNL     1      -0.155  14.886  21.125  0.00  0.00    +0.000 C 
ATOM     11  C   UNL     1       1.048  12.723  20.277  0.00  0.00    +0.000 C 
BRANCH  11  12
ATOM     12  C   UNL     1       1.610  13.641  19.157  0.00  0.00    +0.000 C 
ATOM     13  O   UNL     1       0.956  14.513  18.581  0.00  0.00    +0.000 OA
ATOM     14  N   UNL     1       2.911  13.411  18.774  0.00  0.00    +0.000 N 
ATOM     15  H   UNL     1       3.294  12.472  18.806  0.00  0.00    +0.000 HD
BRANCH  14  16
ATOM     16  O   UNL     1       3.336  14.217  17.681  0.00  0.00    +0.000 OA
ATOM     17  H   UNL     1       2.481  14.489  17.272  0.00  0.00    +0.000 HD
ENDBRANCH  14  16
ENDBRANCH  11  12
BRANCH   6  18
ATOM     18  O   UNL     1      -2.212  12.235  17.761  0.00  0.00    +0.000 OA
ATOM     19  H   UNL     1      -1.864  11.688  17.031  0.00  0.00    +0.000 HD
ENDBRANCH   6  18
ENDBRANCH   1   4
BRANCH   1  23
ATOM     20  C   UNL     1       2.541   6.079  19.285  0.00  0.00    +0.000 A 
ATOM     21  C   UNL     1       2.571   7.220  18.472  0.00  0.00    +0.000 A 
ATOM     22  C   UNL     1       1.952   8.427  18.876  0.00  0.00    +0.000 A 
ATOM     23  C   UNL     1       1.288   8.485  20.100  0.00  0.00    +0.000 A 
ATOM     24  C   UNL     1       1.273   7.347  20.925  0.00  0.00    +0.000 A 
ATOM     25  C   UNL     1       1.884   6.154  20.514  0.00  0.00    +0.000 A 
BRANCH  20  26
ATOM     26  O   UNL     1       3.066   4.845  18.987  0.00  0.00    +0.000 OA
BRANCH  26  27
ATOM     27  C   UNL     1       3.807   4.725  17.772  0.00  0.00    +0.000 C 
BRANCH  27  33
ATOM     28  C   UNL     1       5.965   5.837  16.874  0.00  0.00    +0.000 A 
ATOM     29  C   UNL     1       7.246   6.362  17.145  0.00  0.00    +0.000 A 
ATOM     30  C   UNL     1       7.808   6.291  18.418  0.00  0.00    +0.000 A 
ATOM     31  C   UNL     1       7.108   5.681  19.449  0.00  0.00    +0.000 A 
ATOM     32  C   UNL     1       5.838   5.154  19.209  0.00  0.00    +0.000 A 
ATOM     33  C   UNL     1       5.241   5.229  17.933  0.00  0.00    +0.000 A 
BRANCH  28  35
ATOM     34  C   UNL     1       5.642   4.752  14.534  0.00  0.00    +0.000 C 
ATOM     35  C   UNL     1       5.365   5.915  15.483  0.00  0.00    +0.000 C 
ENDBRANCH  28  35
ENDBRANCH  27  33
ENDBRANCH  26  27
ENDBRANCH  20  26
ENDBRANCH   1  23
TORSDOF 9
ENDMDL
MODEL 5
REMARK VINA RESULT:      -8.1      5.464      8.529
REMARK  Name = 
REMARK  12 active torsions:
REMARK  status: ('A' for Active; 'I' for Inactive)
REMARK    1  A    between atoms: C_1  and  C_2
REMARK    2  A    between atoms: C_2  and  C_3
REMARK    3  A    between atoms: C_8  and  C_9
REMARK    4  A    between atoms: C_9  and  O_10
REMARK    5  A    between atoms: O_10  and  C_11
REMARK    6  A    between atoms: C_14  and  S_15
REMARK    7  A    between atoms: S_15  and  N_18
REMARK    8  A    between atoms: C_20  and  O_21
REMARK    9  A    between atoms: C_23  and  C_24
REMARK   10  A    between atoms: C_23  and  C_25
REMARK   11  A    between atoms: C_26  and  C_27
REMARK   12  A    between atoms: N_29  and  O_30
REMARK                            x       y       z     vdW  Elec       q    Type
REMARK                         _______ _______ _______ _____ _____    ______ ____
ROOT
ATOM      1  S   UNL     1       2.935   6.919  18.010  0.00  0.00    +0.000 S 
ATOM      2  O   UNL     1       1.902   6.042  17.503  0.00  0.00    +0.000 OA
ATOM      3  O   UNL     1       3.707   7.761  17.122  0.00  0.00    +0.000 OA
ENDROOT
BRANCH   1   4
ATOM      4  N   UNL     1       4.062   5.927  18.853  0.00  0.00    +0.000 NA
ATOM      5  C   UNL     1       3.570   4.575  19.218  0.00  0.00    +0.000 C 
ATOM      6  C   UNL     1       3.568   3.602  18.033  0.00  0.00    +0.000 C 
ATOM      7  C   UNL     1       4.814   3.619  17.133  0.00  0.00    +0.000 C 
ATOM      8  C   UNL     1       5.575   4.964  16.943  0.00  0.00    +0.000 C 
ATOM      9  C   UNL     1       5.156   5.759  15.683  0.00  0.00    +0.000 C 
ATOM     10  C   UNL     1       7.049   4.580  16.567  0.00  0.00    +0.000 C 
ATOM     11  C   UNL     1       5.487   5.838  18.245  0.00  0.00    +0.000 C 
BRANCH  11  12
ATOM     12  C   UNL     1       6.410   5.237  19.341  0.00  0.00    +0.000 C 
ATOM     13  O   UNL     1       6.128   4.245  20.018  0.00  0.00    +0.000 OA
ATOM     14  N   UNL     1       7.590   5.902  19.578  0.00  0.00    +0.000 N 
ATOM     15  H   UNL     1       7.640   6.909  19.467  0.00  0.00    +0.000 HD
BRANCH  14  16
ATOM     16  O   UNL     1       8.345   5.359  20.656  0.00  0.00    +0.000 OA
ATOM     17  H   UNL     1       7.985   4.443  20.728  0.00  0.00    +0.000 HD
ENDBRANCH  14  16
ENDBRANCH  11  12
BRANCH   6  18
ATOM     18  O   UNL     1       3.395   2.270  18.539  0.00  0.00    +0.000 OA
ATOM     19  H   UNL     1       3.584   1.642  17.817  0.00  0.00    +0.000 HD
ENDBRANCH   6  18
ENDBRANCH   1   4
BRANCH   1  23
ATOM     20  C   UNL     1       0.466   9.495  20.938  0.00  0.00    +0.000 A 
ATOM     21  C   UNL     1       0.693   9.945  19.631  0.00  0.00    +0.000 A 
ATOM     22  C   UNL     1       1.490   9.203  18.726  0.00  0.00    +0.000 A 
ATOM     23  C   UNL     1       2.072   8.007  19.141  0.00  0.00    +0.000 A 
ATOM     24  C   UNL     1       1.830   7.544  20.446  0.00  0.00    +0.000 A 
ATOM     25  C   UNL     1       1.044   8.289  21.337  0.00  0.00    +0.000 A 
BRANCH  20  26
ATOM     26  O   UNL     1      -0.249  10.141  21.916  0.00  0.00    +0.000 OA
BRANCH  26  27
ATOM     27  C   UNL     1      -0.289  11.567  21.863  0.00  0.00    +0.000 C 
BRANCH  27  33
ATOM     28  C   UNL     1      -2.491  12.528  20.899  0.00  0.00    +0.000 A 
ATOM     29  C   UNL     1      -3.832  12.908  21.120  0.00  0.00    +0.000 A 
ATOM     30  C   UNL     1      -4.400  12.872  22.393  0.00  0.00    +0.000 A 
ATOM     31  C   UNL     1      -3.636  12.469  23.478  0.00  0.00    +0.000 A 
ATOM     32  C   UNL     1      -2.306  12.087  23.289  0.00  0.00    +0.000 A 
ATOM     33  C   UNL     1      -1.715  12.098  22.008  0.00  0.00    +0.000 A 
BRANCH  28  35
ATOM     34  C   UNL     1      -2.431  11.604  18.471  0.00  0.00    +0.000 C 
ATOM     35  C   UNL     1      -1.882  12.576  19.512  0.00  0.00    +0.000 C 
ENDBRANCH  28  35
ENDBRANCH  27  33
ENDBRANCH  26  27
ENDBRANCH  20  26
ENDBRANCH   1  23
TORSDOF 9
ENDMDL
MODEL 6
REMARK VINA RESULT:      -8.0      1.263      1.847
REMARK  Name = 
REMARK  12 active torsions:
REMARK  status: ('A' for Active; 'I' for Inactive)
REMARK    1  A    between atoms: C_1  and  C_2
REMARK    2  A    between atoms: C_2  and  C_3
REMARK    3  A    between atoms: C_8  and  C_9
REMARK    4  A    between atoms: C_9  and  O_10
REMARK    5  A    between atoms: O_10  and  C_11
REMARK    6  A    between atoms: C_14  and  S_15
REMARK    7  A    between atoms: S_15  and  N_18
REMARK    8  A    between atoms: C_20  and  O_21
REMARK    9  A    between atoms: C_23  and  C_24
REMARK   10  A    between atoms: C_23  and  C_25
REMARK   11  A    between atoms: C_26  and  C_27
REMARK   12  A    between atoms: N_29  and  O_30
REMARK                            x       y       z     vdW  Elec       q    Type
REMARK                         _______ _______ _______ _____ _____    ______ ____
ROOT
ATOM      1  S   UNL     1       5.598   5.072  17.320  0.00  0.00    +0.000 S 
ATOM      2  O   UNL     1       4.429   5.611  16.658  0.00  0.00    +0.000 OA
ATOM      3  O   UNL     1       6.415   4.056  16.691  0.00  0.00    +0.000 OA
ENDROOT
BRANCH   1   4
ATOM      4  N   UNL     1       5.061   4.414  18.819  0.00  0.00    +0.000 NA
ATOM      5  C   UNL     1       4.415   5.381  19.742  0.00  0.00    +0.000 C 
ATOM      6  C   UNL     1       2.971   5.709  19.345  0.00  0.00    +0.000 C 
ATOM      7  C   UNL     1       2.091   4.519  18.928  0.00  0.00    +0.000 C 
ATOM      8  C   UNL     1       2.764   3.311  18.215  0.00  0.00    +0.000 C 
ATOM      9  C   UNL     1       2.703   3.372  16.668  0.00  0.00    +0.000 C 
ATOM     10  C   UNL     1       1.841   2.073  18.492  0.00  0.00    +0.000 C 
ATOM     11  C   UNL     1       4.231   3.107  18.737  0.00  0.00    +0.000 C 
BRANCH  11  12
ATOM     12  C   UNL     1       4.196   2.502  20.167  0.00  0.00    +0.000 C 
ATOM     13  O   UNL     1       3.359   2.796  21.024  0.00  0.00    +0.000 OA
ATOM     14  N   UNL     1       5.202   1.620  20.482  0.00  0.00    +0.000 N 
ATOM     15  H   UNL     1       6.125   1.731  20.076  0.00  0.00    +0.000 HD
BRANCH  14  16
ATOM     16  O   UNL     1       5.171   1.175  21.834  0.00  0.00    +0.000 OA
ATOM     17  H   UNL     1       4.402   0.557  21.838  0.00  0.00    +0.000 HD
ENDBRANCH  14  16
ENDBRANCH  11  12
BRANCH   6  18
ATOM     18  O   UNL     1       2.337   6.375  20.447  0.00  0.00    +0.000 OA
ATOM     19  H   UNL     1       2.210   7.312  20.206  0.00  0.00    +0.000 HD
ENDBRANCH   6  18
ENDBRANCH   1   4
BRANCH   1  23
ATOM     20  C   UNL     1       8.210   8.740  18.328  0.00  0.00    +0.000 A 
ATOM     21  C   UNL     1       7.125   8.874  17.453  0.00  0.00    +0.000 A 
ATOM     22  C   UNL     1       6.336   7.758  17.084  0.00  0.00    +0.000 A 
ATOM     23  C   UNL     1       6.649   6.497  17.587  0.00  0.00    +0.000 A 
ATOM     24  C   UNL     1       7.726   6.364  18.480  0.00  0.00    +0.000 A 
ATOM     25  C   UNL     1       8.504   7.474  18.836  0.00  0.00    +0.000 A 
BRANCH  20  26
ATOM     26  O   UNL     1       9.070   9.734  18.727  0.00  0.00    +0.000 OA
BRANCH  26  27
ATOM     27  C   UNL     1       9.686  10.516  17.703  0.00  0.00    +0.000 C 
BRANCH  27  33
ATOM     28  C   UNL     1      10.544  12.880  18.318  0.00  0.00    +0.000 A 
ATOM     29  C   UNL     1      10.283  14.264  18.414  0.00  0.00    +0.000 A 
ATOM     30  C   UNL     1       9.019  14.787  18.149  0.00  0.00    +0.000 A 
ATOM     31  C   UNL     1       7.980  13.938  17.795  0.00  0.00    +0.000 A 
ATOM     32  C   UNL     1       8.210  12.564  17.692  0.00  0.00    +0.000 A 
ATOM     33  C   UNL     1       9.485  12.014  17.938  0.00  0.00    +0.000 A 
BRANCH  28  35
ATOM     34  C   UNL     1      12.209  11.888  20.050  0.00  0.00    +0.000 C 
ATOM     35  C   UNL     1      11.922  12.321  18.614  0.00  0.00    +0.000 C 
ENDBRANCH  28  35
ENDBRANCH  27  33
ENDBRANCH  26  27
ENDBRANCH  20  26
ENDBRANCH   1  23
TORSDOF 9
ENDMDL
MODEL 7
REMARK VINA RESULT:      -8.0      0.792      1.157
REMARK  Name = 
REMARK  12 active torsions:
REMARK  status: ('A' for Active; 'I' for Inactive)
REMARK    1  A    between atoms: C_1  and  C_2
REMARK    2  A    between atoms: C_2  and  C_3
REMARK    3  A    between atoms: C_8  and  C_9
REMARK    4  A    between atoms: C_9  and  O_10
REMARK    5  A    between atoms: O_10  and  C_11
REMARK    6  A    between atoms: C_14  and  S_15
REMARK    7  A    between atoms: S_15  and  N_18
REMARK    8  A    between atoms: C_20  and  O_21
REMARK    9  A    between atoms: C_23  and  C_24
REMARK   10  A    between atoms: C_23  and  C_25
REMARK   11  A    between atoms: C_26  and  C_27
REMARK   12  A    between atoms: N_29  and  O_30
REMARK                            x       y       z     vdW  Elec       q    Type
REMARK                         _______ _______ _______ _____ _____    ______ ____
ROOT
ATOM      1  S   UNL     1       5.946   5.144  17.280  0.00  0.00    +0.000 S 
ATOM      2  O   UNL     1       4.850   5.746  16.550  0.00  0.00    +0.000 OA
ATOM      3  O   UNL     1       6.775   4.121  16.680  0.00  0.00    +0.000 OA
ENDROOT
BRANCH   1   4
ATOM      4  N   UNL     1       5.275   4.460  18.711  0.00  0.00    +0.000 NA
ATOM      5  C   UNL     1       4.512   5.401  19.568  0.00  0.00    +0.000 C 
ATOM      6  C   UNL     1       3.108   5.696  19.026  0.00  0.00    +0.000 C 
ATOM      7  C   UNL     1       2.307   4.488  18.513  0.00  0.00    +0.000 C 
ATOM      8  C   UNL     1       3.081   3.304  17.864  0.00  0.00    +0.000 C 
ATOM      9  C   UNL     1       3.179   3.378  16.320  0.00  0.00    +0.000 C 
ATOM     10  C   UNL     1       2.167   2.041  18.036  0.00  0.00    +0.000 C 
ATOM     11  C   UNL     1       4.491   3.132  18.534  0.00  0.00    +0.000 C 
BRANCH  11  12
ATOM     12  C   UNL     1       4.324   2.513  19.949  0.00  0.00    +0.000 C 
ATOM     13  O   UNL     1       3.386   2.763  20.709  0.00  0.00    +0.000 OA
ATOM     14  N   UNL     1       5.327   1.671  20.370  0.00  0.00    +0.000 N 
ATOM     15  H   UNL     1       6.284   1.825  20.069  0.00  0.00    +0.000 HD
BRANCH  14  16
ATOM     16  O   UNL     1       5.165   1.213  21.708  0.00  0.00    +0.000 OA
ATOM     17  H   UNL     1       4.869   2.029  22.178  0.00  0.00    +0.000 HD
ENDBRANCH  14  16
ENDBRANCH  11  12
BRANCH   6  18
ATOM     18  O   UNL     1       2.346   6.335  20.062  0.00  0.00    +0.000 OA
ATOM     19  H   UNL     1       2.192   5.686  20.773  0.00  0.00    +0.000 HD
ENDBRANCH   6  18
ENDBRANCH   1   4
BRANCH   1  23
ATOM     20  C   UNL     1       8.561   8.713  18.593  0.00  0.00    +0.000 A 
ATOM     21  C   UNL     1       7.664   8.859  17.527  0.00  0.00    +0.000 A 
ATOM     22  C   UNL     1       6.886   7.769  17.067  0.00  0.00    +0.000 A 
ATOM     23  C   UNL     1       7.020   6.522  17.675  0.00  0.00    +0.000 A 
ATOM     24  C   UNL     1       7.905   6.379  18.757  0.00  0.00    +0.000 A 
ATOM     25  C   UNL     1       8.675   7.463  19.201  0.00  0.00    +0.000 A 
BRANCH  20  26
ATOM     26  O   UNL     1       9.396   9.679  19.100  0.00  0.00    +0.000 OA
BRANCH  26  27
ATOM     27  C   UNL     1       8.917  11.024  19.099  0.00  0.00    +0.000 C 
BRANCH  27  33
ATOM     28  C   UNL     1      10.484  12.934  19.872  0.00  0.00    +0.000 A 
ATOM     29  C   UNL     1      11.602  13.752  19.601  0.00  0.00    +0.000 A 
ATOM     30  C   UNL     1      12.275  13.687  18.382  0.00  0.00    +0.000 A 
ATOM     31  C   UNL     1      11.838  12.813  17.398  0.00  0.00    +0.000 A 
ATOM     32  C   UNL     1      10.734  11.991  17.638  0.00  0.00    +0.000 A 
ATOM     33  C   UNL     1      10.048  12.026  18.870  0.00  0.00    +0.000 A 
BRANCH  28  35
ATOM     34  C   UNL     1       9.906  14.306  22.002  0.00  0.00    +0.000 C 
ATOM     35  C   UNL     1       9.756  13.016  21.199  0.00  0.00    +0.000 C 
ENDBRANCH  28  35
ENDBRANCH  27  33
ENDBRANCH  26  27
ENDBRANCH  20  26
ENDBRANCH   1  23
TORSDOF 9
ENDMDL
MODEL 8
REMARK VINA RESULT:      -8.0      5.194      8.793
REMARK  Name = 
REMARK  12 active torsions:
REMARK  status: ('A' for Active; 'I' for Inactive)
REMARK    1  A    between atoms: C_1  and  C_2
REMARK    2  A    between atoms: C_2  and  C_3
REMARK    3  A    between atoms: C_8  and  C_9
REMARK    4  A    between atoms: C_9  and  O_10
REMARK    5  A    between atoms: O_10  and  C_11
REMARK    6  A    between atoms: C_14  and  S_15
REMARK    7  A    between atoms: S_15  and  N_18
REMARK    8  A    between atoms: C_20  and  O_21
REMARK    9  A    between atoms: C_23  and  C_24
REMARK   10  A    between atoms: C_23  and  C_25
REMARK   11  A    between atoms: C_26  and  C_27
REMARK   12  A    between atoms: N_29  and  O_30
REMARK                            x       y       z     vdW  Elec       q    Type
REMARK                         _______ _______ _______ _____ _____    ______ ____
ROOT
ATOM      1  S   UNL     1       0.940   8.860  21.061  0.00  0.00    +0.000 S 
ATOM      2  O   UNL     1      -0.470   8.555  21.177  0.00  0.00    +0.000 OA
ATOM      3  O   UNL     1       1.769   9.033  22.235  0.00  0.00    +0.000 OA
ENDROOT
BRANCH   1   4
ATOM      4  N   UNL     1       1.062  10.317  20.151  0.00  0.00    +0.000 NA
ATOM      5  C   UNL     1       0.197  10.388  18.947  0.00  0.00    +0.000 C 
ATOM      6  C   UNL     1      -1.267  10.695  19.282  0.00  0.00    +0.000 C 
ATOM      7  C   UNL     1      -1.512  11.799  20.325  0.00  0.00    +0.000 C 
ATOM      8  C   UNL     1      -0.470  11.987  21.466  0.00  0.00    +0.000 C 
ATOM      9  C   UNL     1      -0.820  11.238  22.775  0.00  0.00    +0.000 C 
ATOM     10  C   UNL     1      -0.608  13.477  21.938  0.00  0.00    +0.000 C 
ATOM     11  C   UNL     1       0.975  11.639  20.958  0.00  0.00    +0.000 C 
BRANCH  11  12
ATOM     12  C   UNL     1       1.488  12.772  20.028  0.00  0.00    +0.000 C 
ATOM     13  O   UNL     1       0.943  13.104  18.973  0.00  0.00    +0.000 OA
ATOM     14  N   UNL     1       2.652  13.397  20.411  0.00  0.00    +0.000 N 
ATOM     15  H   UNL     1       3.369  12.881  20.909  0.00  0.00    +0.000 HD
BRANCH  14  16
ATOM     16  O   UNL     1       3.121  14.357  19.470  0.00  0.00    +0.000 OA
ATOM     17  H   UNL     1       2.476  15.096  19.581  0.00  0.00    +0.000 HD
ENDBRANCH  14  16
ENDBRANCH  11  12
BRANCH   6  18
ATOM     18  O   UNL     1      -1.944  11.062  18.070  0.00  0.00    +0.000 OA
ATOM     19  H   UNL     1      -1.385  10.797  17.316  0.00  0.00    +0.000 HD
ENDBRANCH   6  18
ENDBRANCH   1   4
BRANCH   1  23
ATOM     20  C   UNL     1       2.908   5.264  18.941  0.00  0.00    +0.000 A 
ATOM     21  C   UNL     1       2.946   6.532  18.347  0.00  0.00    +0.000 A 
ATOM     22  C   UNL     1       2.307   7.644  18.947  0.00  0.00    +0.000 A 
ATOM     23  C   UNL     1       1.615   7.477  20.145  0.00  0.00    +0.000 A 
ATOM     24  C   UNL     1       1.592   6.210  20.752  0.00  0.00    +0.000 A 
ATOM     25  C   UNL     1       2.223   5.114  20.147  0.00  0.00    +0.000 A 
BRANCH  20  26
ATOM     26  O   UNL     1       3.451   4.106  18.439  0.00  0.00    +0.000 OA
BRANCH  26  27
ATOM     27  C   UNL     1       4.748   3.736  18.906  0.00  0.00    +0.000 C 
BRANCH  27  33
ATOM     28  C   UNL     1       6.082   4.837  16.980  0.00  0.00    +0.000 A 
ATOM     29  C   UNL     1       7.033   5.797  16.575  0.00  0.00    +0.000 A 
ATOM     30  C   UNL     1       7.725   6.573  17.503  0.00  0.00    +0.000 A 
ATOM     31  C   UNL     1       7.492   6.399  18.859  0.00  0.00    +0.000 A 
ATOM     32  C   UNL     1       6.556   5.456  19.288  0.00  0.00    +0.000 A 
ATOM     33  C   UNL     1       5.831   4.671  18.367  0.00  0.00    +0.000 A 
BRANCH  28  35
ATOM     34  C   UNL     1       5.538   4.335  14.488  0.00  0.00    +0.000 C 
ATOM     35  C   UNL     1       5.339   3.993  15.962  0.00  0.00    +0.000 C 
ENDBRANCH  28  35
ENDBRANCH  27  33
ENDBRANCH  26  27
ENDBRANCH  20  26
ENDBRANCH   1  23
TORSDOF 9
ENDMDL
MODEL 9
REMARK VINA RESULT:      -8.0      5.821      8.011
REMARK  Name = 
REMARK  12 active torsions:
REMARK  status: ('A' for Active; 'I' for Inactive)
REMARK    1  A    between atoms: C_1  and  C_2
REMARK    2  A    between atoms: C_2  and  C_3
REMARK    3  A    between atoms: C_8  and  C_9
REMARK    4  A    between atoms: C_9  and  O_10
REMARK    5  A    between atoms: O_10  and  C_11
REMARK    6  A    between atoms: C_14  and  S_15
REMARK    7  A    between atoms: S_15  and  N_18
REMARK    8  A    between atoms: C_20  and  O_21
REMARK    9  A    between atoms: C_23  and  C_24
REMARK   10  A    between atoms: C_23  and  C_25
REMARK   11  A    between atoms: C_26  and  C_27
REMARK   12  A    between atoms: N_29  and  O_30
REMARK                            x       y       z     vdW  Elec       q    Type
REMARK                         _______ _______ _______ _____ _____    ______ ____
ROOT
ATOM      1  S   UNL     1       2.969   5.970  18.639  0.00  0.00    +0.000 S 
ATOM      2  O   UNL     1       2.052   5.633  17.571  0.00  0.00    +0.000 OA
ATOM      3  O   UNL     1       4.348   6.310  18.363  0.00  0.00    +0.000 OA
ENDROOT
BRANCH   1   4
ATOM      4  N   UNL     1       2.997   4.625  19.714  0.00  0.00    +0.000 NA
ATOM      5  C   UNL     1       1.667   4.141  20.160  0.00  0.00    +0.000 C 
ATOM      6  C   UNL     1       0.952   3.301  19.096  0.00  0.00    +0.000 C 
ATOM      7  C   UNL     1       1.809   2.259  18.358  0.00  0.00    +0.000 C 
ATOM      8  C   UNL     1       3.315   2.573  18.118  0.00  0.00    +0.000 C 
ATOM      9  C   UNL     1       3.621   3.203  16.737  0.00  0.00    +0.000 C 
ATOM     10  C   UNL     1       4.029   1.184  17.967  0.00  0.00    +0.000 C 
ATOM     11  C   UNL     1       3.896   3.432  19.297  0.00  0.00    +0.000 C 
BRANCH  11  12
ATOM     12  C   UNL     1       4.074   2.538  20.555  0.00  0.00    +0.000 C 
ATOM     13  O   UNL     1       3.251   2.455  21.469  0.00  0.00    +0.000 OA
ATOM     14  N   UNL     1       5.256   1.841  20.647  0.00  0.00    +0.000 N 
ATOM     15  H   UNL     1       6.110   2.230  20.261  0.00  0.00    +0.000 HD
BRANCH  14  16
ATOM     16  O   UNL     1       5.400   1.118  21.864  0.00  0.00    +0.000 OA
ATOM     17  H   UNL     1       6.367   1.195  22.045  0.00  0.00    +0.000 HD
ENDBRANCH  14  16
ENDBRANCH  11  12
BRANCH   6  18
ATOM     18  O   UNL     1      -0.148   2.619  19.719  0.00  0.00    +0.000 OA
ATOM     19  H   UNL     1      -0.919   3.217  19.716  0.00  0.00    +0.000 HD
ENDBRANCH   6  18
ENDBRANCH   1   4
BRANCH   1  23
ATOM     20  C   UNL     1       0.775   9.471  20.696  0.00  0.00    +0.000 A 
ATOM     21  C   UNL     1       1.149   9.574  19.350  0.00  0.00    +0.000 A 
ATOM     22  C   UNL     1       1.868   8.539  18.705  0.00  0.00    +0.000 A 
ATOM     23  C   UNL     1       2.225   7.398  19.421  0.00  0.00    +0.000 A 
ATOM     24  C   UNL     1       1.835   7.285  20.767  0.00  0.00    +0.000 A 
ATOM     25  C   UNL     1       1.128   8.317  21.398  0.00  0.00    +0.000 A 
BRANCH  20  26
ATOM     26  O   UNL     1       0.116  10.419  21.440  0.00  0.00    +0.000 OA
BRANCH  26  27
ATOM     27  C   UNL     1      -0.056  11.708  20.852  0.00  0.00    +0.000 C 
BRANCH  27  33
ATOM     28  C   UNL     1      -2.359  12.134  19.750  0.00  0.00    +0.000 A 
ATOM     29  C   UNL     1      -3.720  12.473  19.908  0.00  0.00    +0.000 A 
ATOM     30  C   UNL     1      -4.243  12.829  21.149  0.00  0.00    +0.000 A 
ATOM     31  C   UNL     1      -3.416  12.869  22.262  0.00  0.00    +0.000 A 
ATOM     32  C   UNL     1      -2.065  12.539  22.135  0.00  0.00    +0.000 A 
ATOM     33  C   UNL     1      -1.516  12.158  20.892  0.00  0.00    +0.000 A 
BRANCH  28  35
ATOM     34  C   UNL     1      -2.091  10.343  17.885  0.00  0.00    +0.000 C 
ATOM     35  C   UNL     1      -1.799  11.753  18.393  0.00  0.00    +0.000 C 
ENDBRANCH  28  35
ENDBRANCH  27  33
ENDBRANCH  26  27
ENDBRANCH  20  26
ENDBRANCH   1  23
TORSDOF 9
ENDMDL
