MODEL 1
REMARK VINA RESULT:      -7.5      0.000      0.000
REMARK  Name = 
REMARK  11 active torsions:
REMARK  status: ('A' for Active; 'I' for Inactive)
REMARK    1  A    between atoms: C_1  and  C_2
REMARK    2  A    between atoms: C_2  and  C_3
REMARK    3  A    between atoms: C_3  and  C_4
REMARK    4  A    between atoms: C_4  and  N_5
REMARK    5  A    between atoms: N_5  and  C_14
REMARK    6  A    between atoms: C_6  and  C_8
REMARK    7  A    between atoms: C_15  and  N_16
REMARK    8  A    between atoms: N_17  and  C_18
REMARK    9  A    between atoms: C_18  and  C_19
REMARK   10  A    between atoms: C_19  and  C_20
REMARK   11  A    between atoms: C_20  and  C_21
REMARK                            x       y       z     vdW  Elec       q    Type
REMARK                         _______ _______ _______ _____ _____    ______ ____
ROOT
ATOM      1  C   UNL     1       4.810   4.144  17.517  0.00  0.00    +0.000 A 
ATOM      2  C   UNL     1       3.658   3.443  17.632  0.00  0.00    +0.000 A 
ATOM      3  N   UNL     1       3.444   2.647  18.759  0.00  0.00    +0.000 N 
ATOM      4  C   UNL     1       4.390   2.536  19.774  0.00  0.00    +0.000 A 
ATOM      5  O   UNL     1       4.213   1.913  20.825  0.00  0.00    +0.000 OA
ATOM      6  N   UNL     1       5.565   3.194  19.594  0.00  0.00    +0.000 N 
ATOM      7  C   UNL     1       5.823   4.088  18.608  0.00  0.00    +0.000 A 
ATOM      8  O   UNL     1       6.821   4.808  18.622  0.00  0.00    +0.000 OA
ATOM      9  H   UNL     1       6.223   3.165  20.360  0.00  0.00    +0.000 HD
ENDROOT
BRANCH   1  10
ATOM     10  N   UNL     1       5.037   5.014  16.459  0.00  0.00    +0.000 N 
ATOM     11  C   UNL     1       4.782   6.391  16.554  0.00  0.00    +0.000 C 
ATOM     12  O   UNL     1       5.208   7.182  15.708  0.00  0.00    +0.000 OA
BRANCH  11  13
ATOM     13  C   UNL     1       3.856   6.909  17.655  0.00  0.00    +0.000 C 
ATOM     14  C   UNL     1       2.966   7.852  17.313  0.00  0.00    +0.000 C 
ATOM     15  O   UNL     1       1.991   8.376  18.118  0.00  0.00    +0.000 OA
ATOM     16  C   UNL     1       1.977   7.873  19.454  0.00  0.00    +0.000 C 
ATOM     17  C   UNL     1       2.668   6.527  19.646  0.00  0.00    +0.000 C 
ATOM     18  O   UNL     1       3.895   6.374  18.932  0.00  0.00    +0.000 OA
ENDBRANCH  11  13
BRANCH  10  19
ATOM     19  C   UNL     1       5.993   4.542  15.431  0.00  0.00    +0.000 C 
BRANCH  19  20
ATOM     20  C   UNL     1       5.291   4.092  14.145  0.00  0.00    +0.000 C 
BRANCH  20  22
ATOM     21  C   UNL     1       5.550   2.971  11.906  0.00  0.00    +0.000 C 
ATOM     22  C   UNL     1       6.269   3.705  13.033  0.00  0.00    +0.000 C 
ENDBRANCH  20  22
ENDBRANCH  19  20
ENDBRANCH  10  19
ENDBRANCH   1  10
BRANCH   2  23
ATOM     23  N   UNL     1       2.678   3.587  16.653  0.00  0.00    +0.000 N 
ATOM     24  H   UNL     1       2.917   3.064  15.811  0.00  0.00    +0.000 HD
ATOM     25  H   UNL     1       2.486   4.557  16.428  0.00  0.00    +0.000 HD
ENDBRANCH   2  23
BRANCH   3  26
ATOM     26  C   UNL     1       2.149   1.985  18.976  0.00  0.00    +0.000 C 
BRANCH  26  27
ATOM     27  C   UNL     1       0.964   2.903  19.289  0.00  0.00    +0.000 C 
BRANCH  27  28
ATOM     28  C   UNL     1       1.096   3.646  20.615  0.00  0.00    +0.000 C 
ATOM     29  C   UNL     1       1.257   2.658  21.760  0.00  0.00    +0.000 C 
ENDBRANCH  27  28
ENDBRANCH  26  27
ENDBRANCH   3  26
TORSDOF 9
ENDMDL
MODEL 2
REMARK VINA RESULT:      -6.7      1.489      4.481
REMARK  Name = 
REMARK  11 active torsions:
REMARK  status: ('A' for Active; 'I' for Inactive)
REMARK    1  A    between atoms: C_1  and  C_2
REMARK    2  A    between atoms: C_2  and  C_3
REMARK    3  A    between atoms: C_3  and  C_4
REMARK    4  A    between atoms: C_4  and  N_5
REMARK    5  A    between atoms: N_5  and  C_14
REMARK    6  A    between atoms: C_6  and  C_8
REMARK    7  A    between atoms: C_15  and  N_16
REMARK    8  A    between atoms: N_17  and  C_18
REMARK    9  A    between atoms: C_18  and  C_19
REMARK   10  A    between atoms: C_19  and  C_20
REMARK   11  A    between atoms: C_20  and  C_21
REMARK                            x       y       z     vdW  Elec       q    Type
REMARK                         _______ _______ _______ _____ _____    ______ ____
ROOT
ATOM      1  C   UNL     1       3.887   5.072  18.443  0.00  0.00    +0.000 A 
ATOM      2  C   UNL     1       2.931   4.157  18.159  0.00  0.00    +0.000 A 
ATOM      3  N   UNL     1       3.097   2.834  18.575  0.00  0.00    +0.000 N 
ATOM      4  C   UNL     1       4.229   2.416  19.269  0.00  0.00    +0.000 A 
ATOM      5  O   UNL     1       4.384   1.281  19.729  0.00  0.00    +0.000 OA
ATOM      6  N   UNL     1       5.203   3.342  19.473  0.00  0.00    +0.000 N 
ATOM      7  C   UNL     1       5.089   4.670  19.226  0.00  0.00    +0.000 A 
ATOM      8  O   UNL     1       5.918   5.485  19.631  0.00  0.00    +0.000 OA
ATOM      9  H   UNL     1       5.993   3.053  20.032  0.00  0.00    +0.000 HD
ENDROOT
BRANCH   1  10
ATOM     10  N   UNL     1       3.734   6.416  18.125  0.00  0.00    +0.000 N 
ATOM     11  C   UNL     1       4.194   6.955  16.913  0.00  0.00    +0.000 C 
ATOM     12  O   UNL     1       3.845   8.077  16.538  0.00  0.00    +0.000 OA
BRANCH  11  13
ATOM     13  C   UNL     1       5.244   6.193  16.103  0.00  0.00    +0.000 C 
ATOM     14  C   UNL     1       6.531   6.473  16.352  0.00  0.00    +0.000 C 
ATOM     15  O   UNL     1       7.618   5.842  15.810  0.00  0.00    +0.000 OA
ATOM     16  C   UNL     1       7.310   4.818  14.864  0.00  0.00    +0.000 C 
ATOM     17  C   UNL     1       5.901   4.244  14.966  0.00  0.00    +0.000 C 
ATOM     18  O   UNL     1       4.875   5.209  15.201  0.00  0.00    +0.000 OA
ENDBRANCH  11  13
BRANCH  10  19
ATOM     19  C   UNL     1       2.666   7.133  18.858  0.00  0.00    +0.000 C 
BRANCH  19  20
ATOM     20  C   UNL     1       2.505   6.627  20.296  0.00  0.00    +0.000 C 
BRANCH  20  22
ATOM     21  C   UNL     1       1.253   8.498  21.422  0.00  0.00    +0.000 C 
ATOM     22  C   UNL     1       1.182   7.054  20.936  0.00  0.00    +0.000 C 
ENDBRANCH  20  22
ENDBRANCH  19  20
ENDBRANCH  10  19
ENDBRANCH   1  10
BRANCH   2  23
ATOM     23  N   UNL     1       1.767   4.570  17.516  0.00  0.00    +0.000 N 
ATOM     24  H   UNL     1       0.937   4.209  17.986  0.00  0.00    +0.000 HD
ATOM     25  H   UNL     1       1.754   4.326  16.532  0.00  0.00    +0.000 HD
ENDBRANCH   2  23
BRANCH   3  26
ATOM     26  C   UNL     1       2.017   1.851  18.404  0.00  0.00    +0.000 C 
BRANCH  26  27
ATOM     27  C   UNL     1       0.970   1.794  19.520  0.00  0.00    +0.000 C 
BRANCH  27  28
ATOM     28  C   UNL     1       0.950   3.035  20.407  0.00  0.00    +0.000 C 
ATOM     29  C   UNL     1       1.531   2.715  21.776  0.00  0.00    +0.000 C 
ENDBRANCH  27  28
ENDBRANCH  26  27
ENDBRANCH   3  26
TORSDOF 9
ENDMDL
MODEL 3
REMARK VINA RESULT:      -6.7      1.646      5.428
REMARK  Name = 
REMARK  11 active torsions:
REMARK  status: ('A' for Active; 'I' for Inactive)
REMARK    1  A    between atoms: C_1  and  C_2
REMARK    2  A    between atoms: C_2  and  C_3
REMARK    3  A    between atoms: C_3  and  C_4
REMARK    4  A    between atoms: C_4  and  N_5
REMARK    5  A    between atoms: N_5  and  C_14
REMARK    6  A    between atoms: C_6  and  C_8
REMARK    7  A    between atoms: C_15  and  N_16
REMARK    8  A    between atoms: N_17  and  C_18
REMARK    9  A    between atoms: C_18  and  C_19
REMARK   10  A    between atoms: C_19  and  C_20
REMARK   11  A    between atoms: C_20  and  C_21
REMARK                            x       y       z     vdW  Elec       q    Type
REMARK                         _______ _______ _______ _____ _____    ______ ____
ROOT
ATOM      1  C   UNL     1       4.817   4.341  18.279  0.00  0.00    +0.000 A 
ATOM      2  C   UNL     1       4.630   4.286  16.940  0.00  0.00    +0.000 A 
ATOM      3  N   UNL     1       5.545   4.909  16.088  0.00  0.00    +0.000 N 
ATOM      4  C   UNL     1       6.650   5.603  16.575  0.00  0.00    +0.000 A 
ATOM      5  O   UNL     1       7.529   6.098  15.864  0.00  0.00    +0.000 OA
ATOM      6  N   UNL     1       6.768   5.702  17.925  0.00  0.00    +0.000 N 
ATOM      7  C   UNL     1       6.015   5.034  18.832  0.00  0.00    +0.000 A 
ATOM      8  O   UNL     1       6.308   4.997  20.027  0.00  0.00    +0.000 OA
ATOM      9  H   UNL     1       7.603   6.150  18.275  0.00  0.00    +0.000 HD
ENDROOT
BRANCH   1  10
ATOM     10  N   UNL     1       3.983   3.670  19.165  0.00  0.00    +0.000 N 
ATOM     11  C   UNL     1       2.716   4.161  19.517  0.00  0.00    +0.000 C 
ATOM     12  O   UNL     1       1.895   3.451  20.104  0.00  0.00    +0.000 OA
BRANCH  11  13
ATOM     13  C   UNL     1       2.390   5.636  19.282  0.00  0.00    +0.000 C 
ATOM     14  C   UNL     1       2.135   6.386  20.364  0.00  0.00    +0.000 C 
ATOM     15  O   UNL     1       1.917   7.737  20.380  0.00  0.00    +0.000 OA
ATOM     16  C   UNL     1       1.932   8.366  19.099  0.00  0.00    +0.000 C 
ATOM     17  C   UNL     1       2.660   7.590  18.006  0.00  0.00    +0.000 C 
ATOM     18  O   UNL     1       2.425   6.182  18.010  0.00  0.00    +0.000 OA
ENDBRANCH  11  13
BRANCH  10  19
ATOM     19  C   UNL     1       4.255   2.224  19.334  0.00  0.00    +0.000 C 
BRANCH  19  20
ATOM     20  C   UNL     1       4.864   1.902  20.703  0.00  0.00    +0.000 C 
BRANCH  20  22
ATOM     21  C   UNL     1       6.080   0.234  22.143  0.00  0.00    +0.000 C 
ATOM     22  C   UNL     1       5.431   0.482  20.786  0.00  0.00    +0.000 C 
ENDBRANCH  20  22
ENDBRANCH  19  20
ENDBRANCH  10  19
ENDBRANCH   1  10
BRANCH   2  23
ATOM     23  N   UNL     1       3.562   3.548  16.435  0.00  0.00    +0.000 N 
ATOM     24  H   UNL     1       3.443   2.673  16.946  0.00  0.00    +0.000 HD
ATOM     25  H   UNL     1       3.643   3.371  15.439  0.00  0.00    +0.000 HD
ENDBRANCH   2  23
BRANCH   3  26
ATOM     26  C   UNL     1       5.445   4.749  14.631  0.00  0.00    +0.000 C 
BRANCH  26  27
ATOM     27  C   UNL     1       6.286   3.629  14.013  0.00  0.00    +0.000 C 
BRANCH  27  28
ATOM     28  C   UNL     1       6.245   3.600  12.488  0.00  0.00    +0.000 C 
ATOM     29  C   UNL     1       4.819   3.383  12.003  0.00  0.00    +0.000 C 
ENDBRANCH  27  28
ENDBRANCH  26  27
ENDBRANCH   3  26
TORSDOF 9
ENDMDL
MODEL 4
REMARK VINA RESULT:      -6.6      2.244      3.774
REMARK  Name = 
REMARK  11 active torsions:
REMARK  status: ('A' for Active; 'I' for Inactive)
REMARK    1  A    between atoms: C_1  and  C_2
REMARK    2  A    between atoms: C_2  and  C_3
REMARK    3  A    between atoms: C_3  and  C_4
REMARK    4  A    between atoms: C_4  and  N_5
REMARK    5  A    between atoms: N_5  and  C_14
REMARK    6  A    between atoms: C_6  and  C_8
REMARK    7  A    between atoms: C_15  and  N_16
REMARK    8  A    between atoms: N_17  and  C_18
REMARK    9  A    between atoms: C_18  and  C_19
REMARK   10  A    between atoms: C_19  and  C_20
REMARK   11  A    between atoms: C_20  and  C_21
REMARK                            x       y       z     vdW  Elec       q    Type
REMARK                         _______ _______ _______ _____ _____    ______ ____
ROOT
ATOM      1  C   UNL     1       4.743   5.587  17.498  0.00  0.00    +0.000 A 
ATOM      2  C   UNL     1       4.457   4.884  18.619  0.00  0.00    +0.000 A 
ATOM      3  N   UNL     1       3.479   5.355  19.497  0.00  0.00    +0.000 N 
ATOM      4  C   UNL     1       2.789   6.542  19.265  0.00  0.00    +0.000 A 
ATOM      5  O   UNL     1       1.861   6.956  19.966  0.00  0.00    +0.000 OA
ATOM      6  N   UNL     1       3.151   7.260  18.170  0.00  0.00    +0.000 N 
ATOM      7  C   UNL     1       3.990   6.836  17.193  0.00  0.00    +0.000 A 
ATOM      8  O   UNL     1       4.110   7.437  16.126  0.00  0.00    +0.000 OA
ATOM      9  H   UNL     1       2.606   8.086  17.969  0.00  0.00    +0.000 HD
ENDROOT
BRANCH   1  10
ATOM     10  N   UNL     1       5.646   5.122  16.551  0.00  0.00    +0.000 N 
ATOM     11  C   UNL     1       7.008   5.461  16.585  0.00  0.00    +0.000 C 
ATOM     12  O   UNL     1       7.836   4.859  15.896  0.00  0.00    +0.000 OA
BRANCH  11  13
ATOM     13  C   UNL     1       7.458   6.677  17.395  0.00  0.00    +0.000 C 
ATOM     14  C   UNL     1       8.114   6.440  18.540  0.00  0.00    +0.000 C 
ATOM     15  O   UNL     1       8.682   7.379  19.359  0.00  0.00    +0.000 OA
ATOM     16  C   UNL     1       8.503   8.732  18.939  0.00  0.00    +0.000 C 
ATOM     17  C   UNL     1       8.178   8.913  17.460  0.00  0.00    +0.000 C 
ATOM     18  O   UNL     1       7.254   7.964  16.927  0.00  0.00    +0.000 OA
ENDBRANCH  11  13
BRANCH  10  19
ATOM     19  C   UNL     1       5.240   3.899  15.820  0.00  0.00    +0.000 C 
BRANCH  19  20
ATOM     20  C   UNL     1       4.958   4.173  14.339  0.00  0.00    +0.000 C 
BRANCH  20  22
ATOM     21  C   UNL     1       5.523   3.201  12.086  0.00  0.00    +0.000 C 
ATOM     22  C   UNL     1       6.082   3.693  13.416  0.00  0.00    +0.000 C 
ENDBRANCH  20  22
ENDBRANCH  19  20
ENDBRANCH  10  19
ENDBRANCH   1  10
BRANCH   2  23
ATOM     23  N   UNL     1       5.097   3.667  18.837  0.00  0.00    +0.000 N 
ATOM     24  H   UNL     1       6.070   3.805  19.108  0.00  0.00    +0.000 HD
ATOM     25  H   UNL     1       5.034   3.042  18.040  0.00  0.00    +0.000 HD
ENDBRANCH   2  23
BRANCH   3  26
ATOM     26  C   UNL     1       3.050   4.547  20.647  0.00  0.00    +0.000 C 
BRANCH  26  27
ATOM     27  C   UNL     1       1.676   3.880  20.531  0.00  0.00    +0.000 C 
BRANCH  27  28
ATOM     28  C   UNL     1       1.726   2.470  19.950  0.00  0.00    +0.000 C 
ATOM     29  C   UNL     1       0.823   2.371  18.729  0.00  0.00    +0.000 C 
ENDBRANCH  27  28
ENDBRANCH  26  27
ENDBRANCH   3  26
TORSDOF 9
ENDMDL
MODEL 5
REMARK VINA RESULT:      -6.5      1.471      4.257
REMARK  Name = 
REMARK  11 active torsions:
REMARK  status: ('A' for Active; 'I' for Inactive)
REMARK    1  A    between atoms: C_1  and  C_2
REMARK    2  A    between atoms: C_2  and  C_3
REMARK    3  A    between atoms: C_3  and  C_4
REMARK    4  A    between atoms: C_4  and  N_5
REMARK    5  A    between atoms: N_5  and  C_14
REMARK    6  A    between atoms: C_6  and  C_8
REMARK    7  A    between atoms: C_15  and  N_16
REMARK    8  A    between atoms: N_17  and  C_18
REMARK    9  A    between atoms: C_18  and  C_19
REMARK   10  A    between atoms: C_19  and  C_20
REMARK   11  A    between atoms: C_20  and  C_21
REMARK                            x       y       z     vdW  Elec       q    Type
REMARK                         _______ _______ _______ _____ _____    ______ ____
ROOT
ATOM      1  C   UNL     1       4.034   5.063  18.477  0.00  0.00    +0.000 A 
ATOM      2  C   UNL     1       3.053   4.181  18.176  0.00  0.00    +0.000 A 
ATOM      3  N   UNL     1       3.177   2.848  18.576  0.00  0.00    +0.000 N 
ATOM      4  C   UNL     1       4.294   2.388  19.269  0.00  0.00    +0.000 A 
ATOM      5  O   UNL     1       4.412   1.242  19.715  0.00  0.00    +0.000 OA
ATOM      6  N   UNL     1       5.292   3.282  19.490  0.00  0.00    +0.000 N 
ATOM      7  C   UNL     1       5.220   4.616  19.260  0.00  0.00    +0.000 A 
ATOM      8  O   UNL     1       6.070   5.400  19.679  0.00  0.00    +0.000 OA
ATOM      9  H   UNL     1       6.071   2.962  20.049  0.00  0.00    +0.000 HD
ENDROOT
BRANCH   1  10
ATOM     10  N   UNL     1       3.922   6.415  18.176  0.00  0.00    +0.000 N 
ATOM     11  C   UNL     1       4.340   6.945  16.945  0.00  0.00    +0.000 C 
ATOM     12  O   UNL     1       4.019   8.084  16.596  0.00  0.00    +0.000 OA
BRANCH  11  13
ATOM     13  C   UNL     1       5.310   6.146  16.074  0.00  0.00    +0.000 C 
ATOM     14  C   UNL     1       6.620   6.337  16.285  0.00  0.00    +0.000 C 
ATOM     15  O   UNL     1       7.646   5.657  15.686  0.00  0.00    +0.000 OA
ATOM     16  C   UNL     1       7.242   4.686  14.720  0.00  0.00    +0.000 C 
ATOM     17  C   UNL     1       5.803   4.198  14.855  0.00  0.00    +0.000 C 
ATOM     18  O   UNL     1       4.849   5.217  15.157  0.00  0.00    +0.000 OA
ENDBRANCH  11  13
BRANCH  10  19
ATOM     19  C   UNL     1       2.927   7.171  18.970  0.00  0.00    +0.000 C 
BRANCH  19  20
ATOM     20  C   UNL     1       1.959   7.965  18.087  0.00  0.00    +0.000 C 
BRANCH  20  22
ATOM     21  C   UNL     1       1.897  10.482  18.097  0.00  0.00    +0.000 C 
ATOM     22  C   UNL     1       1.402   9.212  18.780  0.00  0.00    +0.000 C 
ENDBRANCH  20  22
ENDBRANCH  19  20
ENDBRANCH  10  19
ENDBRANCH   1  10
BRANCH   2  23
ATOM     23  N   UNL     1       1.905   4.637  17.534  0.00  0.00    +0.000 N 
ATOM     24  H   UNL     1       1.072   4.163  17.885  0.00  0.00    +0.000 HD
ATOM     25  H   UNL     1       1.962   4.556  16.524  0.00  0.00    +0.000 HD
ENDBRANCH   2  23
BRANCH   3  26
ATOM     26  C   UNL     1       2.070   1.900  18.386  0.00  0.00    +0.000 C 
BRANCH  26  27
ATOM     27  C   UNL     1       1.031   1.840  19.509  0.00  0.00    +0.000 C 
BRANCH  27  28
ATOM     28  C   UNL     1       1.046   3.059  20.426  0.00  0.00    +0.000 C 
ATOM     29  C   UNL     1       1.605   2.685  21.791  0.00  0.00    +0.000 C 
ENDBRANCH  27  28
ENDBRANCH  26  27
ENDBRANCH   3  26
TORSDOF 9
ENDMDL
MODEL 6
REMARK VINA RESULT:      -6.5      0.688      1.093
REMARK  Name = 
REMARK  11 active torsions:
REMARK  status: ('A' for Active; 'I' for Inactive)
REMARK    1  A    between atoms: C_1  and  C_2
REMARK    2  A    between atoms: C_2  and  C_3
REMARK    3  A    between atoms: C_3  and  C_4
REMARK    4  A    between atoms: C_4  and  N_5
REMARK    5  A    between atoms: N_5  and  C_14
REMARK    6  A    between atoms: C_6  and  C_8
REMARK    7  A    between atoms: C_15  and  N_16
REMARK    8  A    between atoms: N_17  and  C_18
REMARK    9  A    between atoms: C_18  and  C_19
REMARK   10  A    between atoms: C_19  and  C_20
REMARK   11  A    between atoms: C_20  and  C_21
REMARK                            x       y       z     vdW  Elec       q    Type
REMARK                         _______ _______ _______ _____ _____    ______ ____
ROOT
ATOM      1  C   UNL     1       4.943   4.211  17.384  0.00  0.00    +0.000 A 
ATOM      2  C   UNL     1       3.792   3.499  17.401  0.00  0.00    +0.000 A 
ATOM      3  N   UNL     1       3.480   2.718  18.516  0.00  0.00    +0.000 N 
ATOM      4  C   UNL     1       4.327   2.636  19.618  0.00  0.00    +0.000 A 
ATOM      5  O   UNL     1       4.058   2.028  20.659  0.00  0.00    +0.000 OA
ATOM      6  N   UNL     1       5.507   3.305  19.539  0.00  0.00    +0.000 N 
ATOM      7  C   UNL     1       5.848   4.186  18.567  0.00  0.00    +0.000 A 
ATOM      8  O   UNL     1       6.832   4.918  18.662  0.00  0.00    +0.000 OA
ATOM      9  H   UNL     1       6.089   3.296  20.364  0.00  0.00    +0.000 HD
ENDROOT
BRANCH   1  10
ATOM     10  N   UNL     1       5.261   5.067  16.336  0.00  0.00    +0.000 N 
ATOM     11  C   UNL     1       4.923   6.429  16.354  0.00  0.00    +0.000 C 
ATOM     12  O   UNL     1       5.414   7.222  15.546  0.00  0.00    +0.000 OA
BRANCH  11  13
ATOM     13  C   UNL     1       3.835   6.921  17.310  0.00  0.00    +0.000 C 
ATOM     14  C   UNL     1       3.909   6.510  18.584  0.00  0.00    +0.000 C 
ATOM     15  O   UNL     1       3.098   6.906  19.613  0.00  0.00    +0.000 OA
ATOM     16  C   UNL     1       2.060   7.816  19.246  0.00  0.00    +0.000 C 
ATOM     17  C   UNL     1       2.299   8.581  17.948  0.00  0.00    +0.000 C 
ATOM     18  O   UNL     1       2.857   7.806  16.887  0.00  0.00    +0.000 OA
ENDBRANCH  11  13
BRANCH  10  19
ATOM     19  C   UNL     1       6.366   4.624  15.456  0.00  0.00    +0.000 C 
BRANCH  19  20
ATOM     20  C   UNL     1       5.922   3.547  14.460  0.00  0.00    +0.000 C 
BRANCH  20  22
ATOM     21  C   UNL     1       5.372   3.258  12.021  0.00  0.00    +0.000 C 
ATOM     22  C   UNL     1       6.360   3.843  13.024  0.00  0.00    +0.000 C 
ENDBRANCH  20  22
ENDBRANCH  19  20
ENDBRANCH  10  19
ENDBRANCH   1  10
BRANCH   2  23
ATOM     23  N   UNL     1       2.908   3.614  16.331  0.00  0.00    +0.000 N 
ATOM     24  H   UNL     1       1.964   3.338  16.601  0.00  0.00    +0.000 HD
ATOM     25  H   UNL     1       3.211   3.096  15.513  0.00  0.00    +0.000 HD
ENDBRANCH   2  23
BRANCH   3  26
ATOM     26  C   UNL     1       2.178   2.044  18.621  0.00  0.00    +0.000 C 
BRANCH  26  27
ATOM     27  C   UNL     1       0.980   2.937  18.959  0.00  0.00    +0.000 C 
BRANCH  27  28
ATOM     28  C   UNL     1       0.773   3.146  20.455  0.00  0.00    +0.000 C 
ATOM     29  C   UNL     1       1.390   4.465  20.894  0.00  0.00    +0.000 C 
ENDBRANCH  27  28
ENDBRANCH  26  27
ENDBRANCH   3  26
TORSDOF 9
ENDMDL
MODEL 7
REMARK VINA RESULT:      -6.4      2.667      5.363
REMARK  Name = 
REMARK  11 active torsions:
REMARK  status: ('A' for Active; 'I' for Inactive)
REMARK    1  A    between atoms: C_1  and  C_2
REMARK    2  A    between atoms: C_2  and  C_3
REMARK    3  A    between atoms: C_3  and  C_4
REMARK    4  A    between atoms: C_4  and  N_5
REMARK    5  A    between atoms: N_5  and  C_14
REMARK    6  A    between atoms: C_6  and  C_8
REMARK    7  A    between atoms: C_15  and  N_16
REMARK    8  A    between atoms: N_17  and  C_18
REMARK    9  A    between atoms: C_18  and  C_19
REMARK   10  A    between atoms: C_19  and  C_20
REMARK   11  A    between atoms: C_20  and  C_21
REMARK                            x       y       z     vdW  Elec       q    Type
REMARK                         _______ _______ _______ _____ _____    ______ ____
ROOT
ATOM      1  C   UNL     1       3.693   6.063  18.651  0.00  0.00    +0.000 A 
ATOM      2  C   UNL     1       3.200   7.212  18.132  0.00  0.00    +0.000 A 
ATOM      3  N   UNL     1       2.312   7.984  18.884  0.00  0.00    +0.000 N 
ATOM      4  C   UNL     1       1.902   7.603  20.159  0.00  0.00    +0.000 A 
ATOM      5  O   UNL     1       1.186   8.291  20.894  0.00  0.00    +0.000 OA
ATOM      6  N   UNL     1       2.357   6.409  20.621  0.00  0.00    +0.000 N 
ATOM      7  C   UNL     1       3.313   5.650  20.031  0.00  0.00    +0.000 A 
ATOM      8  O   UNL     1       3.835   4.694  20.603  0.00  0.00    +0.000 OA
ATOM      9  H   UNL     1       2.110   6.166  21.569  0.00  0.00    +0.000 HD
ENDROOT
BRANCH   1  10
ATOM     10  N   UNL     1       4.641   5.302  17.979  0.00  0.00    +0.000 N 
ATOM     11  C   UNL     1       4.314   4.100  17.333  0.00  0.00    +0.000 C 
ATOM     12  O   UNL     1       5.097   3.562  16.545  0.00  0.00    +0.000 OA
BRANCH  11  13
ATOM     13  C   UNL     1       3.018   3.377  17.703  0.00  0.00    +0.000 C 
ATOM     14  C   UNL     1       3.129   2.267  18.447  0.00  0.00    +0.000 C 
ATOM     15  O   UNL     1       2.097   1.530  18.963  0.00  0.00    +0.000 OA
ATOM     16  C   UNL     1       0.792   1.999  18.621  0.00  0.00    +0.000 C 
ATOM     17  C   UNL     1       0.721   3.461  18.191  0.00  0.00    +0.000 C 
ATOM     18  O   UNL     1       1.784   3.889  17.339  0.00  0.00    +0.000 OA
ENDBRANCH  11  13
BRANCH  10  19
ATOM     19  C   UNL     1       5.863   6.023  17.555  0.00  0.00    +0.000 C 
BRANCH  19  20
ATOM     20  C   UNL     1       6.995   5.904  18.581  0.00  0.00    +0.000 C 
BRANCH  20  22
ATOM     21  C   UNL     1       7.572   8.113  17.521  0.00  0.00    +0.000 C 
ATOM     22  C   UNL     1       8.069   6.983  18.415  0.00  0.00    +0.000 C 
ENDBRANCH  20  22
ENDBRANCH  19  20
ENDBRANCH  10  19
ENDBRANCH   1  10
BRANCH   2  23
ATOM     23  N   UNL     1       3.644   7.636  16.882  0.00  0.00    +0.000 N 
ATOM     24  H   UNL     1       4.412   8.302  16.969  0.00  0.00    +0.000 HD
ATOM     25  H   UNL     1       2.900   8.023  16.311  0.00  0.00    +0.000 HD
ENDBRANCH   2  23
BRANCH   3  26
ATOM     26  C   UNL     1       1.869   9.301  18.405  0.00  0.00    +0.000 C 
BRANCH  26  27
ATOM     27  C   UNL     1       0.495   9.350  17.732  0.00  0.00    +0.000 C 
BRANCH  27  28
ATOM     28  C   UNL     1      -0.491  10.292  18.415  0.00  0.00    +0.000 C 
ATOM     29  C   UNL     1      -1.821  10.292  17.676  0.00  0.00    +0.000 C 
ENDBRANCH  27  28
ENDBRANCH  26  27
ENDBRANCH   3  26
TORSDOF 9
ENDMDL
MODEL 8
REMARK VINA RESULT:      -6.3      1.934      3.347
REMARK  Name = 
REMARK  11 active torsions:
REMARK  status: ('A' for Active; 'I' for Inactive)
REMARK    1  A    between atoms: C_1  and  C_2
REMARK    2  A    between atoms: C_2  and  C_3
REMARK    3  A    between atoms: C_3  and  C_4
REMARK    4  A    between atoms: C_4  and  N_5
REMARK    5  A    between atoms: N_5  and  C_14
REMARK    6  A    between atoms: C_6  and  C_8
REMARK    7  A    between atoms: C_15  and  N_16
REMARK    8  A    between atoms: N_17  and  C_18
REMARK    9  A    between atoms: C_18  and  C_19
REMARK   10  A    between atoms: C_19  and  C_20
REMARK   11  A    between atoms: C_20  and  C_21
REMARK                            x       y       z     vdW  Elec       q    Type
REMARK                         _______ _______ _______ _____ _____    ______ ____
ROOT
ATOM      1  C   UNL     1       4.650   5.184  16.736  0.00  0.00    +0.000 A 
ATOM      2  C   UNL     1       4.265   4.059  17.382  0.00  0.00    +0.000 A 
ATOM      3  N   UNL     1       3.310   4.141  18.399  0.00  0.00    +0.000 N 
ATOM      4  C   UNL     1       2.744   5.353  18.783  0.00  0.00    +0.000 A 
ATOM      5  O   UNL     1       1.840   5.466  19.616  0.00  0.00    +0.000 OA
ATOM      6  N   UNL     1       3.207   6.472  18.165  0.00  0.00    +0.000 N 
ATOM      7  C   UNL     1       4.030   6.492  17.088  0.00  0.00    +0.000 A 
ATOM      8  O   UNL     1       4.239   7.518  16.443  0.00  0.00    +0.000 OA
ATOM      9  H   UNL     1       2.750   7.341  18.400  0.00  0.00    +0.000 HD
ENDROOT
BRANCH   1  10
ATOM     10  N   UNL     1       5.533   5.147  15.664  0.00  0.00    +0.000 N 
ATOM     11  C   UNL     1       6.926   5.171  15.840  0.00  0.00    +0.000 C 
ATOM     12  O   UNL     1       7.694   4.897  14.914  0.00  0.00    +0.000 OA
BRANCH  11  13
ATOM     13  C   UNL     1       7.506   5.665  17.166  0.00  0.00    +0.000 C 
ATOM     14  C   UNL     1       7.710   6.984  17.291  0.00  0.00    +0.000 C 
ATOM     15  O   UNL     1       8.128   7.636  18.419  0.00  0.00    +0.000 OA
ATOM     16  C   UNL     1       8.401   6.792  19.537  0.00  0.00    +0.000 C 
ATOM     17  C   UNL     1       7.733   5.421  19.492  0.00  0.00    +0.000 C 
ATOM     18  O   UNL     1       7.745   4.789  18.212  0.00  0.00    +0.000 OA
ENDBRANCH  11  13
BRANCH  10  19
ATOM     19  C   UNL     1       4.990   4.599  14.400  0.00  0.00    +0.000 C 
BRANCH  19  20
ATOM     20  C   UNL     1       5.871   3.488  13.821  0.00  0.00    +0.000 C 
BRANCH  20  22
ATOM     21  C   UNL     1       4.564   3.217  11.686  0.00  0.00    +0.000 C 
ATOM     22  C   UNL     1       5.933   3.509  12.291  0.00  0.00    +0.000 C 
ENDBRANCH  20  22
ENDBRANCH  19  20
ENDBRANCH  10  19
ENDBRANCH   1  10
BRANCH   2  23
ATOM     23  N   UNL     1       4.778   2.832  16.972  0.00  0.00    +0.000 N 
ATOM     24  H   UNL     1       4.057   2.110  16.973  0.00  0.00    +0.000 HD
ATOM     25  H   UNL     1       5.578   2.537  17.522  0.00  0.00    +0.000 HD
ENDBRANCH   2  23
BRANCH   3  26
ATOM     26  C   UNL     1       2.771   2.924  19.023  0.00  0.00    +0.000 C 
BRANCH  26  27
ATOM     27  C   UNL     1       3.491   2.432  20.281  0.00  0.00    +0.000 C 
BRANCH  27  28
ATOM     28  C   UNL     1       2.755   2.759  21.577  0.00  0.00    +0.000 C 
ATOM     29  C   UNL     1       1.252   2.640  21.375  0.00  0.00    +0.000 C 
ENDBRANCH  27  28
ENDBRANCH  26  27
ENDBRANCH   3  26
TORSDOF 9
ENDMDL
MODEL 9
REMARK VINA RESULT:      -6.2      2.510      5.218
REMARK  Name = 
REMARK  11 active torsions:
REMARK  status: ('A' for Active; 'I' for Inactive)
REMARK    1  A    between atoms: C_1  and  C_2
REMARK    2  A    between atoms: C_2  and  C_3
REMARK    3  A    between atoms: C_3  and  C_4
REMARK    4  A    between atoms: C_4  and  N_5
REMARK    5  A    between atoms: N_5  and  C_14
REMARK    6  A    between atoms: C_6  and  C_8
REMARK    7  A    between atoms: C_15  and  N_16
REMARK    8  A    between atoms: N_17  and  C_18
REMARK    9  A    between atoms: C_18  and  C_19
REMARK   10  A    between atoms: C_19  and  C_20
REMARK   11  A    between atoms: C_20  and  C_21
REMARK                            x       y       z     vdW  Elec       q    Type
REMARK                         _______ _______ _______ _____ _____    ______ ____
ROOT
ATOM      1  C   UNL     1       3.661   6.331  18.247  0.00  0.00    +0.000 A 
ATOM      2  C   UNL     1       2.980   7.458  17.932  0.00  0.00    +0.000 A 
ATOM      3  N   UNL     1       2.169   8.065  18.893  0.00  0.00    +0.000 N 
ATOM      4  C   UNL     1       2.024   7.540  20.174  0.00  0.00    +0.000 A 
ATOM      5  O   UNL     1       1.386   8.083  21.081  0.00  0.00    +0.000 OA
ATOM      6  N   UNL     1       2.662   6.369  20.435  0.00  0.00    +0.000 N 
ATOM      7  C   UNL     1       3.567   5.769  19.624  0.00  0.00    +0.000 A 
ATOM      8  O   UNL     1       4.268   4.832  20.005  0.00  0.00    +0.000 OA
ATOM      9  H   UNL     1       2.607   6.024  21.382  0.00  0.00    +0.000 HD
ENDROOT
BRANCH   1  10
ATOM     10  N   UNL     1       4.545   5.734  17.357  0.00  0.00    +0.000 N 
ATOM     11  C   UNL     1       4.264   4.509  16.732  0.00  0.00    +0.000 C 
ATOM     12  O   UNL     1       4.931   4.111  15.773  0.00  0.00    +0.000 OA
BRANCH  11  13
ATOM     13  C   UNL     1       3.194   3.592  17.325  0.00  0.00    +0.000 C 
ATOM     14  C   UNL     1       3.614   2.472  17.931  0.00  0.00    +0.000 C 
ATOM     15  O   UNL     1       2.834   1.572  18.604  0.00  0.00    +0.000 OA
ATOM     16  C   UNL     1       1.437   1.868  18.605  0.00  0.00    +0.000 C 
ATOM     17  C   UNL     1       1.084   3.325  18.325  0.00  0.00    +0.000 C 
ATOM     18  O   UNL     1       1.854   3.942  17.293  0.00  0.00    +0.000 OA
ENDBRANCH  11  13
BRANCH  10  19
ATOM     19  C   UNL     1       5.533   6.639  16.727  0.00  0.00    +0.000 C 
BRANCH  19  20
ATOM     20  C   UNL     1       6.750   6.889  17.624  0.00  0.00    +0.000 C 
BRANCH  20  22
ATOM     21  C   UNL     1       7.846   5.643  19.517  0.00  0.00    +0.000 C 
ATOM     22  C   UNL     1       7.459   5.598  18.044  0.00  0.00    +0.000 C 
ENDBRANCH  20  22
ENDBRANCH  19  20
ENDBRANCH  10  19
ENDBRANCH   1  10
BRANCH   2  23
ATOM     23  N   UNL     1       3.159   8.027  16.674  0.00  0.00    +0.000 N 
ATOM     24  H   UNL     1       2.456   7.694  16.015  0.00  0.00    +0.000 HD
ATOM     25  H   UNL     1       4.092   7.880  16.305  0.00  0.00    +0.000 HD
ENDBRANCH   2  23
BRANCH   3  26
ATOM     26  C   UNL     1       1.529   9.361  18.625  0.00  0.00    +0.000 C 
BRANCH  26  27
ATOM     27  C   UNL     1       0.192   9.314  17.879  0.00  0.00    +0.000 C 
BRANCH  27  28
ATOM     28  C   UNL     1      -0.833  10.320  18.392  0.00  0.00    +0.000 C 
ATOM     29  C   UNL     1      -0.509  10.720  19.823  0.00  0.00    +0.000 C 
ENDBRANCH  27  28
ENDBRANCH  26  27
ENDBRANCH   3  26
TORSDOF 9
ENDMDL
