MODEL 1
REMARK VINA RESULT:      -7.3      0.000      0.000
REMARK  Name = 
REMARK  7 active torsions:
REMARK  status: ('A' for Active; 'I' for Inactive)
REMARK    1  A    between atoms: C_1  and  C_2
REMARK    2  A    between atoms: C_4  and  C_5
REMARK    3  A    between atoms: C_5  and  N_6
REMARK    4  A    between atoms: N_6  and  C_7
REMARK    5  A    between atoms: C_10  and  N_11
REMARK    6  A    between atoms: C_15  and  C_16
REMARK    7  A    between atoms: C_16  and  O_17
REMARK                            x       y       z     vdW  Elec       q    Type
REMARK                         _______ _______ _______ _____ _____    ______ ____
ROOT
ATOM      1  N   UNL     1       6.346   6.216  17.459  0.00  0.00    +0.000 N 
ATOM      2  C   UNL     1       6.948   7.537  17.371  0.00  0.00    +0.000 C 
ATOM      3  C   UNL     1       5.005   6.153  17.797  0.00  0.00    +0.000 A 
ATOM      4  C   UNL     1       4.389   4.963  18.151  0.00  0.00    +0.000 A 
ATOM      5  C   UNL     1       3.083   4.986  18.608  0.00  0.00    +0.000 A 
ATOM      6  N   UNL     1       2.407   6.141  18.664  0.00  0.00    +0.000 NA
ATOM      7  C   UNL     1       3.042   7.240  18.249  0.00  0.00    +0.000 A 
ATOM      8  N   UNL     1       4.310   7.303  17.832  0.00  0.00    +0.000 NA
ENDROOT
BRANCH   5   9
ATOM      9  N   UNL     1       2.496   3.857  19.146  0.00  0.00    +0.000 N 
ATOM     10  C   UNL     1       2.227   2.671  18.342  0.00  0.00    +0.000 C 
ATOM     11  C   UNL     1       0.777   2.335  18.661  0.00  0.00    +0.000 C 
ATOM     12  C   UNL     1       0.623   2.749  20.115  0.00  0.00    +0.000 C 
ATOM     13  C   UNL     1       1.548   3.969  20.274  0.00  0.00    +0.000 C 
BRANCH  13  14
ATOM     14  C   UNL     1       2.309   3.883  21.614  0.00  0.00    +0.000 C 
BRANCH  14  15
ATOM     15  O   UNL     1       2.798   2.572  21.891  0.00  0.00    +0.000 OA
ATOM     16  H   UNL     1       3.319   2.313  21.106  0.00  0.00    +0.000 HD
ENDBRANCH  14  15
ENDBRANCH  13  14
ENDBRANCH   5   9
BRANCH   1  17
ATOM     17  C   UNL     1       7.087   5.071  16.930  0.00  0.00    +0.000 C 
BRANCH  17  21
ATOM     18  C   UNL     1       7.956   5.499  12.075  0.00  0.00    +0.000 C 
ATOM     19  C   UNL     1       7.361   4.947  13.323  0.00  0.00    +0.000 A 
ATOM     20  N   UNL     1       7.642   5.386  14.531  0.00  0.00    +0.000 NA
ATOM     21  C   UNL     1       6.909   4.683  15.483  0.00  0.00    +0.000 A 
ATOM     22  C   UNL     1       6.082   3.707  14.957  0.00  0.00    +0.000 A 
ATOM     23  S   UNL     1       6.224   3.663  13.251  0.00  0.00    +0.000 S 
ENDBRANCH  17  21
ENDBRANCH   1  17
TORSDOF 5
ENDMDL
MODEL 2
REMARK VINA RESULT:      -7.2      1.023      1.308
REMARK  Name = 
REMARK  7 active torsions:
REMARK  status: ('A' for Active; 'I' for Inactive)
REMARK    1  A    between atoms: C_1  and  C_2
REMARK    2  A    between atoms: C_4  and  C_5
REMARK    3  A    between atoms: C_5  and  N_6
REMARK    4  A    between atoms: N_6  and  C_7
REMARK    5  A    between atoms: C_10  and  N_11
REMARK    6  A    between atoms: C_15  and  C_16
REMARK    7  A    between atoms: C_16  and  O_17
REMARK                            x       y       z     vdW  Elec       q    Type
REMARK                         _______ _______ _______ _____ _____    ______ ____
ROOT
ATOM      1  N   UNL     1       6.251   6.282  17.436  0.00  0.00    +0.000 N 
ATOM      2  C   UNL     1       6.811   7.618  17.301  0.00  0.00    +0.000 C 
ATOM      3  C   UNL     1       4.916   6.188  17.786  0.00  0.00    +0.000 A 
ATOM      4  C   UNL     1       4.340   4.991  18.183  0.00  0.00    +0.000 A 
ATOM      5  C   UNL     1       3.038   4.988  18.650  0.00  0.00    +0.000 A 
ATOM      6  N   UNL     1       2.326   6.123  18.676  0.00  0.00    +0.000 NA
ATOM      7  C   UNL     1       2.923   7.227  18.221  0.00  0.00    +0.000 A 
ATOM      8  N   UNL     1       4.185   7.317  17.791  0.00  0.00    +0.000 NA
ENDROOT
BRANCH   5   9
ATOM      9  N   UNL     1       2.491   3.858  19.229  0.00  0.00    +0.000 N 
ATOM     10  C   UNL     1       1.054   3.713  19.426  0.00  0.00    +0.000 C 
ATOM     11  C   UNL     1       0.929   3.277  20.880  0.00  0.00    +0.000 C 
ATOM     12  C   UNL     1       2.172   2.435  21.111  0.00  0.00    +0.000 C 
ATOM     13  C   UNL     1       3.254   3.084  20.229  0.00  0.00    +0.000 C 
BRANCH  13  14
ATOM     14  C   UNL     1       4.088   1.991  19.528  0.00  0.00    +0.000 C 
BRANCH  14  15
ATOM     15  O   UNL     1       5.286   1.670  20.232  0.00  0.00    +0.000 OA
ATOM     16  H   UNL     1       5.978   2.248  19.855  0.00  0.00    +0.000 HD
ENDBRANCH  14  15
ENDBRANCH  13  14
ENDBRANCH   5   9
BRANCH   1  17
ATOM     17  C   UNL     1       7.024   5.144  16.937  0.00  0.00    +0.000 C 
BRANCH  17  21
ATOM     18  C   UNL     1       7.934   5.503  12.083  0.00  0.00    +0.000 C 
ATOM     19  C   UNL     1       7.340   4.960  13.336  0.00  0.00    +0.000 A 
ATOM     20  N   UNL     1       7.597   5.428  14.538  0.00  0.00    +0.000 NA
ATOM     21  C   UNL     1       6.871   4.726  15.496  0.00  0.00    +0.000 A 
ATOM     22  C   UNL     1       6.075   3.718  14.980  0.00  0.00    +0.000 A 
ATOM     23  S   UNL     1       6.236   3.647  13.277  0.00  0.00    +0.000 S 
ENDBRANCH  17  21
ENDBRANCH   1  17
TORSDOF 5
ENDMDL
MODEL 3
REMARK VINA RESULT:      -6.9      4.141      7.259
REMARK  Name = 
REMARK  7 active torsions:
REMARK  status: ('A' for Active; 'I' for Inactive)
REMARK    1  A    between atoms: C_1  and  C_2
REMARK    2  A    between atoms: C_4  and  C_5
REMARK    3  A    between atoms: C_5  and  N_6
REMARK    4  A    between atoms: N_6  and  C_7
REMARK    5  A    between atoms: C_10  and  N_11
REMARK    6  A    between atoms: C_15  and  C_16
REMARK    7  A    between atoms: C_16  and  O_17
REMARK                            x       y       z     vdW  Elec       q    Type
REMARK                         _______ _______ _______ _____ _____    ______ ____
ROOT
ATOM      1  N   UNL     1       1.814   8.384  19.383  0.00  0.00    +0.000 N 
ATOM      2  C   UNL     1       1.036   8.508  20.605  0.00  0.00    +0.000 C 
ATOM      3  C   UNL     1       2.503   7.199  19.189  0.00  0.00    +0.000 A 
ATOM      4  C   UNL     1       3.464   7.059  18.200  0.00  0.00    +0.000 A 
ATOM      5  C   UNL     1       4.213   5.896  18.144  0.00  0.00    +0.000 A 
ATOM      6  N   UNL     1       3.979   4.899  19.008  0.00  0.00    +0.000 NA
ATOM      7  C   UNL     1       2.997   5.079  19.894  0.00  0.00    +0.000 A 
ATOM      8  N   UNL     1       2.259   6.183  20.035  0.00  0.00    +0.000 NA
ENDROOT
BRANCH   5   9
ATOM      9  N   UNL     1       5.301   5.790  17.299  0.00  0.00    +0.000 N 
ATOM     10  C   UNL     1       5.212   6.117  15.882  0.00  0.00    +0.000 C 
ATOM     11  C   UNL     1       5.846   4.918  15.190  0.00  0.00    +0.000 C 
ATOM     12  C   UNL     1       6.927   4.473  16.161  0.00  0.00    +0.000 C 
ATOM     13  C   UNL     1       6.353   4.784  17.555  0.00  0.00    +0.000 C 
BRANCH  13  14
ATOM     14  C   UNL     1       7.452   5.385  18.456  0.00  0.00    +0.000 C 
BRANCH  14  15
ATOM     15  O   UNL     1       7.107   5.366  19.840  0.00  0.00    +0.000 OA
ATOM     16  H   UNL     1       7.644   6.069  20.256  0.00  0.00    +0.000 HD
ENDBRANCH  14  15
ENDBRANCH  13  14
ENDBRANCH   5   9
BRANCH   1  17
ATOM     17  C   UNL     1       1.613   9.370  18.321  0.00  0.00    +0.000 C 
BRANCH  17  21
ATOM     18  C   UNL     1      -3.120  10.197  17.127  0.00  0.00    +0.000 C 
ATOM     19  C   UNL     1      -1.784  10.469  17.724  0.00  0.00    +0.000 A 
ATOM     20  N   UNL     1      -0.769   9.632  17.674  0.00  0.00    +0.000 NA
ATOM     21  C   UNL     1       0.344  10.184  18.303  0.00  0.00    +0.000 A 
ATOM     22  C   UNL     1       0.132  11.446  18.829  0.00  0.00    +0.000 A 
ATOM     23  S   UNL     1      -1.478  11.949  18.536  0.00  0.00    +0.000 S 
ENDBRANCH  17  21
ENDBRANCH   1  17
TORSDOF 5
ENDMDL
MODEL 4
REMARK VINA RESULT:      -6.8      1.568      1.761
REMARK  Name = 
REMARK  7 active torsions:
REMARK  status: ('A' for Active; 'I' for Inactive)
REMARK    1  A    between atoms: C_1  and  C_2
REMARK    2  A    between atoms: C_4  and  C_5
REMARK    3  A    between atoms: C_5  and  N_6
REMARK    4  A    between atoms: N_6  and  C_7
REMARK    5  A    between atoms: C_10  and  N_11
REMARK    6  A    between atoms: C_15  and  C_16
REMARK    7  A    between atoms: C_16  and  O_17
REMARK                            x       y       z     vdW  Elec       q    Type
REMARK                         _______ _______ _______ _____ _____    ______ ____
ROOT
ATOM      1  N   UNL     1       6.551   5.823  16.773  0.00  0.00    +0.000 N 
ATOM      2  C   UNL     1       7.247   7.098  16.709  0.00  0.00    +0.000 C 
ATOM      3  C   UNL     1       5.250   5.834  17.244  0.00  0.00    +0.000 A 
ATOM      4  C   UNL     1       4.577   4.670  17.581  0.00  0.00    +0.000 A 
ATOM      5  C   UNL     1       3.329   4.756  18.173  0.00  0.00    +0.000 A 
ATOM      6  N   UNL     1       2.758   5.951  18.375  0.00  0.00    +0.000 NA
ATOM      7  C   UNL     1       3.436   7.027  17.969  0.00  0.00    +0.000 A 
ATOM      8  N   UNL     1       4.657   7.027  17.427  0.00  0.00    +0.000 NA
ENDROOT
BRANCH   5   9
ATOM      9  N   UNL     1       2.709   3.637  18.694  0.00  0.00    +0.000 N 
ATOM     10  C   UNL     1       1.359   3.251  18.302  0.00  0.00    +0.000 C 
ATOM     11  C   UNL     1       0.650   3.009  19.628  0.00  0.00    +0.000 C 
ATOM     12  C   UNL     1       1.746   2.459  20.526  0.00  0.00    +0.000 C 
ATOM     13  C   UNL     1       3.029   3.170  20.059  0.00  0.00    +0.000 C 
BRANCH  13  14
ATOM     14  C   UNL     1       4.201   2.166  20.014  0.00  0.00    +0.000 C 
BRANCH  14  15
ATOM     15  O   UNL     1       4.164   1.322  18.865  0.00  0.00    +0.000 OA
ATOM     16  H   UNL     1       4.555   0.473  19.148  0.00  0.00    +0.000 HD
ENDBRANCH  14  15
ENDBRANCH  13  14
ENDBRANCH   5   9
BRANCH   1  17
ATOM     17  C   UNL     1       7.141   4.668  16.095  0.00  0.00    +0.000 C 
BRANCH  17  21
ATOM     18  C   UNL     1       5.143   2.892  11.928  0.00  0.00    +0.000 C 
ATOM     19  C   UNL     1       6.057   3.702  12.780  0.00  0.00    +0.000 A 
ATOM     20  N   UNL     1       6.023   3.713  14.095  0.00  0.00    +0.000 NA
ATOM     21  C   UNL     1       7.016   4.550  14.597  0.00  0.00    +0.000 A 
ATOM     22  C   UNL     1       7.783   5.168  13.626  0.00  0.00    +0.000 A 
ATOM     23  S   UNL     1       7.257   4.699  12.065  0.00  0.00    +0.000 S 
ENDBRANCH  17  21
ENDBRANCH   1  17
TORSDOF 5
ENDMDL
MODEL 5
REMARK VINA RESULT:      -6.7      1.117      1.304
REMARK  Name = 
REMARK  7 active torsions:
REMARK  status: ('A' for Active; 'I' for Inactive)
REMARK    1  A    between atoms: C_1  and  C_2
REMARK    2  A    between atoms: C_4  and  C_5
REMARK    3  A    between atoms: C_5  and  N_6
REMARK    4  A    between atoms: N_6  and  C_7
REMARK    5  A    between atoms: C_10  and  N_11
REMARK    6  A    between atoms: C_15  and  C_16
REMARK    7  A    between atoms: C_16  and  O_17
REMARK                            x       y       z     vdW  Elec       q    Type
REMARK                         _______ _______ _______ _____ _____    ______ ____
ROOT
ATOM      1  N   UNL     1       6.365   5.912  16.854  0.00  0.00    +0.000 N 
ATOM      2  C   UNL     1       7.055   7.184  16.707  0.00  0.00    +0.000 C 
ATOM      3  C   UNL     1       5.068   5.948  17.337  0.00  0.00    +0.000 A 
ATOM      4  C   UNL     1       4.404   4.804  17.751  0.00  0.00    +0.000 A 
ATOM      5  C   UNL     1       3.162   4.922  18.350  0.00  0.00    +0.000 A 
ATOM      6  N   UNL     1       2.588   6.125  18.486  0.00  0.00    +0.000 NA
ATOM      7  C   UNL     1       3.258   7.176  18.009  0.00  0.00    +0.000 A 
ATOM      8  N   UNL     1       4.474   7.148  17.455  0.00  0.00    +0.000 NA
ENDROOT
BRANCH   5   9
ATOM      9  N   UNL     1       2.551   3.834  18.943  0.00  0.00    +0.000 N 
ATOM     10  C   UNL     1       2.259   2.614  18.201  0.00  0.00    +0.000 C 
ATOM     11  C   UNL     1       0.801   2.325  18.533  0.00  0.00    +0.000 C 
ATOM     12  C   UNL     1       0.654   2.816  19.964  0.00  0.00    +0.000 C 
ATOM     13  C   UNL     1       1.605   4.024  20.062  0.00  0.00    +0.000 C 
BRANCH  13  14
ATOM     14  C   UNL     1       2.362   3.990  21.407  0.00  0.00    +0.000 C 
BRANCH  14  15
ATOM     15  O   UNL     1       1.913   2.948  22.271  0.00  0.00    +0.000 OA
ATOM     16  H   UNL     1       0.993   2.759  22.001  0.00  0.00    +0.000 HD
ENDBRANCH  14  15
ENDBRANCH  13  14
ENDBRANCH   5   9
BRANCH   1  17
ATOM     17  C   UNL     1       6.952   4.721  16.241  0.00  0.00    +0.000 C 
BRANCH  17  21
ATOM     18  C   UNL     1       5.222   2.873  11.985  0.00  0.00    +0.000 C 
ATOM     19  C   UNL     1       6.082   3.696  12.880  0.00  0.00    +0.000 A 
ATOM     20  N   UNL     1       5.963   3.732  14.190  0.00  0.00    +0.000 NA
ATOM     21  C   UNL     1       6.924   4.576  14.740  0.00  0.00    +0.000 A 
ATOM     22  C   UNL     1       7.755   5.173  13.809  0.00  0.00    +0.000 A 
ATOM     23  S   UNL     1       7.329   4.677  12.226  0.00  0.00    +0.000 S 
ENDBRANCH  17  21
ENDBRANCH   1  17
TORSDOF 5
ENDMDL
MODEL 6
REMARK VINA RESULT:      -6.7      4.382      7.017
REMARK  Name = 
REMARK  7 active torsions:
REMARK  status: ('A' for Active; 'I' for Inactive)
REMARK    1  A    between atoms: C_1  and  C_2
REMARK    2  A    between atoms: C_4  and  C_5
REMARK    3  A    between atoms: C_5  and  N_6
REMARK    4  A    between atoms: N_6  and  C_7
REMARK    5  A    between atoms: C_10  and  N_11
REMARK    6  A    between atoms: C_15  and  C_16
REMARK    7  A    between atoms: C_16  and  O_17
REMARK                            x       y       z     vdW  Elec       q    Type
REMARK                         _______ _______ _______ _____ _____    ______ ____
ROOT
ATOM      1  N   UNL     1       1.820   8.734  18.811  0.00  0.00    +0.000 N 
ATOM      2  C   UNL     1       2.002   9.824  17.864  0.00  0.00    +0.000 C 
ATOM      3  C   UNL     1       2.528   7.568  18.577  0.00  0.00    +0.000 A 
ATOM      4  C   UNL     1       2.254   6.391  19.256  0.00  0.00    +0.000 A 
ATOM      5  C   UNL     1       2.904   5.227  18.883  0.00  0.00    +0.000 A 
ATOM      6  N   UNL     1       3.822   5.249  17.906  0.00  0.00    +0.000 NA
ATOM      7  C   UNL     1       4.080   6.429  17.339  0.00  0.00    +0.000 A 
ATOM      8  N   UNL     1       3.469   7.585  17.617  0.00  0.00    +0.000 NA
ENDROOT
BRANCH   5   9
ATOM      9  N   UNL     1       2.527   4.003  19.401  0.00  0.00    +0.000 N 
ATOM     10  C   UNL     1       1.130   3.597  19.480  0.00  0.00    +0.000 C 
ATOM     11  C   UNL     1       0.974   3.106  20.913  0.00  0.00    +0.000 C 
ATOM     12  C   UNL     1       2.328   2.495  21.233  0.00  0.00    +0.000 C 
ATOM     13  C   UNL     1       3.339   3.351  20.450  0.00  0.00    +0.000 C 
BRANCH  13  14
ATOM     14  C   UNL     1       4.409   2.445  19.803  0.00  0.00    +0.000 C 
BRANCH  14  15
ATOM     15  O   UNL     1       5.526   3.176  19.303  0.00  0.00    +0.000 OA
ATOM     16  H   UNL     1       5.614   3.956  19.885  0.00  0.00    +0.000 HD
ENDBRANCH  14  15
ENDBRANCH  13  14
ENDBRANCH   5   9
BRANCH   1  17
ATOM     17  C   UNL     1       1.138   9.010  20.075  0.00  0.00    +0.000 C 
BRANCH  17  21
ATOM     18  C   UNL     1      -2.669  12.101  19.393  0.00  0.00    +0.000 C 
ATOM     19  C   UNL     1      -1.345  11.638  19.891  0.00  0.00    +0.000 A 
ATOM     20  N   UNL     1      -0.853  10.437  19.672  0.00  0.00    +0.000 NA
ATOM     21  C   UNL     1       0.409  10.320  20.248  0.00  0.00    +0.000 A 
ATOM     22  C   UNL     1       0.841  11.457  20.906  0.00  0.00    +0.000 A 
ATOM     23  S   UNL     1      -0.345  12.688  20.808  0.00  0.00    +0.000 S 
ENDBRANCH  17  21
ENDBRANCH   1  17
TORSDOF 5
ENDMDL
MODEL 7
REMARK VINA RESULT:      -6.7      4.223      7.334
REMARK  Name = 
REMARK  7 active torsions:
REMARK  status: ('A' for Active; 'I' for Inactive)
REMARK    1  A    between atoms: C_1  and  C_2
REMARK    2  A    between atoms: C_4  and  C_5
REMARK    3  A    between atoms: C_5  and  N_6
REMARK    4  A    between atoms: N_6  and  C_7
REMARK    5  A    between atoms: C_10  and  N_11
REMARK    6  A    between atoms: C_15  and  C_16
REMARK    7  A    between atoms: C_16  and  O_17
REMARK                            x       y       z     vdW  Elec       q    Type
REMARK                         _______ _______ _______ _____ _____    ______ ____
ROOT
ATOM      1  N   UNL     1       1.763   8.356  19.308  0.00  0.00    +0.000 N 
ATOM      2  C   UNL     1       0.991   8.509  20.531  0.00  0.00    +0.000 C 
ATOM      3  C   UNL     1       2.495   7.190  19.164  0.00  0.00    +0.000 A 
ATOM      4  C   UNL     1       3.452   7.039  18.173  0.00  0.00    +0.000 A 
ATOM      5  C   UNL     1       4.244   5.904  18.165  0.00  0.00    +0.000 A 
ATOM      6  N   UNL     1       4.056   4.941  19.078  0.00  0.00    +0.000 NA
ATOM      7  C   UNL     1       3.076   5.126  19.964  0.00  0.00    +0.000 A 
ATOM      8  N   UNL     1       2.297   6.208  20.060  0.00  0.00    +0.000 NA
ENDROOT
BRANCH   5   9
ATOM      9  N   UNL     1       5.329   5.798  17.315  0.00  0.00    +0.000 N 
ATOM     10  C   UNL     1       5.233   6.123  15.898  0.00  0.00    +0.000 C 
ATOM     11  C   UNL     1       5.866   4.924  15.205  0.00  0.00    +0.000 C 
ATOM     12  C   UNL     1       6.952   4.483  16.171  0.00  0.00    +0.000 C 
ATOM     13  C   UNL     1       6.384   4.794  17.568  0.00  0.00    +0.000 C 
BRANCH  13  14
ATOM     14  C   UNL     1       7.486   5.399  18.463  0.00  0.00    +0.000 C 
BRANCH  14  15
ATOM     15  O   UNL     1       7.157   5.363  19.850  0.00  0.00    +0.000 OA
ATOM     16  H   UNL     1       6.613   4.561  19.971  0.00  0.00    +0.000 HD
ENDBRANCH  14  15
ENDBRANCH  13  14
ENDBRANCH   5   9
BRANCH   1  17
ATOM     17  C   UNL     1       1.516   9.282  18.203  0.00  0.00    +0.000 C 
BRANCH  17  21
ATOM     18  C   UNL     1      -0.159  13.790  19.377  0.00  0.00    +0.000 C 
ATOM     19  C   UNL     1      -0.218  12.382  18.898  0.00  0.00    +0.000 A 
ATOM     20  N   UNL     1       0.828  11.590  18.805  0.00  0.00    +0.000 NA
ATOM     21  C   UNL     1       0.444  10.332  18.348  0.00  0.00    +0.000 A 
ATOM     22  C   UNL     1      -0.910  10.210  18.094  0.00  0.00    +0.000 A 
ATOM     23  S   UNL     1      -1.714  11.684  18.429  0.00  0.00    +0.000 S 
ENDBRANCH  17  21
ENDBRANCH   1  17
TORSDOF 5
ENDMDL
MODEL 8
REMARK VINA RESULT:      -6.6      3.999      6.955
REMARK  Name = 
REMARK  7 active torsions:
REMARK  status: ('A' for Active; 'I' for Inactive)
REMARK    1  A    between atoms: C_1  and  C_2
REMARK    2  A    between atoms: C_4  and  C_5
REMARK    3  A    between atoms: C_5  and  N_6
REMARK    4  A    between atoms: N_6  and  C_7
REMARK    5  A    between atoms: C_10  and  N_11
REMARK    6  A    between atoms: C_15  and  C_16
REMARK    7  A    between atoms: C_16  and  O_17
REMARK                            x       y       z     vdW  Elec       q    Type
REMARK                         _______ _______ _______ _____ _____    ______ ____
ROOT
ATOM      1  N   UNL     1       1.997   8.172  19.111  0.00  0.00    +0.000 N 
ATOM      2  C   UNL     1       1.326   8.353  20.388  0.00  0.00    +0.000 C 
ATOM      3  C   UNL     1       2.714   7.001  18.933  0.00  0.00    +0.000 A 
ATOM      4  C   UNL     1       3.588   6.825  17.872  0.00  0.00    +0.000 A 
ATOM      5  C   UNL     1       4.375   5.688  17.824  0.00  0.00    +0.000 A 
ATOM      6  N   UNL     1       4.259   4.745  18.769  0.00  0.00    +0.000 NA
ATOM      7  C   UNL     1       3.353   4.952  19.727  0.00  0.00    +0.000 A 
ATOM      8  N   UNL     1       2.586   6.038  19.862  0.00  0.00    +0.000 NA
ENDROOT
BRANCH   5   9
ATOM      9  N   UNL     1       5.388   5.561  16.892  0.00  0.00    +0.000 N 
ATOM     10  C   UNL     1       5.240   6.039  15.523  0.00  0.00    +0.000 C 
ATOM     11  C   UNL     1       5.696   4.860  14.675  0.00  0.00    +0.000 C 
ATOM     12  C   UNL     1       6.785   4.212  15.513  0.00  0.00    +0.000 C 
ATOM     13  C   UNL     1       6.341   4.434  16.970  0.00  0.00    +0.000 C 
BRANCH  13  14
ATOM     14  C   UNL     1       7.555   4.828  17.838  0.00  0.00    +0.000 C 
BRANCH  14  15
ATOM     15  O   UNL     1       7.235   4.937  19.224  0.00  0.00    +0.000 OA
ATOM     16  H   UNL     1       8.040   5.283  19.655  0.00  0.00    +0.000 HD
ENDBRANCH  14  15
ENDBRANCH  13  14
ENDBRANCH   5   9
BRANCH   1  17
ATOM     17  C   UNL     1       1.664   9.075  18.009  0.00  0.00    +0.000 C 
BRANCH  17  21
ATOM     18  C   UNL     1       2.857  13.867  18.362  0.00  0.00    +0.000 C 
ATOM     19  C   UNL     1       1.996  12.654  18.434  0.00  0.00    +0.000 A 
ATOM     20  N   UNL     1       2.399  11.444  18.111  0.00  0.00    +0.000 NA
ATOM     21  C   UNL     1       1.373  10.524  18.308  0.00  0.00    +0.000 A 
ATOM     22  C   UNL     1       0.195  11.078  18.777  0.00  0.00    +0.000 A 
ATOM     23  S   UNL     1       0.371  12.771  18.973  0.00  0.00    +0.000 S 
ENDBRANCH  17  21
ENDBRANCH   1  17
TORSDOF 5
ENDMDL
MODEL 9
REMARK VINA RESULT:      -6.5      4.328      6.985
REMARK  Name = 
REMARK  7 active torsions:
REMARK  status: ('A' for Active; 'I' for Inactive)
REMARK    1  A    between atoms: C_1  and  C_2
REMARK    2  A    between atoms: C_4  and  C_5
REMARK    3  A    between atoms: C_5  and  N_6
REMARK    4  A    between atoms: N_6  and  C_7
REMARK    5  A    between atoms: C_10  and  N_11
REMARK    6  A    between atoms: C_15  and  C_16
REMARK    7  A    between atoms: C_16  and  O_17
REMARK                            x       y       z     vdW  Elec       q    Type
REMARK                         _______ _______ _______ _____ _____    ______ ____
ROOT
ATOM      1  N   UNL     1       1.884   8.634  18.830  0.00  0.00    +0.000 N 
ATOM      2  C   UNL     1       2.051   9.692  17.846  0.00  0.00    +0.000 C 
ATOM      3  C   UNL     1       2.552   7.444  18.599  0.00  0.00    +0.000 A 
ATOM      4  C   UNL     1       2.279   6.293  19.321  0.00  0.00    +0.000 A 
ATOM      5  C   UNL     1       2.882   5.103  18.953  0.00  0.00    +0.000 A 
ATOM      6  N   UNL     1       3.756   5.074  17.938  0.00  0.00    +0.000 NA
ATOM      7  C   UNL     1       4.019   6.232  17.327  0.00  0.00    +0.000 A 
ATOM      8  N   UNL     1       3.450   7.410  17.599  0.00  0.00    +0.000 NA
ENDROOT
BRANCH   5   9
ATOM      9  N   UNL     1       2.498   3.903  19.521  0.00  0.00    +0.000 N 
ATOM     10  C   UNL     1       1.106   3.614  19.843  0.00  0.00    +0.000 C 
ATOM     11  C   UNL     1       1.163   3.106  21.277  0.00  0.00    +0.000 C 
ATOM     12  C   UNL     1       2.494   2.377  21.349  0.00  0.00    +0.000 C 
ATOM     13  C   UNL     1       3.422   3.163  20.405  0.00  0.00    +0.000 C 
BRANCH  13  14
ATOM     14  C   UNL     1       4.280   2.185  19.574  0.00  0.00    +0.000 C 
BRANCH  14  15
ATOM     15  O   UNL     1       5.311   1.564  20.340  0.00  0.00    +0.000 OA
ATOM     16  H   UNL     1       5.922   1.168  19.688  0.00  0.00    +0.000 HD
ENDBRANCH  14  15
ENDBRANCH  13  14
ENDBRANCH   5   9
BRANCH   1  17
ATOM     17  C   UNL     1       1.265   8.962  20.114  0.00  0.00    +0.000 C 
BRANCH  17  21
ATOM     18  C   UNL     1       0.177  13.477  21.829  0.00  0.00    +0.000 C 
ATOM     19  C   UNL     1       0.003  12.224  21.044  0.00  0.00    +0.000 A 
ATOM     20  N   UNL     1       0.867  11.232  21.036  0.00  0.00    +0.000 NA
ATOM     21  C   UNL     1       0.408  10.198  20.224  0.00  0.00    +0.000 A 
ATOM     22  C   UNL     1      -0.812  10.446  19.623  0.00  0.00    +0.000 A 
ATOM     23  S   UNL     1      -1.394  11.992  20.074  0.00  0.00    +0.000 S 
ENDBRANCH  17  21
ENDBRANCH   1  17
TORSDOF 5
ENDMDL
