MODEL 1
REMARK VINA RESULT:      -7.4      0.000      0.000
REMARK  Name = 
REMARK  2 active torsions:
REMARK  status: ('A' for Active; 'I' for Inactive)
REMARK    1  A    between atoms: C_1  and  C_2
REMARK    2  A    between atoms: N_7  and  C_8
REMARK                            x       y       z     vdW  Elec       q    Type
REMARK                         _______ _______ _______ _____ _____    ______ ____
ROOT
ATOM      1  C   UNL     1      -0.470   9.372  23.048  0.00  0.00    +0.000 C 
ATOM      2  C   UNL     1       0.277   9.195  21.784  0.00  0.00    +0.000 A 
ATOM      3  C   UNL     1       1.136   8.185  21.407  0.00  0.00    +0.000 A 
ATOM      4  N   UNL     1       1.515   8.473  20.123  0.00  0.00    +0.000 N 
ATOM      5  N   UNL     1       2.325   7.703  19.337  0.00  0.00    +0.000 NA
ATOM      6  C   UNL     1       2.569   8.220  18.164  0.00  0.00    +0.000 A 
ATOM      7  N   UNL     1       3.347   7.550  17.254  0.00  0.00    +0.000 N 
ATOM      8  C   UNL     1       2.017   9.541  17.716  0.00  0.00    +0.000 A 
ATOM      9  C   UNL     1       1.190  10.207  18.526  0.00  0.00    +0.000 A 
ATOM     10  C   UNL     1       0.912   9.676  19.798  0.00  0.00    +0.000 A 
ATOM     11  N   UNL     1       0.157  10.125  20.775  0.00  0.00    +0.000 NA
ATOM     12  H   UNL     1       3.961   8.112  16.674  0.00  0.00    +0.000 HD
ENDROOT
BRANCH   7  13
ATOM     13  C   UNL     1       3.672   6.133  17.321  0.00  0.00    +0.000 C 
ATOM     14  C   UNL     1       4.880   5.944  18.239  0.00  0.00    +0.000 C 
ATOM     15  C   UNL     1       4.732   4.523  18.762  0.00  0.00    +0.000 C 
ATOM     16  N   UNL     1       3.294   4.302  18.793  0.00  0.00    +0.000 N 
ATOM     17  C   UNL     1       2.708   3.653  19.832  0.00  0.00    +0.000 A 
ATOM     18  N   UNL     1       3.361   3.194  20.880  0.00  0.00    +0.000 NA
ATOM     19  C   UNL     1       2.497   2.601  21.778  0.00  0.00    +0.000 A 
ATOM     20  C   UNL     1       1.174   2.576  21.402  0.00  0.00    +0.000 A 
ATOM     21  S   UNL     1       1.000   3.332  19.882  0.00  0.00    +0.000 S 
ATOM     22  C   UNL     1       2.576   5.288  17.987  0.00  0.00    +0.000 C 
ENDBRANCH   7  13
TORSDOF 1
ENDMDL
MODEL 2
REMARK VINA RESULT:      -7.2      2.631      3.753
REMARK  Name = 
REMARK  2 active torsions:
REMARK  status: ('A' for Active; 'I' for Inactive)
REMARK    1  A    between atoms: C_1  and  C_2
REMARK    2  A    between atoms: N_7  and  C_8
REMARK                            x       y       z     vdW  Elec       q    Type
REMARK                         _______ _______ _______ _____ _____    ______ ____
ROOT
ATOM      1  C   UNL     1      -1.443  11.566  23.269  0.00  0.00    +0.000 C 
ATOM      2  C   UNL     1      -0.839  11.029  22.030  0.00  0.00    +0.000 A 
ATOM      3  C   UNL     1       0.228  10.171  21.875  0.00  0.00    +0.000 A 
ATOM      4  N   UNL     1       0.342   9.952  20.528  0.00  0.00    +0.000 N 
ATOM      5  N   UNL     1       1.241   9.118  19.927  0.00  0.00    +0.000 NA
ATOM      6  C   UNL     1       1.172   9.118  18.624  0.00  0.00    +0.000 A 
ATOM      7  N   UNL     1       1.995   8.309  17.881  0.00  0.00    +0.000 N 
ATOM      8  C   UNL     1       0.201   9.959  17.850  0.00  0.00    +0.000 A 
ATOM      9  C   UNL     1      -0.681  10.710  18.516  0.00  0.00    +0.000 A 
ATOM     10  C   UNL     1      -0.627  10.733  19.921  0.00  0.00    +0.000 A 
ATOM     11  N   UNL     1      -1.356  11.381  20.802  0.00  0.00    +0.000 NA
ATOM     12  H   UNL     1       2.337   8.685  17.004  0.00  0.00    +0.000 HD
ENDROOT
BRANCH   7  13
ATOM     13  C   UNL     1       2.734   7.169  18.404  0.00  0.00    +0.000 C 
ATOM     14  C   UNL     1       2.014   5.883  18.001  0.00  0.00    +0.000 C 
ATOM     15  C   UNL     1       3.113   4.831  17.981  0.00  0.00    +0.000 C 
ATOM     16  N   UNL     1       4.310   5.572  17.612  0.00  0.00    +0.000 N 
ATOM     17  C   UNL     1       5.212   5.055  16.738  0.00  0.00    +0.000 A 
ATOM     18  N   UNL     1       5.084   3.882  16.150  0.00  0.00    +0.000 NA
ATOM     19  C   UNL     1       6.144   3.638  15.302  0.00  0.00    +0.000 A 
ATOM     20  C   UNL     1       7.111   4.616  15.262  0.00  0.00    +0.000 A 
ATOM     21  S   UNL     1       6.674   5.891  16.308  0.00  0.00    +0.000 S 
ATOM     22  C   UNL     1       4.131   7.012  17.783  0.00  0.00    +0.000 C 
ENDBRANCH   7  13
TORSDOF 1
ENDMDL
MODEL 3
REMARK VINA RESULT:      -7.2      2.750      7.245
REMARK  Name = 
REMARK  2 active torsions:
REMARK  status: ('A' for Active; 'I' for Inactive)
REMARK    1  A    between atoms: C_1  and  C_2
REMARK    2  A    between atoms: N_7  and  C_8
REMARK                            x       y       z     vdW  Elec       q    Type
REMARK                         _______ _______ _______ _____ _____    ______ ____
ROOT
ATOM      1  C   UNL     1       5.501   3.904  16.040  0.00  0.00    +0.000 C 
ATOM      2  C   UNL     1       4.596   4.383  17.107  0.00  0.00    +0.000 A 
ATOM      3  C   UNL     1       4.544   5.613  17.727  0.00  0.00    +0.000 A 
ATOM      4  N   UNL     1       3.494   5.549  18.604  0.00  0.00    +0.000 N 
ATOM      5  N   UNL     1       3.048   6.571  19.392  0.00  0.00    +0.000 NA
ATOM      6  C   UNL     1       2.054   6.242  20.172  0.00  0.00    +0.000 A 
ATOM      7  N   UNL     1       1.482   7.171  21.004  0.00  0.00    +0.000 N 
ATOM      8  C   UNL     1       1.456   4.867  20.206  0.00  0.00    +0.000 A 
ATOM      9  C   UNL     1       1.916   3.937  19.365  0.00  0.00    +0.000 A 
ATOM     10  C   UNL     1       2.990   4.262  18.516  0.00  0.00    +0.000 A 
ATOM     11  N   UNL     1       3.628   3.546  17.618  0.00  0.00    +0.000 NA
ATOM     12  H   UNL     1       1.177   6.844  21.915  0.00  0.00    +0.000 HD
ENDROOT
BRANCH   7  13
ATOM     13  C   UNL     1       1.641   8.611  20.877  0.00  0.00    +0.000 C 
ATOM     14  C   UNL     1       1.164   9.044  19.491  0.00  0.00    +0.000 C 
ATOM     15  C   UNL     1       0.745  10.495  19.676  0.00  0.00    +0.000 C 
ATOM     16  N   UNL     1       0.289  10.561  21.056  0.00  0.00    +0.000 N 
ATOM     17  C   UNL     1      -0.821  11.268  21.393  0.00  0.00    +0.000 A 
ATOM     18  N   UNL     1      -1.571  11.923  20.530  0.00  0.00    +0.000 NA
ATOM     19  C   UNL     1      -2.638  12.526  21.163  0.00  0.00    +0.000 A 
ATOM     20  C   UNL     1      -2.691  12.360  22.528  0.00  0.00    +0.000 A 
ATOM     21  S   UNL     1      -1.371  11.406  23.037  0.00  0.00    +0.000 S 
ATOM     22  C   UNL     1       0.743   9.410  21.834  0.00  0.00    +0.000 C 
ENDBRANCH   7  13
TORSDOF 1
ENDMDL
MODEL 4
REMARK VINA RESULT:      -7.0      2.826      7.289
REMARK  Name = 
REMARK  2 active torsions:
REMARK  status: ('A' for Active; 'I' for Inactive)
REMARK    1  A    between atoms: C_1  and  C_2
REMARK    2  A    between atoms: N_7  and  C_8
REMARK                            x       y       z     vdW  Elec       q    Type
REMARK                         _______ _______ _______ _____ _____    ______ ____
ROOT
ATOM      1  C   UNL     1       7.012   4.651  15.224  0.00  0.00    +0.000 C 
ATOM      2  C   UNL     1       5.866   5.002  16.090  0.00  0.00    +0.000 A 
ATOM      3  C   UNL     1       5.594   6.182  16.749  0.00  0.00    +0.000 A 
ATOM      4  N   UNL     1       4.387   5.998  17.368  0.00  0.00    +0.000 N 
ATOM      5  N   UNL     1       3.709   6.936  18.093  0.00  0.00    +0.000 NA
ATOM      6  C   UNL     1       2.597   6.498  18.616  0.00  0.00    +0.000 A 
ATOM      7  N   UNL     1       1.793   7.334  19.351  0.00  0.00    +0.000 N 
ATOM      8  C   UNL     1       2.104   5.092  18.444  0.00  0.00    +0.000 A 
ATOM      9  C   UNL     1       2.801   4.250  17.675  0.00  0.00    +0.000 A 
ATOM     10  C   UNL     1       4.006   4.694  17.102  0.00  0.00    +0.000 A 
ATOM     11  N   UNL     1       4.872   4.079  16.330  0.00  0.00    +0.000 NA
ATOM     12  H   UNL     1       1.323   6.928  20.153  0.00  0.00    +0.000 HD
ENDROOT
BRANCH   7  13
ATOM     13  C   UNL     1       1.874   8.786  19.340  0.00  0.00    +0.000 C 
ATOM     14  C   UNL     1       1.114   9.317  18.124  0.00  0.00    +0.000 C 
ATOM     15  C   UNL     1       0.690  10.720  18.532  0.00  0.00    +0.000 C 
ATOM     16  N   UNL     1       0.516  10.635  19.974  0.00  0.00    +0.000 N 
ATOM     17  C   UNL     1      -0.527  11.247  20.591  0.00  0.00    +0.000 A 
ATOM     18  N   UNL     1      -1.458  11.937  19.961  0.00  0.00    +0.000 NA
ATOM     19  C   UNL     1      -2.398  12.421  20.847  0.00  0.00    +0.000 A 
ATOM     20  C   UNL     1      -2.171  12.129  22.172  0.00  0.00    +0.000 A 
ATOM     21  S   UNL     1      -0.743  11.205  22.316  0.00  0.00    +0.000 S 
ATOM     22  C   UNL     1       1.157   9.445  20.529  0.00  0.00    +0.000 C 
ENDBRANCH   7  13
TORSDOF 1
ENDMDL
MODEL 5
REMARK VINA RESULT:      -7.0      3.041      7.192
REMARK  Name = 
REMARK  2 active torsions:
REMARK  status: ('A' for Active; 'I' for Inactive)
REMARK    1  A    between atoms: C_1  and  C_2
REMARK    2  A    between atoms: N_7  and  C_8
REMARK                            x       y       z     vdW  Elec       q    Type
REMARK                         _______ _______ _______ _____ _____    ______ ____
ROOT
ATOM      1  C   UNL     1       3.469   1.497  18.394  0.00  0.00    +0.000 C 
ATOM      2  C   UNL     1       3.444   2.961  18.187  0.00  0.00    +0.000 A 
ATOM      3  C   UNL     1       2.405   3.853  18.352  0.00  0.00    +0.000 A 
ATOM      4  N   UNL     1       2.924   5.090  18.077  0.00  0.00    +0.000 N 
ATOM      5  N   UNL     1       2.253   6.276  18.169  0.00  0.00    +0.000 NA
ATOM      6  C   UNL     1       2.961   7.313  17.812  0.00  0.00    +0.000 A 
ATOM      7  N   UNL     1       2.430   8.577  17.876  0.00  0.00    +0.000 N 
ATOM      8  C   UNL     1       4.381   7.216  17.340  0.00  0.00    +0.000 A 
ATOM      9  C   UNL     1       4.982   6.023  17.329  0.00  0.00    +0.000 A 
ATOM     10  C   UNL     1       4.242   4.888  17.704  0.00  0.00    +0.000 A 
ATOM     11  N   UNL     1       4.580   3.620  17.771  0.00  0.00    +0.000 NA
ATOM     12  H   UNL     1       2.697   9.222  17.141  0.00  0.00    +0.000 HD
ENDROOT
BRANCH   7  13
ATOM     13  C   UNL     1       1.242   8.942  18.631  0.00  0.00    +0.000 C 
ATOM     14  C   UNL     1       1.518   8.743  20.121  0.00  0.00    +0.000 C 
ATOM     15  C   UNL     1       0.572   9.716  20.810  0.00  0.00    +0.000 C 
ATOM     16  N   UNL     1       0.438  10.813  19.863  0.00  0.00    +0.000 N 
ATOM     17  C   UNL     1       0.431  12.104  20.285  0.00  0.00    +0.000 A 
ATOM     18  N   UNL     1       0.558  12.471  21.544  0.00  0.00    +0.000 NA
ATOM     19  C   UNL     1       0.535  13.846  21.661  0.00  0.00    +0.000 A 
ATOM     20  C   UNL     1       0.357  14.539  20.486  0.00  0.00    +0.000 A 
ATOM     21  S   UNL     1       0.228  13.438  19.189  0.00  0.00    +0.000 S 
ATOM     22  C   UNL     1       0.888  10.434  18.525  0.00  0.00    +0.000 C 
ENDBRANCH   7  13
TORSDOF 1
ENDMDL
MODEL 6
REMARK VINA RESULT:      -6.9      2.870      5.163
REMARK  Name = 
REMARK  2 active torsions:
REMARK  status: ('A' for Active; 'I' for Inactive)
REMARK    1  A    between atoms: C_1  and  C_2
REMARK    2  A    between atoms: N_7  and  C_8
REMARK                            x       y       z     vdW  Elec       q    Type
REMARK                         _______ _______ _______ _____ _____    ______ ____
ROOT
ATOM      1  C   UNL     1       1.267   8.729  21.236  0.00  0.00    +0.000 C 
ATOM      2  C   UNL     1       1.616   7.442  20.597  0.00  0.00    +0.000 A 
ATOM      3  C   UNL     1       2.435   7.192  19.517  0.00  0.00    +0.000 A 
ATOM      4  N   UNL     1       2.456   5.831  19.367  0.00  0.00    +0.000 N 
ATOM      5  N   UNL     1       3.189   5.140  18.445  0.00  0.00    +0.000 NA
ATOM      6  C   UNL     1       3.002   3.849  18.481  0.00  0.00    +0.000 A 
ATOM      7  N   UNL     1       3.690   3.019  17.632  0.00  0.00    +0.000 N 
ATOM      8  C   UNL     1       2.065   3.180  19.443  0.00  0.00    +0.000 A 
ATOM      9  C   UNL     1       1.424   3.924  20.349  0.00  0.00    +0.000 A 
ATOM     10  C   UNL     1       1.603   5.319  20.330  0.00  0.00    +0.000 A 
ATOM     11  N   UNL     1       1.094   6.265  21.086  0.00  0.00    +0.000 NA
ATOM     12  H   UNL     1       3.188   2.214  17.272  0.00  0.00    +0.000 HD
ENDROOT
BRANCH   7  13
ATOM     13  C   UNL     1       4.887   3.392  16.894  0.00  0.00    +0.000 C 
ATOM     14  C   UNL     1       4.516   4.430  15.835  0.00  0.00    +0.000 C 
ATOM     15  C   UNL     1       5.803   5.208  15.607  0.00  0.00    +0.000 C 
ATOM     16  N   UNL     1       6.484   5.157  16.892  0.00  0.00    +0.000 N 
ATOM     17  C   UNL     1       7.119   6.248  17.392  0.00  0.00    +0.000 A 
ATOM     18  N   UNL     1       7.163   7.419  16.788  0.00  0.00    +0.000 NA
ATOM     19  C   UNL     1       7.860   8.338  17.546  0.00  0.00    +0.000 A 
ATOM     20  C   UNL     1       8.384   7.861  18.725  0.00  0.00    +0.000 A 
ATOM     21  S   UNL     1       7.980   6.212  18.902  0.00  0.00    +0.000 S 
ATOM     22  C   UNL     1       5.934   4.114  17.756  0.00  0.00    +0.000 C 
ENDBRANCH   7  13
TORSDOF 1
ENDMDL
MODEL 7
REMARK VINA RESULT:      -6.9      3.169      7.096
REMARK  Name = 
REMARK  2 active torsions:
REMARK  status: ('A' for Active; 'I' for Inactive)
REMARK    1  A    between atoms: C_1  and  C_2
REMARK    2  A    between atoms: N_7  and  C_8
REMARK                            x       y       z     vdW  Elec       q    Type
REMARK                         _______ _______ _______ _____ _____    ______ ____
ROOT
ATOM      1  C   UNL     1       6.708   4.102  12.721  0.00  0.00    +0.000 C 
ATOM      2  C   UNL     1       6.469   4.451  14.138  0.00  0.00    +0.000 A 
ATOM      3  C   UNL     1       5.334   4.953  14.739  0.00  0.00    +0.000 A 
ATOM      4  N   UNL     1       5.625   5.048  16.073  0.00  0.00    +0.000 N 
ATOM      5  N   UNL     1       4.763   5.452  17.053  0.00  0.00    +0.000 NA
ATOM      6  C   UNL     1       5.298   5.495  18.242  0.00  0.00    +0.000 A 
ATOM      7  N   UNL     1       4.547   5.858  19.332  0.00  0.00    +0.000 N 
ATOM      8  C   UNL     1       6.729   5.140  18.515  0.00  0.00    +0.000 A 
ATOM      9  C   UNL     1       7.493   4.703  17.509  0.00  0.00    +0.000 A 
ATOM     10  C   UNL     1       6.944   4.651  16.215  0.00  0.00    +0.000 A 
ATOM     11  N   UNL     1       7.469   4.278  15.070  0.00  0.00    +0.000 NA
ATOM     12  H   UNL     1       5.012   6.410  20.045  0.00  0.00    +0.000 HD
ENDROOT
BRANCH   7  13
ATOM     13  C   UNL     1       3.093   5.884  19.370  0.00  0.00    +0.000 C 
ATOM     14  C   UNL     1       2.620   5.305  20.703  0.00  0.00    +0.000 C 
ATOM     15  C   UNL     1       1.262   5.953  20.930  0.00  0.00    +0.000 C 
ATOM     16  N   UNL     1       1.373   7.252  20.283  0.00  0.00    +0.000 N 
ATOM     17  C   UNL     1       0.858   8.368  20.861  0.00  0.00    +0.000 A 
ATOM     18  N   UNL     1       0.246   8.381  22.028  0.00  0.00    +0.000 NA
ATOM     19  C   UNL     1      -0.148   9.661  22.363  0.00  0.00    +0.000 A 
ATOM     20  C   UNL     1       0.135  10.632  21.432  0.00  0.00    +0.000 A 
ATOM     21  S   UNL     1       0.934   9.928  20.098  0.00  0.00    +0.000 S 
ATOM     22  C   UNL     1       2.508   7.305  19.365  0.00  0.00    +0.000 C 
ENDBRANCH   7  13
TORSDOF 1
ENDMDL
MODEL 8
REMARK VINA RESULT:      -6.8      4.640      8.144
REMARK  Name = 
REMARK  2 active torsions:
REMARK  status: ('A' for Active; 'I' for Inactive)
REMARK    1  A    between atoms: C_1  and  C_2
REMARK    2  A    between atoms: N_7  and  C_8
REMARK                            x       y       z     vdW  Elec       q    Type
REMARK                         _______ _______ _______ _____ _____    ______ ____
ROOT
ATOM      1  C   UNL     1       4.276   6.104  17.418  0.00  0.00    +0.000 C 
ATOM      2  C   UNL     1       3.308   6.944  18.156  0.00  0.00    +0.000 A 
ATOM      3  C   UNL     1       2.618   8.062  17.736  0.00  0.00    +0.000 A 
ATOM      4  N   UNL     1       1.818   8.427  18.785  0.00  0.00    +0.000 N 
ATOM      5  N   UNL     1       0.921   9.457  18.786  0.00  0.00    +0.000 NA
ATOM      6  C   UNL     1       0.310   9.624  19.926  0.00  0.00    +0.000 A 
ATOM      7  N   UNL     1      -0.639  10.605  20.072  0.00  0.00    +0.000 N 
ATOM      8  C   UNL     1       0.566   8.769  21.131  0.00  0.00    +0.000 A 
ATOM      9  C   UNL     1       1.422   7.748  21.032  0.00  0.00    +0.000 A 
ATOM     10  C   UNL     1       2.099   7.546  19.816  0.00  0.00    +0.000 A 
ATOM     11  N   UNL     1       2.983   6.642  19.460  0.00  0.00    +0.000 NA
ATOM     12  H   UNL     1      -0.672  11.081  20.967  0.00  0.00    +0.000 HD
ENDROOT
BRANCH   7  13
ATOM     13  C   UNL     1      -1.303  11.291  18.974  0.00  0.00    +0.000 C 
ATOM     14  C   UNL     1      -1.804  10.252  17.970  0.00  0.00    +0.000 C 
ATOM     15  C   UNL     1      -2.979  10.933  17.284  0.00  0.00    +0.000 C 
ATOM     16  N   UNL     1      -3.525  11.814  18.304  0.00  0.00    +0.000 N 
ATOM     17  C   UNL     1      -4.867  11.946  18.469  0.00  0.00    +0.000 A 
ATOM     18  N   UNL     1      -5.767  11.297  17.758  0.00  0.00    +0.000 NA
ATOM     19  C   UNL     1      -7.045  11.620  18.168  0.00  0.00    +0.000 A 
ATOM     20  C   UNL     1      -7.128  12.547  19.180  0.00  0.00    +0.000 A 
ATOM     21  S   UNL     1      -5.557  13.023  19.647  0.00  0.00    +0.000 S 
ATOM     22  C   UNL     1      -2.582  12.027  19.400  0.00  0.00    +0.000 C 
ENDBRANCH   7  13
TORSDOF 1
ENDMDL
MODEL 9
REMARK VINA RESULT:      -6.8      2.482      3.243
REMARK  Name = 
REMARK  2 active torsions:
REMARK  status: ('A' for Active; 'I' for Inactive)
REMARK    1  A    between atoms: C_1  and  C_2
REMARK    2  A    between atoms: N_7  and  C_8
REMARK                            x       y       z     vdW  Elec       q    Type
REMARK                         _______ _______ _______ _____ _____    ______ ____
ROOT
ATOM      1  C   UNL     1      -4.233  11.522  17.083  0.00  0.00    +0.000 C 
ATOM      2  C   UNL     1      -2.851  11.170  17.477  0.00  0.00    +0.000 A 
ATOM      3  C   UNL     1      -2.189   9.966  17.374  0.00  0.00    +0.000 A 
ATOM      4  N   UNL     1      -0.920  10.192  17.834  0.00  0.00    +0.000 N 
ATOM      5  N   UNL     1       0.095   9.280  17.862  0.00  0.00    +0.000 NA
ATOM      6  C   UNL     1       1.200   9.733  18.388  0.00  0.00    +0.000 A 
ATOM      7  N   UNL     1       2.316   8.939  18.461  0.00  0.00    +0.000 N 
ATOM      8  C   UNL     1       1.346  11.128  18.920  0.00  0.00    +0.000 A 
ATOM      9  C   UNL     1       0.319  11.976  18.808  0.00  0.00    +0.000 A 
ATOM     10  C   UNL     1      -0.885  11.513  18.249  0.00  0.00    +0.000 A 
ATOM     11  N   UNL     1      -2.029  12.124  18.036  0.00  0.00    +0.000 NA
ATOM     12  H   UNL     1       2.896   9.038  19.287  0.00  0.00    +0.000 HD
ENDROOT
BRANCH   7  13
ATOM     13  C   UNL     1       2.520   7.717  17.696  0.00  0.00    +0.000 C 
ATOM     14  C   UNL     1       4.017   7.528  17.451  0.00  0.00    +0.000 C 
ATOM     15  C   UNL     1       4.179   6.025  17.279  0.00  0.00    +0.000 C 
ATOM     16  N   UNL     1       3.131   5.455  18.111  0.00  0.00    +0.000 N 
ATOM     17  C   UNL     1       3.364   4.360  18.879  0.00  0.00    +0.000 A 
ATOM     18  N   UNL     1       4.526   3.742  18.953  0.00  0.00    +0.000 NA
ATOM     19  C   UNL     1       4.463   2.678  19.829  0.00  0.00    +0.000 A 
ATOM     20  C   UNL     1       3.235   2.456  20.408  0.00  0.00    +0.000 A 
ATOM     21  S   UNL     1       2.124   3.625  19.852  0.00  0.00    +0.000 S 
ATOM     22  C   UNL     1       2.115   6.447  18.460  0.00  0.00    +0.000 C 
ENDBRANCH   7  13
TORSDOF 1
ENDMDL
