MODEL 1
REMARK VINA RESULT:      -5.5      0.000      0.000
REMARK  Name = 
REMARK  14 active torsions:
REMARK  status: ('A' for Active; 'I' for Inactive)
REMARK    1  A    between atoms: N_1  and  C_2
REMARK    2  A    between atoms: C_2  and  C_3
REMARK    3  A    between atoms: C_4  and  O_5
REMARK    4  A    between atoms: O_5  and  C_6
REMARK    5  A    between atoms: C_6  and  C_7
REMARK    6  A    between atoms: C_7  and  C_8
REMARK    7  A    between atoms: C_8  and  C_9
REMARK    8  A    between atoms: C_9  and  O_10
REMARK    9  A    between atoms: C_14  and  O_15
REMARK   10  A    between atoms: O_15  and  C_16
REMARK   11  A    between atoms: C_16  and  C_17
REMARK   12  A    between atoms: C_17  and  C_18
REMARK   13  A    between atoms: C_18  and  C_19
REMARK   14  A    between atoms: C_19  and  O_20
REMARK                            x       y       z     vdW  Elec       q    Type
REMARK                         _______ _______ _______ _____ _____    ______ ____
ROOT
ATOM      1  C   UNL     1       4.397   5.339  18.456  0.00  0.00    +0.000 A 
ATOM      2  C   UNL     1       3.364   5.443  19.438  0.00  0.00    +0.000 A 
ATOM      3  C   UNL     1       2.537   6.585  19.418  0.00  0.00    +0.000 A 
ATOM      4  N   UNL     1       2.687   7.536  18.483  0.00  0.00    +0.000 NA
ATOM      5  C   UNL     1       3.641   7.461  17.541  0.00  0.00    +0.000 A 
ATOM      6  C   UNL     1       4.562   6.378  17.498  0.00  0.00    +0.000 A 
ENDROOT
BRANCH   1   7
ATOM      7  C   UNL     1       5.318   4.125  18.454  0.00  0.00    +0.000 C 
BRANCH   7   8
ATOM      8  N   UNL     1       4.621   2.936  17.967  0.00  0.00    +0.000 NA
ATOM      9  H   UNL     1       5.324   2.276  17.564  0.00  0.00    +0.000 HD
ATOM     10  H   UNL     1       3.952   3.206  17.213  0.00  0.00    +0.000 HD
ENDBRANCH   7   8
ENDBRANCH   1   7
BRANCH   2  11
ATOM     11  O   UNL     1       3.150   4.465  20.372  0.00  0.00    +0.000 OA
BRANCH  11  12
ATOM     12  C   UNL     1       2.041   4.462  21.215  0.00  0.00    +0.000 C 
BRANCH  12  13
ATOM     13  C   UNL     1       1.069   3.321  20.939  0.00  0.00    +0.000 C 
BRANCH  13  14
ATOM     14  C   UNL     1       1.657   2.263  20.008  0.00  0.00    +0.000 C 
BRANCH  14  15
ATOM     15  C   UNL     1       0.953   2.300  18.648  0.00  0.00    +0.000 C 
BRANCH  15  16
ATOM     16  O   UNL     1       1.460   3.344  17.866  0.00  0.00    +0.000 OA
ATOM     17  H   UNL     1       2.243   2.975  17.379  0.00  0.00    +0.000 HD
ENDBRANCH  15  16
ENDBRANCH  14  15
ENDBRANCH  13  14
ENDBRANCH  12  13
ENDBRANCH  11  12
ENDBRANCH   2  11
BRANCH   6  18
ATOM     18  O   UNL     1       5.601   6.393  16.587  0.00  0.00    +0.000 OA
BRANCH  18  19
ATOM     19  C   UNL     1       5.426   5.810  15.337  0.00  0.00    +0.000 C 
BRANCH  19  20
ATOM     20  C   UNL     1       6.618   5.103  14.685  0.00  0.00    +0.000 C 
BRANCH  20  21
ATOM     21  C   UNL     1       6.023   3.841  14.004  0.00  0.00    +0.000 C 
BRANCH  21  22
ATOM     22  C   UNL     1       6.412   3.631  12.545  0.00  0.00    +0.000 C 
BRANCH  22  23
ATOM     23  O   UNL     1       5.928   2.390  12.100  0.00  0.00    +0.000 OA
ATOM     24  H   UNL     1       5.032   2.549  11.704  0.00  0.00    +0.000 HD
ENDBRANCH  22  23
ENDBRANCH  21  22
ENDBRANCH  20  21
ENDBRANCH  19  20
ENDBRANCH  18  19
ENDBRANCH   6  18
TORSDOF 14
ENDMDL
MODEL 2
REMARK VINA RESULT:      -5.5      2.015      5.788
REMARK  Name = 
REMARK  14 active torsions:
REMARK  status: ('A' for Active; 'I' for Inactive)
REMARK    1  A    between atoms: N_1  and  C_2
REMARK    2  A    between atoms: C_2  and  C_3
REMARK    3  A    between atoms: C_4  and  O_5
REMARK    4  A    between atoms: O_5  and  C_6
REMARK    5  A    between atoms: C_6  and  C_7
REMARK    6  A    between atoms: C_7  and  C_8
REMARK    7  A    between atoms: C_8  and  C_9
REMARK    8  A    between atoms: C_9  and  O_10
REMARK    9  A    between atoms: C_14  and  O_15
REMARK   10  A    between atoms: O_15  and  C_16
REMARK   11  A    between atoms: C_16  and  C_17
REMARK   12  A    between atoms: C_17  and  C_18
REMARK   13  A    between atoms: C_18  and  C_19
REMARK   14  A    between atoms: C_19  and  O_20
REMARK                            x       y       z     vdW  Elec       q    Type
REMARK                         _______ _______ _______ _____ _____    ______ ____
ROOT
ATOM      1  C   UNL     1       4.405   5.169  18.592  0.00  0.00    +0.000 A 
ATOM      2  C   UNL     1       4.516   6.124  17.534  0.00  0.00    +0.000 A 
ATOM      3  C   UNL     1       3.659   7.243  17.554  0.00  0.00    +0.000 A 
ATOM      4  N   UNL     1       2.784   7.433  18.553  0.00  0.00    +0.000 NA
ATOM      5  C   UNL     1       2.664   6.559  19.566  0.00  0.00    +0.000 A 
ATOM      6  C   UNL     1       3.444   5.370  19.621  0.00  0.00    +0.000 A 
ENDROOT
BRANCH   1   7
ATOM      7  C   UNL     1       5.306   3.940  18.598  0.00  0.00    +0.000 C 
BRANCH   7   8
ATOM      8  N   UNL     1       4.518   2.709  18.618  0.00  0.00    +0.000 NA
ATOM      9  H   UNL     1       4.288   2.473  19.610  0.00  0.00    +0.000 HD
ATOM     10  H   UNL     1       5.079   1.927  18.214  0.00  0.00    +0.000 HD
ENDBRANCH   7   8
ENDBRANCH   1   7
BRANCH   2  11
ATOM     11  O   UNL     1       5.435   5.988  16.528  0.00  0.00    +0.000 OA
BRANCH  11  12
ATOM     12  C   UNL     1       6.808   5.953  16.765  0.00  0.00    +0.000 C 
BRANCH  12  13
ATOM     13  C   UNL     1       7.368   7.267  17.294  0.00  0.00    +0.000 C 
BRANCH  13  14
ATOM     14  C   UNL     1       8.063   7.107  18.644  0.00  0.00    +0.000 C 
BRANCH  14  15
ATOM     15  C   UNL     1       8.058   5.636  19.074  0.00  0.00    +0.000 C 
BRANCH  15  16
ATOM     16  O   UNL     1       8.031   5.537  20.470  0.00  0.00    +0.000 OA
ATOM     17  H   UNL     1       7.215   6.016  20.769  0.00  0.00    +0.000 HD
ENDBRANCH  15  16
ENDBRANCH  14  15
ENDBRANCH  13  14
ENDBRANCH  12  13
ENDBRANCH  11  12
ENDBRANCH   2  11
BRANCH   6  18
ATOM     18  O   UNL     1       3.211   4.440  20.615  0.00  0.00    +0.000 OA
BRANCH  18  19
ATOM     19  C   UNL     1       1.939   4.325  21.164  0.00  0.00    +0.000 C 
BRANCH  19  20
ATOM     20  C   UNL     1       1.212   2.981  21.054  0.00  0.00    +0.000 C 
BRANCH  20  21
ATOM     21  C   UNL     1       0.468   3.028  19.692  0.00  0.00    +0.000 C 
BRANCH  21  22
ATOM     22  C   UNL     1       1.106   2.229  18.561  0.00  0.00    +0.000 C 
BRANCH  22  23
ATOM     23  O   UNL     1       1.695   3.106  17.637  0.00  0.00    +0.000 OA
ATOM     24  H   UNL     1       2.545   2.689  17.337  0.00  0.00    +0.000 HD
ENDBRANCH  22  23
ENDBRANCH  21  22
ENDBRANCH  20  21
ENDBRANCH  19  20
ENDBRANCH  18  19
ENDBRANCH   6  18
TORSDOF 14
ENDMDL
MODEL 3
REMARK VINA RESULT:      -5.5      1.954      6.463
REMARK  Name = 
REMARK  14 active torsions:
REMARK  status: ('A' for Active; 'I' for Inactive)
REMARK    1  A    between atoms: N_1  and  C_2
REMARK    2  A    between atoms: C_2  and  C_3
REMARK    3  A    between atoms: C_4  and  O_5
REMARK    4  A    between atoms: O_5  and  C_6
REMARK    5  A    between atoms: C_6  and  C_7
REMARK    6  A    between atoms: C_7  and  C_8
REMARK    7  A    between atoms: C_8  and  C_9
REMARK    8  A    between atoms: C_9  and  O_10
REMARK    9  A    between atoms: C_14  and  O_15
REMARK   10  A    between atoms: O_15  and  C_16
REMARK   11  A    between atoms: C_16  and  C_17
REMARK   12  A    between atoms: C_17  and  C_18
REMARK   13  A    between atoms: C_18  and  C_19
REMARK   14  A    between atoms: C_19  and  O_20
REMARK                            x       y       z     vdW  Elec       q    Type
REMARK                         _______ _______ _______ _____ _____    ______ ____
ROOT
ATOM      1  C   UNL     1       4.998   4.100  17.743  0.00  0.00    +0.000 A 
ATOM      2  C   UNL     1       6.045   4.204  16.775  0.00  0.00    +0.000 A 
ATOM      3  C   UNL     1       7.181   4.973  17.102  0.00  0.00    +0.000 A 
ATOM      4  N   UNL     1       7.299   5.565  18.300  0.00  0.00    +0.000 NA
ATOM      5  C   UNL     1       6.338   5.476  19.234  0.00  0.00    +0.000 A 
ATOM      6  C   UNL     1       5.128   4.767  18.992  0.00  0.00    +0.000 A 
ENDROOT
BRANCH   1   7
ATOM      7  C   UNL     1       3.750   3.287  17.421  0.00  0.00    +0.000 C 
BRANCH   7   8
ATOM      8  N   UNL     1       3.938   1.877  17.756  0.00  0.00    +0.000 NA
ATOM      9  H   UNL     1       4.853   1.558  17.362  0.00  0.00    +0.000 HD
ATOM     10  H   UNL     1       3.177   1.309  17.324  0.00  0.00    +0.000 HD
ENDBRANCH   7   8
ENDBRANCH   1   7
BRANCH   2  11
ATOM     11  O   UNL     1       5.979   3.569  15.564  0.00  0.00    +0.000 OA
BRANCH  11  12
ATOM     12  C   UNL     1       5.677   4.239  14.380  0.00  0.00    +0.000 C 
BRANCH  12  13
ATOM     13  C   UNL     1       6.899   4.533  13.519  0.00  0.00    +0.000 C 
BRANCH  13  14
ATOM     14  C   UNL     1       6.878   3.774  12.194  0.00  0.00    +0.000 C 
BRANCH  14  15
ATOM     15  C   UNL     1       5.569   2.992  12.048  0.00  0.00    +0.000 C 
BRANCH  15  16
ATOM     16  O   UNL     1       5.827   1.688  11.610  0.00  0.00    +0.000 OA
ATOM     17  H   UNL     1       6.279   1.224  12.362  0.00  0.00    +0.000 HD
ENDBRANCH  15  16
ENDBRANCH  14  15
ENDBRANCH  13  14
ENDBRANCH  12  13
ENDBRANCH  11  12
ENDBRANCH   2  11
BRANCH   6  18
ATOM     18  O   UNL     1       4.115   4.795  19.931  0.00  0.00    +0.000 OA
BRANCH  18  19
ATOM     19  C   UNL     1       3.072   5.703  19.789  0.00  0.00    +0.000 C 
BRANCH  19  20
ATOM     20  C   UNL     1       1.818   5.519  20.649  0.00  0.00    +0.000 C 
BRANCH  20  21
ATOM     21  C   UNL     1       1.102   4.271  20.067  0.00  0.00    +0.000 C 
BRANCH  21  22
ATOM     22  C   UNL     1       1.248   2.987  20.877  0.00  0.00    +0.000 C 
BRANCH  22  23
ATOM     23  O   UNL     1       1.908   2.015  20.107  0.00  0.00    +0.000 OA
ATOM     24  H   UNL     1       1.237   1.321  19.873  0.00  0.00    +0.000 HD
ENDBRANCH  22  23
ENDBRANCH  21  22
ENDBRANCH  20  21
ENDBRANCH  19  20
ENDBRANCH  18  19
ENDBRANCH   6  18
TORSDOF 14
ENDMDL
MODEL 4
REMARK VINA RESULT:      -5.5      1.518      2.027
REMARK  Name = 
REMARK  14 active torsions:
REMARK  status: ('A' for Active; 'I' for Inactive)
REMARK    1  A    between atoms: N_1  and  C_2
REMARK    2  A    between atoms: C_2  and  C_3
REMARK    3  A    between atoms: C_4  and  O_5
REMARK    4  A    between atoms: O_5  and  C_6
REMARK    5  A    between atoms: C_6  and  C_7
REMARK    6  A    between atoms: C_7  and  C_8
REMARK    7  A    between atoms: C_8  and  C_9
REMARK    8  A    between atoms: C_9  and  O_10
REMARK    9  A    between atoms: C_14  and  O_15
REMARK   10  A    between atoms: O_15  and  C_16
REMARK   11  A    between atoms: C_16  and  C_17
REMARK   12  A    between atoms: C_17  and  C_18
REMARK   13  A    between atoms: C_18  and  C_19
REMARK   14  A    between atoms: C_19  and  O_20
REMARK                            x       y       z     vdW  Elec       q    Type
REMARK                         _______ _______ _______ _____ _____    ______ ____
ROOT
ATOM      1  C   UNL     1       4.633   4.520  17.536  0.00  0.00    +0.000 A 
ATOM      2  C   UNL     1       4.120   5.650  18.245  0.00  0.00    +0.000 A 
ATOM      3  C   UNL     1       4.236   6.922  17.647  0.00  0.00    +0.000 A 
ATOM      4  N   UNL     1       4.781   7.072  16.430  0.00  0.00    +0.000 NA
ATOM      5  C   UNL     1       5.262   6.028  15.735  0.00  0.00    +0.000 A 
ATOM      6  C   UNL     1       5.241   4.708  16.264  0.00  0.00    +0.000 A 
ENDROOT
BRANCH   1   7
ATOM      7  C   UNL     1       4.536   3.132  18.156  0.00  0.00    +0.000 C 
BRANCH   7   8
ATOM      8  N   UNL     1       5.217   3.084  19.448  0.00  0.00    +0.000 NA
ATOM      9  H   UNL     1       5.227   2.094  19.786  0.00  0.00    +0.000 HD
ATOM     10  H   UNL     1       4.696   3.664  20.141  0.00  0.00    +0.000 HD
ENDBRANCH   7   8
ENDBRANCH   1   7
BRANCH   2  11
ATOM     11  O   UNL     1       3.509   5.525  19.465  0.00  0.00    +0.000 OA
BRANCH  11  12
ATOM     12  C   UNL     1       2.155   5.226  19.599  0.00  0.00    +0.000 C 
BRANCH  12  13
ATOM     13  C   UNL     1       1.869   4.145  20.634  0.00  0.00    +0.000 C 
BRANCH  13  14
ATOM     14  C   UNL     1       0.715   3.234  20.225  0.00  0.00    +0.000 C 
BRANCH  14  15
ATOM     15  C   UNL     1       0.953   2.669  18.821  0.00  0.00    +0.000 C 
BRANCH  15  16
ATOM     16  O   UNL     1       1.666   1.467  18.894  0.00  0.00    +0.000 OA
ATOM     17  H   UNL     1       1.818   1.174  17.958  0.00  0.00    +0.000 HD
ENDBRANCH  15  16
ENDBRANCH  14  15
ENDBRANCH  13  14
ENDBRANCH  12  13
ENDBRANCH  11  12
ENDBRANCH   2  11
BRANCH   6  18
ATOM     18  O   UNL     1       5.849   3.679  15.571  0.00  0.00    +0.000 OA
BRANCH  18  19
ATOM     19  C   UNL     1       6.310   3.900  14.277  0.00  0.00    +0.000 C 
BRANCH  19  20
ATOM     20  C   UNL     1       5.327   3.742  13.113  0.00  0.00    +0.000 C 
BRANCH  20  21
ATOM     21  C   UNL     1       6.180   3.217  11.926  0.00  0.00    +0.000 C 
BRANCH  21  22
ATOM     22  C   UNL     1       5.844   1.810  11.442  0.00  0.00    +0.000 C 
BRANCH  22  23
ATOM     23  O   UNL     1       7.029   1.086  11.235  0.00  0.00    +0.000 OA
ATOM     24  H   UNL     1       6.886   0.177  11.608  0.00  0.00    +0.000 HD
ENDBRANCH  22  23
ENDBRANCH  21  22
ENDBRANCH  20  21
ENDBRANCH  19  20
ENDBRANCH  18  19
ENDBRANCH   6  18
TORSDOF 14
ENDMDL
MODEL 5
REMARK VINA RESULT:      -5.5      1.828      2.395
REMARK  Name = 
REMARK  14 active torsions:
REMARK  status: ('A' for Active; 'I' for Inactive)
REMARK    1  A    between atoms: N_1  and  C_2
REMARK    2  A    between atoms: C_2  and  C_3
REMARK    3  A    between atoms: C_4  and  O_5
REMARK    4  A    between atoms: O_5  and  C_6
REMARK    5  A    between atoms: C_6  and  C_7
REMARK    6  A    between atoms: C_7  and  C_8
REMARK    7  A    between atoms: C_8  and  C_9
REMARK    8  A    between atoms: C_9  and  O_10
REMARK    9  A    between atoms: C_14  and  O_15
REMARK   10  A    between atoms: O_15  and  C_16
REMARK   11  A    between atoms: C_16  and  C_17
REMARK   12  A    between atoms: C_17  and  C_18
REMARK   13  A    between atoms: C_18  and  C_19
REMARK   14  A    between atoms: C_19  and  O_20
REMARK                            x       y       z     vdW  Elec       q    Type
REMARK                         _______ _______ _______ _____ _____    ______ ____
ROOT
ATOM      1  C   UNL     1       5.173   4.059  17.630  0.00  0.00    +0.000 A 
ATOM      2  C   UNL     1       5.084   4.673  18.918  0.00  0.00    +0.000 A 
ATOM      3  C   UNL     1       6.132   5.525  19.324  0.00  0.00    +0.000 A 
ATOM      4  N   UNL     1       7.170   5.787  18.515  0.00  0.00    +0.000 NA
ATOM      5  C   UNL     1       7.276   5.234  17.296  0.00  0.00    +0.000 A 
ATOM      6  C   UNL     1       6.302   4.321  16.805  0.00  0.00    +0.000 A 
ENDROOT
BRANCH   1   7
ATOM      7  C   UNL     1       4.066   3.123  17.161  0.00  0.00    +0.000 C 
BRANCH   7   8
ATOM      8  N   UNL     1       4.037   1.901  17.962  0.00  0.00    +0.000 NA
ATOM      9  H   UNL     1       3.143   1.874  18.502  0.00  0.00    +0.000 HD
ATOM     10  H   UNL     1       4.831   1.907  18.640  0.00  0.00    +0.000 HD
ENDBRANCH   7   8
ENDBRANCH   1   7
BRANCH   2  11
ATOM     11  O   UNL     1       4.012   4.470  19.745  0.00  0.00    +0.000 OA
BRANCH  11  12
ATOM     12  C   UNL     1       2.914   5.327  19.775  0.00  0.00    +0.000 C 
BRANCH  12  13
ATOM     13  C   UNL     1       1.753   4.800  20.609  0.00  0.00    +0.000 C 
BRANCH  13  14
ATOM     14  C   UNL     1       1.607   3.283  20.518  0.00  0.00    +0.000 C 
BRANCH  14  15
ATOM     15  C   UNL     1       0.749   2.902  19.307  0.00  0.00    +0.000 C 
BRANCH  15  16
ATOM     16  O   UNL     1       1.238   1.732  18.714  0.00  0.00    +0.000 OA
ATOM     17  H   UNL     1       0.894   0.977  19.259  0.00  0.00    +0.000 HD
ENDBRANCH  15  16
ENDBRANCH  14  15
ENDBRANCH  13  14
ENDBRANCH  12  13
ENDBRANCH  11  12
ENDBRANCH   2  11
BRANCH   6  18
ATOM     18  O   UNL     1       6.503   3.684  15.595  0.00  0.00    +0.000 OA
BRANCH  18  19
ATOM     19  C   UNL     1       6.363   4.399  14.411  0.00  0.00    +0.000 C 
BRANCH  19  20
ATOM     20  C   UNL     1       5.640   3.735  13.235  0.00  0.00    +0.000 C 
BRANCH  20  21
ATOM     21  C   UNL     1       6.687   3.676  12.091  0.00  0.00    +0.000 C 
BRANCH  21  22
ATOM     22  C   UNL     1       6.940   2.295  11.495  0.00  0.00    +0.000 C 
BRANCH  22  23
ATOM     23  O   UNL     1       5.748   1.552  11.503  0.00  0.00    +0.000 OA
ATOM     24  H   UNL     1       5.013   2.175  11.264  0.00  0.00    +0.000 HD
ENDBRANCH  22  23
ENDBRANCH  21  22
ENDBRANCH  20  21
ENDBRANCH  19  20
ENDBRANCH  18  19
ENDBRANCH   6  18
TORSDOF 14
ENDMDL
MODEL 6
REMARK VINA RESULT:      -5.5      1.890      5.853
REMARK  Name = 
REMARK  14 active torsions:
REMARK  status: ('A' for Active; 'I' for Inactive)
REMARK    1  A    between atoms: N_1  and  C_2
REMARK    2  A    between atoms: C_2  and  C_3
REMARK    3  A    between atoms: C_4  and  O_5
REMARK    4  A    between atoms: O_5  and  C_6
REMARK    5  A    between atoms: C_6  and  C_7
REMARK    6  A    between atoms: C_7  and  C_8
REMARK    7  A    between atoms: C_8  and  C_9
REMARK    8  A    between atoms: C_9  and  O_10
REMARK    9  A    between atoms: C_14  and  O_15
REMARK   10  A    between atoms: O_15  and  C_16
REMARK   11  A    between atoms: C_16  and  C_17
REMARK   12  A    between atoms: C_17  and  C_18
REMARK   13  A    between atoms: C_18  and  C_19
REMARK   14  A    between atoms: C_19  and  O_20
REMARK                            x       y       z     vdW  Elec       q    Type
REMARK                         _______ _______ _______ _____ _____    ______ ____
ROOT
ATOM      1  C   UNL     1       3.991   3.968  18.193  0.00  0.00    +0.000 A 
ATOM      2  C   UNL     1       5.056   4.887  18.441  0.00  0.00    +0.000 A 
ATOM      3  C   UNL     1       4.771   6.268  18.395  0.00  0.00    +0.000 A 
ATOM      4  N   UNL     1       3.527   6.714  18.160  0.00  0.00    +0.000 NA
ATOM      5  C   UNL     1       2.503   5.874  17.934  0.00  0.00    +0.000 A 
ATOM      6  C   UNL     1       2.688   4.464  17.909  0.00  0.00    +0.000 A 
ENDROOT
BRANCH   1   7
ATOM      7  C   UNL     1       4.263   2.469  18.223  0.00  0.00    +0.000 C 
BRANCH   7   8
ATOM      8  N   UNL     1       4.848   2.066  19.500  0.00  0.00    +0.000 NA
ATOM      9  H   UNL     1       4.401   2.621  20.265  0.00  0.00    +0.000 HD
ATOM     10  H   UNL     1       5.872   2.272  19.498  0.00  0.00    +0.000 HD
ENDBRANCH   7   8
ENDBRANCH   1   7
BRANCH   2  11
ATOM     11  O   UNL     1       6.325   4.465  18.737  0.00  0.00    +0.000 OA
BRANCH  11  12
ATOM     12  C   UNL     1       7.417   4.735  17.915  0.00  0.00    +0.000 C 
BRANCH  12  13
ATOM     13  C   UNL     1       7.240   4.242  16.484  0.00  0.00    +0.000 C 
BRANCH  13  14
ATOM     14  C   UNL     1       7.088   5.385  15.484  0.00  0.00    +0.000 C 
BRANCH  14  15
ATOM     15  C   UNL     1       5.653   5.437  14.948  0.00  0.00    +0.000 C 
BRANCH  15  16
ATOM     16  O   UNL     1       5.112   6.715  15.129  0.00  0.00    +0.000 OA
ATOM     17  H   UNL     1       5.784   7.234  15.644  0.00  0.00    +0.000 HD
ENDBRANCH  15  16
ENDBRANCH  14  15
ENDBRANCH  13  14
ENDBRANCH  12  13
ENDBRANCH  11  12
ENDBRANCH   2  11
BRANCH   6  18
ATOM     18  O   UNL     1       1.637   3.638  17.559  0.00  0.00    +0.000 OA
BRANCH  18  19
ATOM     19  C   UNL     1       0.669   3.321  18.506  0.00  0.00    +0.000 C 
BRANCH  19  20
ATOM     20  C   UNL     1       0.992   2.253  19.555  0.00  0.00    +0.000 C 
BRANCH  20  21
ATOM     21  C   UNL     1       0.943   2.991  20.920  0.00  0.00    +0.000 C 
BRANCH  21  22
ATOM     22  C   UNL     1       2.285   3.479  21.456  0.00  0.00    +0.000 C 
BRANCH  22  23
ATOM     23  O   UNL     1       2.998   2.398  22.000  0.00  0.00    +0.000 OA
ATOM     24  H   UNL     1       2.468   1.578  21.821  0.00  0.00    +0.000 HD
ENDBRANCH  22  23
ENDBRANCH  21  22
ENDBRANCH  20  21
ENDBRANCH  19  20
ENDBRANCH  18  19
ENDBRANCH   6  18
TORSDOF 14
ENDMDL
MODEL 7
REMARK VINA RESULT:      -5.4      0.852      5.555
REMARK  Name = 
REMARK  14 active torsions:
REMARK  status: ('A' for Active; 'I' for Inactive)
REMARK    1  A    between atoms: N_1  and  C_2
REMARK    2  A    between atoms: C_2  and  C_3
REMARK    3  A    between atoms: C_4  and  O_5
REMARK    4  A    between atoms: O_5  and  C_6
REMARK    5  A    between atoms: C_6  and  C_7
REMARK    6  A    between atoms: C_7  and  C_8
REMARK    7  A    between atoms: C_8  and  C_9
REMARK    8  A    between atoms: C_9  and  O_10
REMARK    9  A    between atoms: C_14  and  O_15
REMARK   10  A    between atoms: O_15  and  C_16
REMARK   11  A    between atoms: C_16  and  C_17
REMARK   12  A    between atoms: C_17  and  C_18
REMARK   13  A    between atoms: C_18  and  C_19
REMARK   14  A    between atoms: C_19  and  O_20
REMARK                            x       y       z     vdW  Elec       q    Type
REMARK                         _______ _______ _______ _____ _____    ______ ____
ROOT
ATOM      1  C   UNL     1       4.037   5.405  18.871  0.00  0.00    +0.000 A 
ATOM      2  C   UNL     1       4.283   6.304  17.788  0.00  0.00    +0.000 A 
ATOM      3  C   UNL     1       3.460   7.443  17.666  0.00  0.00    +0.000 A 
ATOM      4  N   UNL     1       2.493   7.701  18.559  0.00  0.00    +0.000 NA
ATOM      5  C   UNL     1       2.245   6.881  19.594  0.00  0.00    +0.000 A 
ATOM      6  C   UNL     1       2.982   5.679  19.784  0.00  0.00    +0.000 A 
ENDROOT
BRANCH   1   7
ATOM      7  C   UNL     1       4.898   4.157  19.028  0.00  0.00    +0.000 C 
BRANCH   7   8
ATOM      8  N   UNL     1       6.311   4.506  19.161  0.00  0.00    +0.000 NA
ATOM      9  H   UNL     1       6.696   4.720  18.213  0.00  0.00    +0.000 HD
ATOM     10  H   UNL     1       6.837   3.695  19.555  0.00  0.00    +0.000 HD
ENDBRANCH   7   8
ENDBRANCH   1   7
BRANCH   2  11
ATOM     11  O   UNL     1       5.297   6.098  16.890  0.00  0.00    +0.000 OA
BRANCH  11  12
ATOM     12  C   UNL     1       5.074   5.596  15.609  0.00  0.00    +0.000 C 
BRANCH  12  13
ATOM     13  C   UNL     1       6.344   5.129  14.909  0.00  0.00    +0.000 C 
BRANCH  13  14
ATOM     14  C   UNL     1       6.205   3.729  14.317  0.00  0.00    +0.000 C 
BRANCH  14  15
ATOM     15  C   UNL     1       6.540   3.747  12.821  0.00  0.00    +0.000 C 
BRANCH  15  16
ATOM     16  O   UNL     1       5.959   2.648  12.179  0.00  0.00    +0.000 OA
ATOM     17  H   UNL     1       6.344   2.622  11.264  0.00  0.00    +0.000 HD
ENDBRANCH  15  16
ENDBRANCH  14  15
ENDBRANCH  13  14
ENDBRANCH  12  13
ENDBRANCH  11  12
ENDBRANCH   2  11
BRANCH   6  18
ATOM     18  O   UNL     1       2.622   4.803  20.791  0.00  0.00    +0.000 OA
BRANCH  18  19
ATOM     19  C   UNL     1       1.388   4.165  20.737  0.00  0.00    +0.000 C 
BRANCH  19  20
ATOM     20  C   UNL     1       1.349   2.672  20.396  0.00  0.00    +0.000 C 
BRANCH  20  21
ATOM     21  C   UNL     1       0.982   2.606  18.889  0.00  0.00    +0.000 C 
BRANCH  21  22
ATOM     22  C   UNL     1       2.138   2.312  17.939  0.00  0.00    +0.000 C 
BRANCH  22  23
ATOM     23  O   UNL     1       2.150   3.258  16.901  0.00  0.00    +0.000 OA
ATOM     24  H   UNL     1       2.117   4.156  17.323  0.00  0.00    +0.000 HD
ENDBRANCH  22  23
ENDBRANCH  21  22
ENDBRANCH  20  21
ENDBRANCH  19  20
ENDBRANCH  18  19
ENDBRANCH   6  18
TORSDOF 14
ENDMDL
MODEL 8
REMARK VINA RESULT:      -5.4      2.026      6.732
REMARK  Name = 
REMARK  14 active torsions:
REMARK  status: ('A' for Active; 'I' for Inactive)
REMARK    1  A    between atoms: N_1  and  C_2
REMARK    2  A    between atoms: C_2  and  C_3
REMARK    3  A    between atoms: C_4  and  O_5
REMARK    4  A    between atoms: O_5  and  C_6
REMARK    5  A    between atoms: C_6  and  C_7
REMARK    6  A    between atoms: C_7  and  C_8
REMARK    7  A    between atoms: C_8  and  C_9
REMARK    8  A    between atoms: C_9  and  O_10
REMARK    9  A    between atoms: C_14  and  O_15
REMARK   10  A    between atoms: O_15  and  C_16
REMARK   11  A    between atoms: C_16  and  C_17
REMARK   12  A    between atoms: C_17  and  C_18
REMARK   13  A    between atoms: C_18  and  C_19
REMARK   14  A    between atoms: C_19  and  O_20
REMARK                            x       y       z     vdW  Elec       q    Type
REMARK                         _______ _______ _______ _____ _____    ______ ____
ROOT
ATOM      1  C   UNL     1       4.479   4.018  17.522  0.00  0.00    +0.000 A 
ATOM      2  C   UNL     1       5.393   4.309  16.462  0.00  0.00    +0.000 A 
ATOM      3  C   UNL     1       6.451   5.205  16.720  0.00  0.00    +0.000 A 
ATOM      4  N   UNL     1       6.624   5.747  17.935  0.00  0.00    +0.000 NA
ATOM      5  C   UNL     1       5.789   5.485  18.954  0.00  0.00    +0.000 A 
ATOM      6  C   UNL     1       4.660   4.635  18.791  0.00  0.00    +0.000 A 
ENDROOT
BRANCH   1   7
ATOM      7  C   UNL     1       3.316   3.065  17.277  0.00  0.00    +0.000 C 
BRANCH   7   8
ATOM      8  N   UNL     1       2.060   3.796  17.128  0.00  0.00    +0.000 NA
ATOM      9  H   UNL     1       2.181   4.757  17.520  0.00  0.00    +0.000 HD
ATOM     10  H   UNL     1       1.307   3.312  17.665  0.00  0.00    +0.000 HD
ENDBRANCH   7   8
ENDBRANCH   1   7
BRANCH   2  11
ATOM     11  O   UNL     1       5.277   3.731  15.226  0.00  0.00    +0.000 OA
BRANCH  11  12
ATOM     12  C   UNL     1       6.194   3.959  14.202  0.00  0.00    +0.000 C 
BRANCH  12  13
ATOM     13  C   UNL     1       5.619   3.734  12.808  0.00  0.00    +0.000 C 
BRANCH  13  14
ATOM     14  C   UNL     1       6.513   2.851  11.942  0.00  0.00    +0.000 C 
BRANCH  14  15
ATOM     15  C   UNL     1       5.678   1.778  11.235  0.00  0.00    +0.000 C 
BRANCH  15  16
ATOM     16  O   UNL     1       6.132   0.500  11.583  0.00  0.00    +0.000 OA
ATOM     17  H   UNL     1       6.651   0.166  10.806  0.00  0.00    +0.000 HD
ENDBRANCH  15  16
ENDBRANCH  14  15
ENDBRANCH  13  14
ENDBRANCH  12  13
ENDBRANCH  11  12
ENDBRANCH   2  11
BRANCH   6  18
ATOM     18  O   UNL     1       3.759   4.481  19.828  0.00  0.00    +0.000 OA
BRANCH  18  19
ATOM     19  C   UNL     1       2.824   5.479  20.079  0.00  0.00    +0.000 C 
BRANCH  19  20
ATOM     20  C   UNL     1       1.603   5.139  20.939  0.00  0.00    +0.000 C 
BRANCH  20  21
ATOM     21  C   UNL     1       1.180   3.710  20.505  0.00  0.00    +0.000 C 
BRANCH  21  22
ATOM     22  C   UNL     1       1.336   2.624  21.564  0.00  0.00    +0.000 C 
BRANCH  22  23
ATOM     23  O   UNL     1       2.646   2.641  22.069  0.00  0.00    +0.000 OA
ATOM     24  H   UNL     1       3.079   1.791  21.791  0.00  0.00    +0.000 HD
ENDBRANCH  22  23
ENDBRANCH  21  22
ENDBRANCH  20  21
ENDBRANCH  19  20
ENDBRANCH  18  19
ENDBRANCH   6  18
TORSDOF 14
ENDMDL
MODEL 9
REMARK VINA RESULT:      -5.4      1.980      5.285
REMARK  Name = 
REMARK  14 active torsions:
REMARK  status: ('A' for Active; 'I' for Inactive)
REMARK    1  A    between atoms: N_1  and  C_2
REMARK    2  A    between atoms: C_2  and  C_3
REMARK    3  A    between atoms: C_4  and  O_5
REMARK    4  A    between atoms: O_5  and  C_6
REMARK    5  A    between atoms: C_6  and  C_7
REMARK    6  A    between atoms: C_7  and  C_8
REMARK    7  A    between atoms: C_8  and  C_9
REMARK    8  A    between atoms: C_9  and  O_10
REMARK    9  A    between atoms: C_14  and  O_15
REMARK   10  A    between atoms: O_15  and  C_16
REMARK   11  A    between atoms: C_16  and  C_17
REMARK   12  A    between atoms: C_17  and  C_18
REMARK   13  A    between atoms: C_18  and  C_19
REMARK   14  A    between atoms: C_19  and  O_20
REMARK                            x       y       z     vdW  Elec       q    Type
REMARK                         _______ _______ _______ _____ _____    ______ ____
ROOT
ATOM      1  C   UNL     1       3.959   5.595  19.104  0.00  0.00    +0.000 A 
ATOM      2  C   UNL     1       4.160   6.531  18.043  0.00  0.00    +0.000 A 
ATOM      3  C   UNL     1       3.231   7.582  17.896  0.00  0.00    +0.000 A 
ATOM      4  N   UNL     1       2.204   7.727  18.746  0.00  0.00    +0.000 NA
ATOM      5  C   UNL     1       1.995   6.870  19.759  0.00  0.00    +0.000 A 
ATOM      6  C   UNL     1       2.841   5.746  19.970  0.00  0.00    +0.000 A 
ENDROOT
BRANCH   1   7
ATOM      7  C   UNL     1       4.934   4.438  19.287  0.00  0.00    +0.000 C 
BRANCH   7   8
ATOM      8  N   UNL     1       6.271   4.926  19.623  0.00  0.00    +0.000 NA
ATOM      9  H   UNL     1       6.409   4.841  20.655  0.00  0.00    +0.000 HD
ATOM     10  H   UNL     1       6.353   5.933  19.360  0.00  0.00    +0.000 HD
ENDBRANCH   7   8
ENDBRANCH   1   7
BRANCH   2  11
ATOM     11  O   UNL     1       5.228   6.442  17.191  0.00  0.00    +0.000 OA
BRANCH  11  12
ATOM     12  C   UNL     1       5.115   6.661  15.819  0.00  0.00    +0.000 C 
BRANCH  12  13
ATOM     13  C   UNL     1       5.252   5.393  14.986  0.00  0.00    +0.000 C 
BRANCH  13  14
ATOM     14  C   UNL     1       5.771   4.210  15.801  0.00  0.00    +0.000 C 
BRANCH  14  15
ATOM     15  C   UNL     1       7.302   4.229  15.851  0.00  0.00    +0.000 C 
BRANCH  15  16
ATOM     16  O   UNL     1       7.742   4.665  17.107  0.00  0.00    +0.000 OA
ATOM     17  H   UNL     1       8.693   4.929  16.994  0.00  0.00    +0.000 HD
ENDBRANCH  15  16
ENDBRANCH  14  15
ENDBRANCH  13  14
ENDBRANCH  12  13
ENDBRANCH  11  12
ENDBRANCH   2  11
BRANCH   6  18
ATOM     18  O   UNL     1       2.527   4.823  20.950  0.00  0.00    +0.000 OA
BRANCH  18  19
ATOM     19  C   UNL     1       1.437   3.979  20.774  0.00  0.00    +0.000 C 
BRANCH  19  20
ATOM     20  C   UNL     1       1.140   3.448  19.368  0.00  0.00    +0.000 C 
BRANCH  20  21
ATOM     21  C   UNL     1       1.932   2.117  19.258  0.00  0.00    +0.000 C 
BRANCH  21  22
ATOM     22  C   UNL     1       2.762   1.944  17.990  0.00  0.00    +0.000 C 
BRANCH  22  23
ATOM     23  O   UNL     1       3.930   1.223  18.285  0.00  0.00    +0.000 OA
ATOM     24  H   UNL     1       4.604   1.876  18.610  0.00  0.00    +0.000 HD
ENDBRANCH  22  23
ENDBRANCH  21  22
ENDBRANCH  20  21
ENDBRANCH  19  20
ENDBRANCH  18  19
ENDBRANCH   6  18
TORSDOF 14
ENDMDL
