MODEL 1
REMARK VINA RESULT:      -7.3      0.000      0.000
REMARK  Name = 
REMARK  6 active torsions:
REMARK  status: ('A' for Active; 'I' for Inactive)
REMARK    1  A    between atoms: C_2  and  C_3
REMARK    2  A    between atoms: C_2  and  C_18
REMARK    3  A    between atoms: C_3  and  S_4
REMARK    4  A    between atoms: S_4  and  C_5
REMARK    5  A    between atoms: C_5  and  C_6
REMARK    6  A    between atoms: C_10  and  N_11
REMARK                            x       y       z     vdW  Elec       q    Type
REMARK                         _______ _______ _______ _____ _____    ______ ____
ROOT
ATOM      1  C   UNL     1       4.099   2.850  18.260  0.00  0.00    +0.000 A 
ATOM      2  N   UNL     1       4.978   3.469  19.033  0.00  0.00    +0.000 NA
ATOM      3  C   UNL     1       5.494   4.488  18.272  0.00  0.00    +0.000 A 
ATOM      4  C   UNL     1       6.436   5.472  18.608  0.00  0.00    +0.000 A 
ATOM      5  C   UNL     1       6.779   6.415  17.622  0.00  0.00    +0.000 A 
ATOM      6  C   UNL     1       6.209   6.383  16.338  0.00  0.00    +0.000 A 
ATOM      7  C   UNL     1       5.269   5.400  15.999  0.00  0.00    +0.000 A 
ATOM      8  C   UNL     1       4.944   4.480  16.995  0.00  0.00    +0.000 A 
ATOM      9  N   UNL     1       4.066   3.424  17.013  0.00  0.00    +0.000 N 
ATOM     10  H   UNL     1       3.459   3.142  16.260  0.00  0.00    +0.000 HD
ENDROOT
BRANCH   5  11
ATOM     11  N   UNL     1       7.754   7.467  17.941  0.00  0.00    +0.000 N 
ATOM     12  O   UNL     1       7.724   8.508  17.263  0.00  0.00    +0.000 OA
ATOM     13  O   UNL     1       8.546   7.258  18.871  0.00  0.00    +0.000 OA
ENDBRANCH   5  11
BRANCH   1  14
ATOM     14  C   UNL     1       3.238   1.687  18.620  0.00  0.00    +0.000 C 
BRANCH  14  15
ATOM     15  S   UNL     1       2.179   2.078  20.063  0.00  0.00    +0.000 S 
BRANCH  15  16
ATOM     16  C   UNL     1       1.445   3.662  19.500  0.00  0.00    +0.000 C 
BRANCH  16  18
ATOM     17  O   UNL     1       2.323   4.708  21.500  0.00  0.00    +0.000 OA
ATOM     18  C   UNL     1       1.939   4.831  20.331  0.00  0.00    +0.000 C 
BRANCH  18  19
ATOM     19  C   UNL     1       2.007   6.182  19.721  0.00  0.00    +0.000 A 
ATOM     20  C   UNL     1       1.575   7.270  20.493  0.00  0.00    +0.000 A 
ATOM     21  C   UNL     1       1.587   8.560  19.965  0.00  0.00    +0.000 A 
ATOM     22  C   UNL     1       2.026   8.766  18.660  0.00  0.00    +0.000 A 
ATOM     23 CL   UNL     1       2.027  10.348  17.996  0.00  0.00    +0.000 Cl
ATOM     24  C   UNL     1       2.452   7.686  17.881  0.00  0.00    +0.000 A 
ATOM     25  C   UNL     1       2.445   6.394  18.408  0.00  0.00    +0.000 A 
ENDBRANCH  18  19
ENDBRANCH  16  18
ENDBRANCH  15  16
ENDBRANCH  14  15
ENDBRANCH   1  14
TORSDOF 6
ENDMDL
MODEL 2
REMARK VINA RESULT:      -7.1      2.305      2.842
REMARK  Name = 
REMARK  6 active torsions:
REMARK  status: ('A' for Active; 'I' for Inactive)
REMARK    1  A    between atoms: C_2  and  C_3
REMARK    2  A    between atoms: C_2  and  C_18
REMARK    3  A    between atoms: C_3  and  S_4
REMARK    4  A    between atoms: S_4  and  C_5
REMARK    5  A    between atoms: C_5  and  C_6
REMARK    6  A    between atoms: C_10  and  N_11
REMARK                            x       y       z     vdW  Elec       q    Type
REMARK                         _______ _______ _______ _____ _____    ______ ____
ROOT
ATOM      1  C   UNL     1       3.830   3.212  18.945  0.00  0.00    +0.000 A 
ATOM      2  N   UNL     1       3.699   3.251  17.629  0.00  0.00    +0.000 NA
ATOM      3  C   UNL     1       4.872   3.779  17.150  0.00  0.00    +0.000 A 
ATOM      4  C   UNL     1       5.280   4.010  15.828  0.00  0.00    +0.000 A 
ATOM      5  C   UNL     1       6.559   4.559  15.623  0.00  0.00    +0.000 A 
ATOM      6  C   UNL     1       7.409   4.874  16.696  0.00  0.00    +0.000 A 
ATOM      7  C   UNL     1       7.003   4.647  18.018  0.00  0.00    +0.000 A 
ATOM      8  C   UNL     1       5.732   4.099  18.194  0.00  0.00    +0.000 A 
ATOM      9  N   UNL     1       5.042   3.734  19.324  0.00  0.00    +0.000 N 
ATOM     10  H   UNL     1       5.381   3.790  20.272  0.00  0.00    +0.000 HD
ENDROOT
BRANCH   5  11
ATOM     11  N   UNL     1       7.024   4.804  14.251  0.00  0.00    +0.000 N 
ATOM     12  O   UNL     1       6.468   4.181  13.332  0.00  0.00    +0.000 OA
ATOM     13  O   UNL     1       7.940   5.622  14.089  0.00  0.00    +0.000 OA
ENDBRANCH   5  11
BRANCH   1  14
ATOM     14  C   UNL     1       2.846   2.694  19.939  0.00  0.00    +0.000 C 
BRANCH  14  15
ATOM     15  S   UNL     1       2.179   4.054  20.969  0.00  0.00    +0.000 S 
BRANCH  15  16
ATOM     16  C   UNL     1       1.630   5.210  19.655  0.00  0.00    +0.000 C 
BRANCH  16  18
ATOM     17  O   UNL     1       3.688   6.469  19.443  0.00  0.00    +0.000 OA
ATOM     18  C   UNL     1       2.467   6.475  19.641  0.00  0.00    +0.000 C 
BRANCH  18  19
ATOM     19  C   UNL     1       1.807   7.789  19.834  0.00  0.00    +0.000 A 
ATOM     20  C   UNL     1       1.276   8.074  21.101  0.00  0.00    +0.000 A 
ATOM     21  C   UNL     1       0.618   9.281  21.336  0.00  0.00    +0.000 A 
ATOM     22  C   UNL     1       0.482  10.204  20.303  0.00  0.00    +0.000 A 
ATOM     23 CL   UNL     1      -0.342  11.683  20.579  0.00  0.00    +0.000 Cl
ATOM     24  C   UNL     1       1.003   9.925  19.036  0.00  0.00    +0.000 A 
ATOM     25  C   UNL     1       1.665   8.720  18.798  0.00  0.00    +0.000 A 
ENDBRANCH  18  19
ENDBRANCH  16  18
ENDBRANCH  15  16
ENDBRANCH  14  15
ENDBRANCH   1  14
TORSDOF 6
ENDMDL
MODEL 3
REMARK VINA RESULT:      -7.0      3.715      4.744
REMARK  Name = 
REMARK  6 active torsions:
REMARK  status: ('A' for Active; 'I' for Inactive)
REMARK    1  A    between atoms: C_2  and  C_3
REMARK    2  A    between atoms: C_2  and  C_18
REMARK    3  A    between atoms: C_3  and  S_4
REMARK    4  A    between atoms: S_4  and  C_5
REMARK    5  A    between atoms: C_5  and  C_6
REMARK    6  A    between atoms: C_10  and  N_11
REMARK                            x       y       z     vdW  Elec       q    Type
REMARK                         _______ _______ _______ _____ _____    ______ ____
ROOT
ATOM      1  C   UNL     1       6.769   5.375  16.502  0.00  0.00    +0.000 A 
ATOM      2  N   UNL     1       5.844   4.522  16.092  0.00  0.00    +0.000 NA
ATOM      3  C   UNL     1       6.100   4.301  14.762  0.00  0.00    +0.000 A 
ATOM      4  C   UNL     1       5.447   3.459  13.849  0.00  0.00    +0.000 A 
ATOM      5  C   UNL     1       5.937   3.417  12.530  0.00  0.00    +0.000 A 
ATOM      6  C   UNL     1       7.037   4.191  12.125  0.00  0.00    +0.000 A 
ATOM      7  C   UNL     1       7.689   5.036  13.034  0.00  0.00    +0.000 A 
ATOM      8  C   UNL     1       7.187   5.055  14.336  0.00  0.00    +0.000 A 
ATOM      9  N   UNL     1       7.589   5.734  15.460  0.00  0.00    +0.000 N 
ATOM     10  H   UNL     1       8.381   6.353  15.530  0.00  0.00    +0.000 HD
ENDROOT
BRANCH   5  11
ATOM     11  N   UNL     1       5.286   2.538  11.549  0.00  0.00    +0.000 N 
ATOM     12  O   UNL     1       4.173   2.880  11.116  0.00  0.00    +0.000 OA
ATOM     13  O   UNL     1       5.886   1.510  11.207  0.00  0.00    +0.000 OA
ENDBRANCH   5  11
BRANCH   1  14
ATOM     14  C   UNL     1       6.954   5.918  17.878  0.00  0.00    +0.000 C 
BRANCH  14  15
ATOM     15  S   UNL     1       5.718   5.214  19.032  0.00  0.00    +0.000 S 
BRANCH  15  16
ATOM     16  C   UNL     1       4.177   5.879  18.294  0.00  0.00    +0.000 C 
BRANCH  16  18
ATOM     17  O   UNL     1       2.896   5.330  20.275  0.00  0.00    +0.000 OA
ATOM     18  C   UNL     1       3.113   6.120  19.348  0.00  0.00    +0.000 C 
BRANCH  18  19
ATOM     19  C   UNL     1       2.312   7.368  19.305  0.00  0.00    +0.000 A 
ATOM     20  C   UNL     1       2.237   8.055  18.085  0.00  0.00    +0.000 A 
ATOM     21  C   UNL     1       1.523   9.249  17.990  0.00  0.00    +0.000 A 
ATOM     22  C   UNL     1       0.888   9.765  19.116  0.00  0.00    +0.000 A 
ATOM     23 CL   UNL     1       0.023  11.243  19.011  0.00  0.00    +0.000 Cl
ATOM     24  C   UNL     1       0.964   9.089  20.338  0.00  0.00    +0.000 A 
ATOM     25  C   UNL     1       1.673   7.892  20.436  0.00  0.00    +0.000 A 
ENDBRANCH  18  19
ENDBRANCH  16  18
ENDBRANCH  15  16
ENDBRANCH  14  15
ENDBRANCH   1  14
TORSDOF 6
ENDMDL
MODEL 4
REMARK VINA RESULT:      -6.9      3.694      4.645
REMARK  Name = 
REMARK  6 active torsions:
REMARK  status: ('A' for Active; 'I' for Inactive)
REMARK    1  A    between atoms: C_2  and  C_3
REMARK    2  A    between atoms: C_2  and  C_18
REMARK    3  A    between atoms: C_3  and  S_4
REMARK    4  A    between atoms: S_4  and  C_5
REMARK    5  A    between atoms: C_5  and  C_6
REMARK    6  A    between atoms: C_10  and  N_11
REMARK                            x       y       z     vdW  Elec       q    Type
REMARK                         _______ _______ _______ _____ _____    ______ ____
ROOT
ATOM      1  C   UNL     1       6.620   5.292  16.603  0.00  0.00    +0.000 A 
ATOM      2  N   UNL     1       5.717   4.439  16.147  0.00  0.00    +0.000 NA
ATOM      3  C   UNL     1       6.021   4.243  14.822  0.00  0.00    +0.000 A 
ATOM      4  C   UNL     1       5.407   3.412  13.873  0.00  0.00    +0.000 A 
ATOM      5  C   UNL     1       5.942   3.398  12.571  0.00  0.00    +0.000 A 
ATOM      6  C   UNL     1       7.049   4.188  12.218  0.00  0.00    +0.000 A 
ATOM      7  C   UNL     1       7.661   5.022  13.164  0.00  0.00    +0.000 A 
ATOM      8  C   UNL     1       7.115   5.014  14.447  0.00  0.00    +0.000 A 
ATOM      9  N   UNL     1       7.472   5.676  15.596  0.00  0.00    +0.000 N 
ATOM     10  H   UNL     1       8.256   6.300  15.704  0.00  0.00    +0.000 HD
ENDROOT
BRANCH   5  11
ATOM     11  N   UNL     1       5.332   2.531  11.554  0.00  0.00    +0.000 N 
ATOM     12  O   UNL     1       5.966   1.524  11.198  0.00  0.00    +0.000 OA
ATOM     13  O   UNL     1       4.220   2.851  11.113  0.00  0.00    +0.000 OA
ENDBRANCH   5  11
BRANCH   1  14
ATOM     14  C   UNL     1       6.754   5.812  17.994  0.00  0.00    +0.000 C 
BRANCH  14  15
ATOM     15  S   UNL     1       5.424   5.155  19.069  0.00  0.00    +0.000 S 
BRANCH  15  16
ATOM     16  C   UNL     1       3.964   5.948  18.292  0.00  0.00    +0.000 C 
BRANCH  16  18
ATOM     17  O   UNL     1       2.599   5.511  20.244  0.00  0.00    +0.000 OA
ATOM     18  C   UNL     1       2.896   6.275  19.318  0.00  0.00    +0.000 C 
BRANCH  18  19
ATOM     19  C   UNL     1       2.189   7.577  19.246  0.00  0.00    +0.000 A 
ATOM     20  C   UNL     1       1.583   8.058  20.416  0.00  0.00    +0.000 A 
ATOM     21  C   UNL     1       0.879   9.262  20.403  0.00  0.00    +0.000 A 
ATOM     22  C   UNL     1       0.773   9.986  19.219  0.00  0.00    +0.000 A 
ATOM     23 CL   UNL     1      -0.107  11.459  19.192  0.00  0.00    +0.000 Cl
ATOM     24  C   UNL     1       1.368   9.510  18.047  0.00  0.00    +0.000 A 
ATOM     25  C   UNL     1       2.077   8.308  18.057  0.00  0.00    +0.000 A 
ENDBRANCH  18  19
ENDBRANCH  16  18
ENDBRANCH  15  16
ENDBRANCH  14  15
ENDBRANCH   1  14
TORSDOF 6
ENDMDL
MODEL 5
REMARK VINA RESULT:      -6.8      4.273      5.501
REMARK  Name = 
REMARK  6 active torsions:
REMARK  status: ('A' for Active; 'I' for Inactive)
REMARK    1  A    between atoms: C_2  and  C_3
REMARK    2  A    between atoms: C_2  and  C_18
REMARK    3  A    between atoms: C_3  and  S_4
REMARK    4  A    between atoms: S_4  and  C_5
REMARK    5  A    between atoms: C_5  and  C_6
REMARK    6  A    between atoms: C_10  and  N_11
REMARK                            x       y       z     vdW  Elec       q    Type
REMARK                         _______ _______ _______ _____ _____    ______ ____
ROOT
ATOM      1  C   UNL     1       7.014   5.140  16.338  0.00  0.00    +0.000 A 
ATOM      2  N   UNL     1       6.118   4.232  15.985  0.00  0.00    +0.000 NA
ATOM      3  C   UNL     1       6.243   4.092  14.625  0.00  0.00    +0.000 A 
ATOM      4  C   UNL     1       5.561   3.239  13.743  0.00  0.00    +0.000 A 
ATOM      5  C   UNL     1       5.904   3.296  12.380  0.00  0.00    +0.000 A 
ATOM      6  C   UNL     1       6.891   4.175  11.902  0.00  0.00    +0.000 A 
ATOM      7  C   UNL     1       7.572   5.029  12.780  0.00  0.00    +0.000 A 
ATOM      8  C   UNL     1       7.216   4.950  14.127  0.00  0.00    +0.000 A 
ATOM      9  N   UNL     1       7.685   5.610  15.236  0.00  0.00    +0.000 N 
ATOM     10  H   UNL     1       8.430   6.288  15.255  0.00  0.00    +0.000 HD
ENDROOT
BRANCH   5  11
ATOM     11  N   UNL     1       5.219   2.410  11.429  0.00  0.00    +0.000 N 
ATOM     12  O   UNL     1       4.120   2.779  10.985  0.00  0.00    +0.000 OA
ATOM     13  O   UNL     1       5.780   1.350  11.120  0.00  0.00    +0.000 OA
ENDBRANCH   5  11
BRANCH   1  14
ATOM     14  C   UNL     1       7.307   5.635  17.714  0.00  0.00    +0.000 C 
BRANCH  14  15
ATOM     15  S   UNL     1       5.758   5.942  18.643  0.00  0.00    +0.000 S 
BRANCH  15  16
ATOM     16  C   UNL     1       4.901   7.063  17.471  0.00  0.00    +0.000 C 
BRANCH  16  18
ATOM     17  O   UNL     1       2.746   8.169  17.455  0.00  0.00    +0.000 OA
ATOM     18  C   UNL     1       3.428   7.199  17.808  0.00  0.00    +0.000 C 
BRANCH  18  19
ATOM     19  C   UNL     1       2.748   6.117  18.561  0.00  0.00    +0.000 A 
ATOM     20  C   UNL     1       2.377   4.962  17.857  0.00  0.00    +0.000 A 
ATOM     21  C   UNL     1       1.710   3.924  18.504  0.00  0.00    +0.000 A 
ATOM     22  C   UNL     1       1.404   4.038  19.857  0.00  0.00    +0.000 A 
ATOM     23 CL   UNL     1       0.567   2.772  20.656  0.00  0.00    +0.000 Cl
ATOM     24  C   UNL     1       1.764   5.188  20.565  0.00  0.00    +0.000 A 
ATOM     25  C   UNL     1       2.436   6.228  19.922  0.00  0.00    +0.000 A 
ENDBRANCH  18  19
ENDBRANCH  16  18
ENDBRANCH  15  16
ENDBRANCH  14  15
ENDBRANCH   1  14
TORSDOF 6
ENDMDL
MODEL 6
REMARK VINA RESULT:      -6.8      2.424      2.849
REMARK  Name = 
REMARK  6 active torsions:
REMARK  status: ('A' for Active; 'I' for Inactive)
REMARK    1  A    between atoms: C_2  and  C_3
REMARK    2  A    between atoms: C_2  and  C_18
REMARK    3  A    between atoms: C_3  and  S_4
REMARK    4  A    between atoms: S_4  and  C_5
REMARK    5  A    between atoms: C_5  and  C_6
REMARK    6  A    between atoms: C_10  and  N_11
REMARK                            x       y       z     vdW  Elec       q    Type
REMARK                         _______ _______ _______ _____ _____    ______ ____
ROOT
ATOM      1  C   UNL     1       3.830   3.198  17.371  0.00  0.00    +0.000 A 
ATOM      2  N   UNL     1       3.866   3.372  16.059  0.00  0.00    +0.000 NA
ATOM      3  C   UNL     1       5.106   3.894  15.784  0.00  0.00    +0.000 A 
ATOM      4  C   UNL     1       5.684   4.235  14.552  0.00  0.00    +0.000 A 
ATOM      5  C   UNL     1       6.995   4.746  14.562  0.00  0.00    +0.000 A 
ATOM      6  C   UNL     1       7.712   4.918  15.758  0.00  0.00    +0.000 A 
ATOM      7  C   UNL     1       7.136   4.580  16.990  0.00  0.00    +0.000 A 
ATOM      8  C   UNL     1       5.837   4.072  16.952  0.00  0.00    +0.000 A 
ATOM      9  N   UNL     1       5.000   3.629  17.946  0.00  0.00    +0.000 N 
ATOM     10  H   UNL     1       5.218   3.577  18.929  0.00  0.00    +0.000 HD
ENDROOT
BRANCH   5  11
ATOM     11  N   UNL     1       7.637   5.104  13.290  0.00  0.00    +0.000 N 
ATOM     12  O   UNL     1       7.231   4.542  12.259  0.00  0.00    +0.000 OA
ATOM     13  O   UNL     1       8.542   5.949  13.317  0.00  0.00    +0.000 OA
ENDBRANCH   5  11
BRANCH   1  14
ATOM     14  C   UNL     1       2.713   2.629  18.178  0.00  0.00    +0.000 C 
BRANCH  14  15
ATOM     15  S   UNL     1       1.423   3.891  18.492  0.00  0.00    +0.000 S 
BRANCH  15  16
ATOM     16  C   UNL     1       2.106   4.677  20.002  0.00  0.00    +0.000 C 
BRANCH  16  18
ATOM     17  O   UNL     1       4.212   5.794  19.574  0.00  0.00    +0.000 OA
ATOM     18  C   UNL     1       2.981   5.869  19.662  0.00  0.00    +0.000 C 
BRANCH  18  19
ATOM     19  C   UNL     1       2.349   7.182  19.384  0.00  0.00    +0.000 A 
ATOM     20  C   UNL     1       1.699   7.832  20.444  0.00  0.00    +0.000 A 
ATOM     21  C   UNL     1       1.062   9.055  20.237  0.00  0.00    +0.000 A 
ATOM     22  C   UNL     1       1.065   9.628  18.969  0.00  0.00    +0.000 A 
ATOM     23 CL   UNL     1       0.267  11.124  18.703  0.00  0.00    +0.000 Cl
ATOM     24  C   UNL     1       1.705   8.983  17.906  0.00  0.00    +0.000 A 
ATOM     25  C   UNL     1       2.347   7.762  18.110  0.00  0.00    +0.000 A 
ENDBRANCH  18  19
ENDBRANCH  16  18
ENDBRANCH  15  16
ENDBRANCH  14  15
ENDBRANCH   1  14
TORSDOF 6
ENDMDL
MODEL 7
REMARK VINA RESULT:      -6.8      4.384      5.542
REMARK  Name = 
REMARK  6 active torsions:
REMARK  status: ('A' for Active; 'I' for Inactive)
REMARK    1  A    between atoms: C_2  and  C_3
REMARK    2  A    between atoms: C_2  and  C_18
REMARK    3  A    between atoms: C_3  and  S_4
REMARK    4  A    between atoms: S_4  and  C_5
REMARK    5  A    between atoms: C_5  and  C_6
REMARK    6  A    between atoms: C_10  and  N_11
REMARK                            x       y       z     vdW  Elec       q    Type
REMARK                         _______ _______ _______ _____ _____    ______ ____
ROOT
ATOM      1  C   UNL     1       6.896   5.257  16.259  0.00  0.00    +0.000 A 
ATOM      2  N   UNL     1       6.022   4.331  15.898  0.00  0.00    +0.000 NA
ATOM      3  C   UNL     1       6.223   4.131  14.554  0.00  0.00    +0.000 A 
ATOM      4  C   UNL     1       5.592   3.237  13.676  0.00  0.00    +0.000 A 
ATOM      5  C   UNL     1       6.010   3.235  12.332  0.00  0.00    +0.000 A 
ATOM      6  C   UNL     1       7.019   4.095  11.870  0.00  0.00    +0.000 A 
ATOM      7  C   UNL     1       7.649   4.991  12.745  0.00  0.00    +0.000 A 
ATOM      8  C   UNL     1       7.219   4.971  14.073  0.00  0.00    +0.000 A 
ATOM      9  N   UNL     1       7.625   5.681  15.175  0.00  0.00    +0.000 N 
ATOM     10  H   UNL     1       8.366   6.363  15.204  0.00  0.00    +0.000 HD
ENDROOT
BRANCH   5  11
ATOM     11  N   UNL     1       5.380   2.304  11.385  0.00  0.00    +0.000 N 
ATOM     12  O   UNL     1       6.010   1.279  11.076  0.00  0.00    +0.000 OA
ATOM     13  O   UNL     1       4.255   2.593  10.953  0.00  0.00    +0.000 OA
ENDBRANCH   5  11
BRANCH   1  14
ATOM     14  C   UNL     1       7.111   5.815  17.625  0.00  0.00    +0.000 C 
BRANCH  14  15
ATOM     15  S   UNL     1       6.243   7.416  17.824  0.00  0.00    +0.000 S 
BRANCH  15  16
ATOM     16  C   UNL     1       4.709   7.066  16.880  0.00  0.00    +0.000 C 
BRANCH  16  18
ATOM     17  O   UNL     1       2.924   8.433  17.779  0.00  0.00    +0.000 OA
ATOM     18  C   UNL     1       3.470   7.325  17.716  0.00  0.00    +0.000 C 
BRANCH  18  19
ATOM     19  C   UNL     1       2.851   6.208  18.470  0.00  0.00    +0.000 A 
ATOM     20  C   UNL     1       2.428   6.459  19.783  0.00  0.00    +0.000 A 
ATOM     21  C   UNL     1       1.866   5.441  20.551  0.00  0.00    +0.000 A 
ATOM     22  C   UNL     1       1.730   4.165  20.011  0.00  0.00    +0.000 A 
ATOM     23 CL   UNL     1       1.056   2.902  20.957  0.00  0.00    +0.000 Cl
ATOM     24  C   UNL     1       2.155   3.904  18.705  0.00  0.00    +0.000 A 
ATOM     25  C   UNL     1       2.714   4.922  17.932  0.00  0.00    +0.000 A 
ENDBRANCH  18  19
ENDBRANCH  16  18
ENDBRANCH  15  16
ENDBRANCH  14  15
ENDBRANCH   1  14
TORSDOF 6
ENDMDL
MODEL 8
REMARK VINA RESULT:      -6.7      3.771      5.588
REMARK  Name = 
REMARK  6 active torsions:
REMARK  status: ('A' for Active; 'I' for Inactive)
REMARK    1  A    between atoms: C_2  and  C_3
REMARK    2  A    between atoms: C_2  and  C_18
REMARK    3  A    between atoms: C_3  and  S_4
REMARK    4  A    between atoms: S_4  and  C_5
REMARK    5  A    between atoms: C_5  and  C_6
REMARK    6  A    between atoms: C_10  and  N_11
REMARK                            x       y       z     vdW  Elec       q    Type
REMARK                         _______ _______ _______ _____ _____    ______ ____
ROOT
ATOM      1  C   UNL     1       1.882   6.302  20.477  0.00  0.00    +0.000 A 
ATOM      2  N   UNL     1       1.289   7.346  21.033  0.00  0.00    +0.000 NA
ATOM      3  C   UNL     1       1.388   8.364  20.118  0.00  0.00    +0.000 A 
ATOM      4  C   UNL     1       0.900   9.679  20.180  0.00  0.00    +0.000 A 
ATOM      5  C   UNL     1       1.139  10.519  19.077  0.00  0.00    +0.000 A 
ATOM      6  C   UNL     1       1.844  10.073  17.947  0.00  0.00    +0.000 A 
ATOM      7  C   UNL     1       2.335   8.762  17.884  0.00  0.00    +0.000 A 
ATOM      8  C   UNL     1       2.081   7.948  18.988  0.00  0.00    +0.000 A 
ATOM      9  N   UNL     1       2.390   6.635  19.246  0.00  0.00    +0.000 N 
ATOM     10  H   UNL     1       2.864   6.001  18.622  0.00  0.00    +0.000 HD
ENDROOT
BRANCH   5  11
ATOM     11  N   UNL     1       0.633  11.898  19.102  0.00  0.00    +0.000 N 
ATOM     12  O   UNL     1      -0.349  12.167  18.390  0.00  0.00    +0.000 OA
ATOM     13  O   UNL     1       1.210  12.712  19.836  0.00  0.00    +0.000 OA
ENDBRANCH   5  11
BRANCH   1  14
ATOM     14  C   UNL     1       2.023   4.930  21.048  0.00  0.00    +0.000 C 
BRANCH  14  15
ATOM     15  S   UNL     1       1.234   3.685  19.960  0.00  0.00    +0.000 S 
BRANCH  15  16
ATOM     16  C   UNL     1       2.579   2.439  19.876  0.00  0.00    +0.000 C 
BRANCH  16  18
ATOM     17  O   UNL     1       3.250   1.684  17.675  0.00  0.00    +0.000 OA
ATOM     18  C   UNL     1       3.343   2.533  18.568  0.00  0.00    +0.000 C 
BRANCH  18  19
ATOM     19  C   UNL     1       4.218   3.705  18.317  0.00  0.00    +0.000 A 
ATOM     20  C   UNL     1       4.147   4.316  17.057  0.00  0.00    +0.000 A 
ATOM     21  C   UNL     1       4.965   5.402  16.752  0.00  0.00    +0.000 A 
ATOM     22  C   UNL     1       5.863   5.878  17.703  0.00  0.00    +0.000 A 
ATOM     23 CL   UNL     1       6.886   7.203  17.329  0.00  0.00    +0.000 Cl
ATOM     24  C   UNL     1       5.944   5.270  18.960  0.00  0.00    +0.000 A 
ATOM     25  C   UNL     1       5.124   4.185  19.270  0.00  0.00    +0.000 A 
ENDBRANCH  18  19
ENDBRANCH  16  18
ENDBRANCH  15  16
ENDBRANCH  14  15
ENDBRANCH   1  14
TORSDOF 6
ENDMDL
MODEL 9
REMARK VINA RESULT:      -6.7      3.879      6.022
REMARK  Name = 
REMARK  6 active torsions:
REMARK  status: ('A' for Active; 'I' for Inactive)
REMARK    1  A    between atoms: C_2  and  C_3
REMARK    2  A    between atoms: C_2  and  C_18
REMARK    3  A    between atoms: C_3  and  S_4
REMARK    4  A    between atoms: S_4  and  C_5
REMARK    5  A    between atoms: C_5  and  C_6
REMARK    6  A    between atoms: C_10  and  N_11
REMARK                            x       y       z     vdW  Elec       q    Type
REMARK                         _______ _______ _______ _____ _____    ______ ____
ROOT
ATOM      1  C   UNL     1       2.164   5.970  20.271  0.00  0.00    +0.000 A 
ATOM      2  N   UNL     1       1.545   6.920  20.953  0.00  0.00    +0.000 NA
ATOM      3  C   UNL     1       1.524   8.019  20.131  0.00  0.00    +0.000 A 
ATOM      4  C   UNL     1       0.962   9.288  20.341  0.00  0.00    +0.000 A 
ATOM      5  C   UNL     1       1.079  10.235  19.307  0.00  0.00    +0.000 A 
ATOM      6  C   UNL     1       1.737   9.938  18.102  0.00  0.00    +0.000 A 
ATOM      7  C   UNL     1       2.302   8.672  17.891  0.00  0.00    +0.000 A 
ATOM      8  C   UNL     1       2.168   7.750  18.929  0.00  0.00    +0.000 A 
ATOM      9  N   UNL     1       2.572   6.443  19.048  0.00  0.00    +0.000 N 
ATOM     10  H   UNL     1       3.043   5.899  18.342  0.00  0.00    +0.000 HD
ENDROOT
BRANCH   5  11
ATOM     11  N   UNL     1       0.493  11.571  19.487  0.00  0.00    +0.000 N 
ATOM     12  O   UNL     1       0.497  12.340  18.512  0.00  0.00    +0.000 OA
ATOM     13  O   UNL     1       0.023  11.851  20.599  0.00  0.00    +0.000 OA
ENDBRANCH   5  11
BRANCH   1  14
ATOM     14  C   UNL     1       2.424   4.566  20.704  0.00  0.00    +0.000 C 
BRANCH  14  15
ATOM     15  S   UNL     1       2.672   3.470  19.258  0.00  0.00    +0.000 S 
BRANCH  15  16
ATOM     16  C   UNL     1       4.478   3.178  19.385  0.00  0.00    +0.000 C 
BRANCH  16  18
ATOM     17  O   UNL     1       5.605   5.308  19.633  0.00  0.00    +0.000 OA
ATOM     18  C   UNL     1       5.272   4.374  18.893  0.00  0.00    +0.000 C 
BRANCH  18  19
ATOM     19  C   UNL     1       5.707   4.428  17.476  0.00  0.00    +0.000 A 
ATOM     20  C   UNL     1       7.046   4.753  17.215  0.00  0.00    +0.000 A 
ATOM     21  C   UNL     1       7.507   4.847  15.903  0.00  0.00    +0.000 A 
ATOM     22  C   UNL     1       6.629   4.625  14.846  0.00  0.00    +0.000 A 
ATOM     23 CL   UNL     1       7.184   4.757  13.228  0.00  0.00    +0.000 Cl
ATOM     24  C   UNL     1       5.291   4.307  15.098  0.00  0.00    +0.000 A 
ATOM     25  C   UNL     1       4.827   4.207  16.410  0.00  0.00    +0.000 A 
ENDBRANCH  18  19
ENDBRANCH  16  18
ENDBRANCH  15  16
ENDBRANCH  14  15
ENDBRANCH   1  14
TORSDOF 6
ENDMDL
