MODEL 1
REMARK VINA RESULT:      -6.5      0.000      0.000
REMARK  Name = 
REMARK  6 active torsions:
REMARK  status: ('A' for Active; 'I' for Inactive)
REMARK    1  A    between atoms: C_2  and  O_3
REMARK    2  A    between atoms: C_2  and  C_4
REMARK    3  A    between atoms: C_4  and  C_5
REMARK    4  A    between atoms: C_5  and  C_6
REMARK    5  A    between atoms: N_8  and  C_9
REMARK    6  A    between atoms: C_9  and  C_10
REMARK                            x       y       z     vdW  Elec       q    Type
REMARK                         _______ _______ _______ _____ _____    ______ ____
ROOT
ATOM      1  C   UNL     1       6.409   5.143  18.594  0.00  0.00    +0.000 C 
ATOM      2  O   UNL     1       6.958   5.244  19.691  0.00  0.00    +0.000 OA
ATOM      3  N   UNL     1       5.067   5.325  18.397  0.00  0.00    +0.000 N 
ATOM      4  H   UNL     1       4.655   5.103  17.500  0.00  0.00    +0.000 HD
ENDROOT
BRANCH   1   5
ATOM      5  C   UNL     1       7.188   4.761  17.355  0.00  0.00    +0.000 C 
BRANCH   5   6
ATOM      6  C   UNL     1       6.248   4.305  16.245  0.00  0.00    +0.000 C 
BRANCH   6   8
ATOM      7  O   UNL     1       7.634   5.403  14.610  0.00  0.00    +0.000 OA
ATOM      8  C   UNL     1       6.859   4.496  14.878  0.00  0.00    +0.000 C 
BRANCH   8   9
ATOM      9  O   UNL     1       6.476   3.582  13.960  0.00  0.00    +0.000 OA
ATOM     10  H   UNL     1       6.145   3.973  13.113  0.00  0.00    +0.000 HD
ENDBRANCH   8   9
ENDBRANCH   6   8
ENDBRANCH   5   6
ENDBRANCH   1   5
BRANCH   3  11
ATOM     11  C   UNL     1       4.163   5.579  19.500  0.00  0.00    +0.000 C 
BRANCH  11  12
ATOM     12  C   UNL     1       2.977   4.649  19.472  0.00  0.00    +0.000 A 
ATOM     13  C   UNL     1       2.686   3.880  18.334  0.00  0.00    +0.000 A 
ATOM     14  C   UNL     1       1.597   3.005  18.326  0.00  0.00    +0.000 A 
ATOM     15  C   UNL     1       0.792   2.881  19.453  0.00  0.00    +0.000 A 
ATOM     16  C   UNL     1       1.076   3.629  20.596  0.00  0.00    +0.000 A 
ATOM     17  C   UNL     1       2.161   4.509  20.606  0.00  0.00    +0.000 A 
ENDBRANCH  11  12
ENDBRANCH   3  11
TORSDOF 6
ENDMDL
MODEL 2
REMARK VINA RESULT:      -6.4      1.694      3.111
REMARK  Name = 
REMARK  6 active torsions:
REMARK  status: ('A' for Active; 'I' for Inactive)
REMARK    1  A    between atoms: C_2  and  O_3
REMARK    2  A    between atoms: C_2  and  C_4
REMARK    3  A    between atoms: C_4  and  C_5
REMARK    4  A    between atoms: C_5  and  C_6
REMARK    5  A    between atoms: N_8  and  C_9
REMARK    6  A    between atoms: C_9  and  C_10
REMARK                            x       y       z     vdW  Elec       q    Type
REMARK                         _______ _______ _______ _____ _____    ______ ____
ROOT
ATOM      1  C   UNL     1       5.642   5.900  16.719  0.00  0.00    +0.000 C 
ATOM      2  O   UNL     1       5.392   6.871  16.005  0.00  0.00    +0.000 OA
ATOM      3  N   UNL     1       4.727   5.315  17.552  0.00  0.00    +0.000 N 
ATOM      4  H   UNL     1       5.025   4.605  18.207  0.00  0.00    +0.000 HD
ENDROOT
BRANCH   1   5
ATOM      5  C   UNL     1       7.024   5.288  16.761  0.00  0.00    +0.000 C 
BRANCH   5   6
ATOM      6  C   UNL     1       7.337   4.758  18.156  0.00  0.00    +0.000 C 
BRANCH   6   8
ATOM      7  O   UNL     1       8.188   6.952  18.672  0.00  0.00    +0.000 OA
ATOM      8  C   UNL     1       7.844   5.848  19.070  0.00  0.00    +0.000 C 
BRANCH   8   9
ATOM      9  O   UNL     1       7.895   5.506  20.375  0.00  0.00    +0.000 OA
ATOM     10  H   UNL     1       8.801   5.267  20.696  0.00  0.00    +0.000 HD
ENDBRANCH   8   9
ENDBRANCH   6   8
ENDBRANCH   5   6
ENDBRANCH   1   5
BRANCH   3  11
ATOM     11  C   UNL     1       3.393   5.855  17.717  0.00  0.00    +0.000 C 
BRANCH  11  12
ATOM     12  C   UNL     1       2.507   4.920  18.499  0.00  0.00    +0.000 A 
ATOM     13  C   UNL     1       2.147   5.205  19.826  0.00  0.00    +0.000 A 
ATOM     14  C   UNL     1       1.308   4.343  20.536  0.00  0.00    +0.000 A 
ATOM     15  C   UNL     1       0.812   3.194  19.930  0.00  0.00    +0.000 A 
ATOM     16  C   UNL     1       1.151   2.904  18.608  0.00  0.00    +0.000 A 
ATOM     17  C   UNL     1       1.994   3.761  17.897  0.00  0.00    +0.000 A 
ENDBRANCH  11  12
ENDBRANCH   3  11
TORSDOF 6
ENDMDL
MODEL 3
REMARK VINA RESULT:      -6.3      0.522      1.570
REMARK  Name = 
REMARK  6 active torsions:
REMARK  status: ('A' for Active; 'I' for Inactive)
REMARK    1  A    between atoms: C_2  and  O_3
REMARK    2  A    between atoms: C_2  and  C_4
REMARK    3  A    between atoms: C_4  and  C_5
REMARK    4  A    between atoms: C_5  and  C_6
REMARK    5  A    between atoms: N_8  and  C_9
REMARK    6  A    between atoms: C_9  and  C_10
REMARK                            x       y       z     vdW  Elec       q    Type
REMARK                         _______ _______ _______ _____ _____    ______ ____
ROOT
ATOM      1  C   UNL     1       5.864   5.048  18.342  0.00  0.00    +0.000 C 
ATOM      2  O   UNL     1       6.155   4.885  19.527  0.00  0.00    +0.000 OA
ATOM      3  N   UNL     1       4.709   5.646  17.918  0.00  0.00    +0.000 N 
ATOM      4  H   UNL     1       4.467   5.636  16.937  0.00  0.00    +0.000 HD
ENDROOT
BRANCH   1   5
ATOM      5  C   UNL     1       6.766   4.550  17.235  0.00  0.00    +0.000 C 
BRANCH   5   6
ATOM      6  C   UNL     1       5.945   4.096  16.033  0.00  0.00    +0.000 C 
BRANCH   6   8
ATOM      7  O   UNL     1       6.397   3.813  13.684  0.00  0.00    +0.000 OA
ATOM      8  C   UNL     1       6.645   4.397  14.729  0.00  0.00    +0.000 C 
BRANCH   8   9
ATOM      9  O   UNL     1       7.580   5.368  14.807  0.00  0.00    +0.000 OA
ATOM     10  H   UNL     1       8.188   5.284  15.583  0.00  0.00    +0.000 HD
ENDBRANCH   8   9
ENDBRANCH   6   8
ENDBRANCH   5   6
ENDBRANCH   1   5
BRANCH   3  11
ATOM     11  C   UNL     1       3.685   6.072  18.851  0.00  0.00    +0.000 C 
BRANCH  11  12
ATOM     12  C   UNL     1       2.685   4.977  19.118  0.00  0.00    +0.000 A 
ATOM     13  C   UNL     1       2.111   4.815  20.389  0.00  0.00    +0.000 A 
ATOM     14  C   UNL     1       1.169   3.810  20.621  0.00  0.00    +0.000 A 
ATOM     15  C   UNL     1       0.782   2.963  19.589  0.00  0.00    +0.000 A 
ATOM     16  C   UNL     1       1.335   3.119  18.317  0.00  0.00    +0.000 A 
ATOM     17  C   UNL     1       2.282   4.119  18.083  0.00  0.00    +0.000 A 
ENDBRANCH  11  12
ENDBRANCH   3  11
TORSDOF 6
ENDMDL
MODEL 4
REMARK VINA RESULT:      -6.3      1.619      1.783
REMARK  Name = 
REMARK  6 active torsions:
REMARK  status: ('A' for Active; 'I' for Inactive)
REMARK    1  A    between atoms: C_2  and  O_3
REMARK    2  A    between atoms: C_2  and  C_4
REMARK    3  A    between atoms: C_4  and  C_5
REMARK    4  A    between atoms: C_5  and  C_6
REMARK    5  A    between atoms: N_8  and  C_9
REMARK    6  A    between atoms: C_9  and  C_10
REMARK                            x       y       z     vdW  Elec       q    Type
REMARK                         _______ _______ _______ _____ _____    ______ ____
ROOT
ATOM      1  C   UNL     1       4.562   6.340  17.154  0.00  0.00    +0.000 C 
ATOM      2  O   UNL     1       3.847   7.237  17.600  0.00  0.00    +0.000 OA
ATOM      3  N   UNL     1       4.938   5.239  17.875  0.00  0.00    +0.000 N 
ATOM      4  H   UNL     1       5.628   4.602  17.500  0.00  0.00    +0.000 HD
ENDROOT
BRANCH   1   5
ATOM      5  C   UNL     1       5.127   6.406  15.753  0.00  0.00    +0.000 C 
BRANCH   5   6
ATOM      6  C   UNL     1       5.636   5.038  15.310  0.00  0.00    +0.000 C 
BRANCH   6   8
ATOM      7  O   UNL     1       7.806   5.389  14.327  0.00  0.00    +0.000 OA
ATOM      8  C   UNL     1       7.144   4.985  15.272  0.00  0.00    +0.000 C 
BRANCH   8   9
ATOM      9  O   UNL     1       7.714   4.446  16.371  0.00  0.00    +0.000 OA
ATOM     10  H   UNL     1       7.337   4.775  17.225  0.00  0.00    +0.000 HD
ENDBRANCH   8   9
ENDBRANCH   6   8
ENDBRANCH   5   6
ENDBRANCH   1   5
BRANCH   3  11
ATOM     11  C   UNL     1       4.578   5.084  19.270  0.00  0.00    +0.000 C 
BRANCH  11  12
ATOM     12  C   UNL     1       3.269   4.354  19.430  0.00  0.00    +0.000 A 
ATOM     13  C   UNL     1       2.993   3.192  18.692  0.00  0.00    +0.000 A 
ATOM     14  C   UNL     1       1.785   2.512  18.862  0.00  0.00    +0.000 A 
ATOM     15  C   UNL     1       0.845   2.975  19.776  0.00  0.00    +0.000 A 
ATOM     16  C   UNL     1       1.110   4.122  20.526  0.00  0.00    +0.000 A 
ATOM     17  C   UNL     1       2.314   4.808  20.353  0.00  0.00    +0.000 A 
ENDBRANCH  11  12
ENDBRANCH   3  11
TORSDOF 6
ENDMDL
MODEL 5
REMARK VINA RESULT:      -6.3      1.273      3.232
REMARK  Name = 
REMARK  6 active torsions:
REMARK  status: ('A' for Active; 'I' for Inactive)
REMARK    1  A    between atoms: C_2  and  O_3
REMARK    2  A    between atoms: C_2  and  C_4
REMARK    3  A    between atoms: C_4  and  C_5
REMARK    4  A    between atoms: C_5  and  C_6
REMARK    5  A    between atoms: N_8  and  C_9
REMARK    6  A    between atoms: C_9  and  C_10
REMARK                            x       y       z     vdW  Elec       q    Type
REMARK                         _______ _______ _______ _____ _____    ______ ____
ROOT
ATOM      1  C   UNL     1       5.737   4.515  16.340  0.00  0.00    +0.000 C 
ATOM      2  O   UNL     1       5.272   4.712  15.217  0.00  0.00    +0.000 OA
ATOM      3  N   UNL     1       5.075   3.840  17.329  0.00  0.00    +0.000 N 
ATOM      4  H   UNL     1       5.452   3.822  18.267  0.00  0.00    +0.000 HD
ENDROOT
BRANCH   1   5
ATOM      5  C   UNL     1       7.095   5.051  16.735  0.00  0.00    +0.000 C 
BRANCH   5   6
ATOM      6  C   UNL     1       7.451   4.627  18.156  0.00  0.00    +0.000 C 
BRANCH   6   8
ATOM      7  O   UNL     1       8.032   6.928  18.568  0.00  0.00    +0.000 OA
ATOM      8  C   UNL     1       7.827   5.809  19.017  0.00  0.00    +0.000 C 
BRANCH   8   9
ATOM      9  O   UNL     1       7.927   5.533  20.335  0.00  0.00    +0.000 OA
ATOM     10  H   UNL     1       7.082   5.646  20.837  0.00  0.00    +0.000 HD
ENDBRANCH   8   9
ENDBRANCH   6   8
ENDBRANCH   5   6
ENDBRANCH   1   5
BRANCH   3  11
ATOM     11  C   UNL     1       3.717   3.367  17.150  0.00  0.00    +0.000 C 
BRANCH  11  12
ATOM     12  C   UNL     1       2.862   3.659  18.356  0.00  0.00    +0.000 A 
ATOM     13  C   UNL     1       3.153   4.738  19.206  0.00  0.00    +0.000 A 
ATOM     14  C   UNL     1       2.342   5.013  20.309  0.00  0.00    +0.000 A 
ATOM     15  C   UNL     1       1.228   4.224  20.572  0.00  0.00    +0.000 A 
ATOM     16  C   UNL     1       0.918   3.156  19.729  0.00  0.00    +0.000 A 
ATOM     17  C   UNL     1       1.731   2.874  18.628  0.00  0.00    +0.000 A 
ENDBRANCH  11  12
ENDBRANCH   3  11
TORSDOF 6
ENDMDL
MODEL 6
REMARK VINA RESULT:      -6.2      3.056      6.223
REMARK  Name = 
REMARK  6 active torsions:
REMARK  status: ('A' for Active; 'I' for Inactive)
REMARK    1  A    between atoms: C_2  and  O_3
REMARK    2  A    between atoms: C_2  and  C_4
REMARK    3  A    between atoms: C_4  and  C_5
REMARK    4  A    between atoms: C_5  and  C_6
REMARK    5  A    between atoms: N_8  and  C_9
REMARK    6  A    between atoms: C_9  and  C_10
REMARK                            x       y       z     vdW  Elec       q    Type
REMARK                         _______ _______ _______ _____ _____    ______ ____
ROOT
ATOM      1  C   UNL     1       1.742   3.918  18.215  0.00  0.00    +0.000 C 
ATOM      2  O   UNL     1       1.031   4.145  17.236  0.00  0.00    +0.000 OA
ATOM      3  N   UNL     1       2.861   4.642  18.525  0.00  0.00    +0.000 N 
ATOM      4  H   UNL     1       3.474   4.329  19.267  0.00  0.00    +0.000 HD
ENDROOT
BRANCH   1   5
ATOM      5  C   UNL     1       1.447   2.769  19.154  0.00  0.00    +0.000 C 
BRANCH   5   6
ATOM      6  C   UNL     1       0.929   3.285  20.492  0.00  0.00    +0.000 C 
BRANCH   6   8
ATOM      7  O   UNL     1       2.548   2.695  22.174  0.00  0.00    +0.000 OA
ATOM      8  C   UNL     1       2.053   3.557  21.462  0.00  0.00    +0.000 C 
BRANCH   8   9
ATOM      9  O   UNL     1       2.472   4.840  21.489  0.00  0.00    +0.000 OA
ATOM     10  H   UNL     1       1.930   5.454  20.932  0.00  0.00    +0.000 HD
ENDBRANCH   8   9
ENDBRANCH   6   8
ENDBRANCH   5   6
ENDBRANCH   1   5
BRANCH   3  11
ATOM     11  C   UNL     1       3.347   5.700  17.663  0.00  0.00    +0.000 C 
BRANCH  11  12
ATOM     12  C   UNL     1       4.670   5.343  17.035  0.00  0.00    +0.000 A 
ATOM     13  C   UNL     1       4.806   4.198  16.235  0.00  0.00    +0.000 A 
ATOM     14  C   UNL     1       6.031   3.887  15.640  0.00  0.00    +0.000 A 
ATOM     15  C   UNL     1       7.130   4.718  15.828  0.00  0.00    +0.000 A 
ATOM     16  C   UNL     1       7.007   5.867  16.611  0.00  0.00    +0.000 A 
ATOM     17  C   UNL     1       5.785   6.177  17.212  0.00  0.00    +0.000 A 
ENDBRANCH  11  12
ENDBRANCH   3  11
TORSDOF 6
ENDMDL
MODEL 7
REMARK VINA RESULT:      -6.2      1.779      2.974
REMARK  Name = 
REMARK  6 active torsions:
REMARK  status: ('A' for Active; 'I' for Inactive)
REMARK    1  A    between atoms: C_2  and  O_3
REMARK    2  A    between atoms: C_2  and  C_4
REMARK    3  A    between atoms: C_4  and  C_5
REMARK    4  A    between atoms: C_5  and  C_6
REMARK    5  A    between atoms: N_8  and  C_9
REMARK    6  A    between atoms: C_9  and  C_10
REMARK                            x       y       z     vdW  Elec       q    Type
REMARK                         _______ _______ _______ _____ _____    ______ ____
ROOT
ATOM      1  C   UNL     1       5.223   5.905  16.813  0.00  0.00    +0.000 C 
ATOM      2  O   UNL     1       4.832   6.853  16.132  0.00  0.00    +0.000 OA
ATOM      3  N   UNL     1       4.404   5.151  17.608  0.00  0.00    +0.000 N 
ATOM      4  H   UNL     1       4.803   4.470  18.240  0.00  0.00    +0.000 HD
ENDROOT
BRANCH   1   5
ATOM      5  C   UNL     1       6.685   5.517  16.854  0.00  0.00    +0.000 C 
BRANCH   5   6
ATOM      6  C   UNL     1       7.042   4.902  18.203  0.00  0.00    +0.000 C 
BRANCH   6   8
ATOM      7  O   UNL     1       8.219   6.945  18.691  0.00  0.00    +0.000 OA
ATOM      8  C   UNL     1       7.769   5.881  19.092  0.00  0.00    +0.000 C 
BRANCH   8   9
ATOM      9  O   UNL     1       7.893   5.487  20.378  0.00  0.00    +0.000 OA
ATOM     10  H   UNL     1       8.794   5.631  20.760  0.00  0.00    +0.000 HD
ENDBRANCH   8   9
ENDBRANCH   6   8
ENDBRANCH   5   6
ENDBRANCH   1   5
BRANCH   3  11
ATOM     11  C   UNL     1       3.000   5.468  17.771  0.00  0.00    +0.000 C 
BRANCH  11  12
ATOM     12  C   UNL     1       2.372   4.659  18.878  0.00  0.00    +0.000 A 
ATOM     13  C   UNL     1       1.424   3.662  18.597  0.00  0.00    +0.000 A 
ATOM     14  C   UNL     1       0.864   2.904  19.628  0.00  0.00    +0.000 A 
ATOM     15  C   UNL     1       1.248   3.123  20.946  0.00  0.00    +0.000 A 
ATOM     16  C   UNL     1       2.199   4.102  21.239  0.00  0.00    +0.000 A 
ATOM     17  C   UNL     1       2.757   4.866  20.211  0.00  0.00    +0.000 A 
ENDBRANCH  11  12
ENDBRANCH   3  11
TORSDOF 6
ENDMDL
MODEL 8
REMARK VINA RESULT:      -6.2      2.040      3.018
REMARK  Name = 
REMARK  6 active torsions:
REMARK  status: ('A' for Active; 'I' for Inactive)
REMARK    1  A    between atoms: C_2  and  O_3
REMARK    2  A    between atoms: C_2  and  C_4
REMARK    3  A    between atoms: C_4  and  C_5
REMARK    4  A    between atoms: C_5  and  C_6
REMARK    5  A    between atoms: N_8  and  C_9
REMARK    6  A    between atoms: C_9  and  C_10
REMARK                            x       y       z     vdW  Elec       q    Type
REMARK                         _______ _______ _______ _____ _____    ______ ____
ROOT
ATOM      1  C   UNL     1       5.291   4.553  17.153  0.00  0.00    +0.000 C 
ATOM      2  O   UNL     1       4.634   5.525  16.779  0.00  0.00    +0.000 OA
ATOM      3  N   UNL     1       4.746   3.330  17.434  0.00  0.00    +0.000 N 
ATOM      4  H   UNL     1       5.315   2.610  17.859  0.00  0.00    +0.000 HD
ENDROOT
BRANCH   1   5
ATOM      5  C   UNL     1       6.784   4.650  17.374  0.00  0.00    +0.000 C 
BRANCH   5   6
ATOM      6  C   UNL     1       7.099   5.594  18.530  0.00  0.00    +0.000 C 
BRANCH   6   8
ATOM      7  O   UNL     1       7.559   7.344  16.940  0.00  0.00    +0.000 OA
ATOM      8  C   UNL     1       7.749   6.870  18.051  0.00  0.00    +0.000 C 
BRANCH   8   9
ATOM      9  O   UNL     1       8.569   7.453  18.952  0.00  0.00    +0.000 OA
ATOM     10  H   UNL     1       8.751   6.899  19.752  0.00  0.00    +0.000 HD
ENDBRANCH   8   9
ENDBRANCH   6   8
ENDBRANCH   5   6
ENDBRANCH   1   5
BRANCH   3  11
ATOM     11  C   UNL     1       3.315   3.105  17.387  0.00  0.00    +0.000 C 
BRANCH  11  12
ATOM     12  C   UNL     1       2.697   3.161  18.761  0.00  0.00    +0.000 A 
ATOM     13  C   UNL     1       3.355   2.611  19.873  0.00  0.00    +0.000 A 
ATOM     14  C   UNL     1       2.783   2.686  21.145  0.00  0.00    +0.000 A 
ATOM     15  C   UNL     1       1.558   3.318  21.325  0.00  0.00    +0.000 A 
ATOM     16  C   UNL     1       0.899   3.881  20.231  0.00  0.00    +0.000 A 
ATOM     17  C   UNL     1       1.464   3.801  18.957  0.00  0.00    +0.000 A 
ENDBRANCH  11  12
ENDBRANCH   3  11
TORSDOF 6
ENDMDL
MODEL 9
REMARK VINA RESULT:      -6.2      2.922      6.211
REMARK  Name = 
REMARK  6 active torsions:
REMARK  status: ('A' for Active; 'I' for Inactive)
REMARK    1  A    between atoms: C_2  and  O_3
REMARK    2  A    between atoms: C_2  and  C_4
REMARK    3  A    between atoms: C_4  and  C_5
REMARK    4  A    between atoms: C_5  and  C_6
REMARK    5  A    between atoms: N_8  and  C_9
REMARK    6  A    between atoms: C_9  and  C_10
REMARK                            x       y       z     vdW  Elec       q    Type
REMARK                         _______ _______ _______ _____ _____    ______ ____
ROOT
ATOM      1  C   UNL     1       2.578   3.354  18.028  0.00  0.00    +0.000 C 
ATOM      2  O   UNL     1       2.328   3.154  16.839  0.00  0.00    +0.000 OA
ATOM      3  N   UNL     1       3.223   4.468  18.492  0.00  0.00    +0.000 N 
ATOM      4  H   UNL     1       3.514   4.516  19.459  0.00  0.00    +0.000 HD
ENDROOT
BRANCH   1   5
ATOM      5  C   UNL     1       2.217   2.339  19.090  0.00  0.00    +0.000 C 
BRANCH   5   6
ATOM      6  C   UNL     1       1.127   2.883  20.008  0.00  0.00    +0.000 C 
BRANCH   6   8
ATOM      7  O   UNL     1       2.286   4.400  21.477  0.00  0.00    +0.000 OA
ATOM      8  C   UNL     1       1.687   3.344  21.332  0.00  0.00    +0.000 C 
BRANCH   8   9
ATOM      9  O   UNL     1       1.479   2.488  22.356  0.00  0.00    +0.000 OA
ATOM     10  H   UNL     1       2.283   1.980  22.628  0.00  0.00    +0.000 HD
ENDBRANCH   8   9
ENDBRANCH   6   8
ENDBRANCH   5   6
ENDBRANCH   1   5
BRANCH   3  11
ATOM     11  C   UNL     1       3.740   5.478  17.591  0.00  0.00    +0.000 C 
BRANCH  11  12
ATOM     12  C   UNL     1       5.174   5.822  17.904  0.00  0.00    +0.000 A 
ATOM     13  C   UNL     1       5.885   6.744  17.119  0.00  0.00    +0.000 A 
ATOM     14  C   UNL     1       7.207   7.071  17.430  0.00  0.00    +0.000 A 
ATOM     15  C   UNL     1       7.831   6.492  18.529  0.00  0.00    +0.000 A 
ATOM     16  C   UNL     1       7.133   5.584  19.326  0.00  0.00    +0.000 A 
ATOM     17  C   UNL     1       5.813   5.249  19.014  0.00  0.00    +0.000 A 
ENDBRANCH  11  12
ENDBRANCH   3  11
TORSDOF 6
ENDMDL
