MODEL 1
REMARK VINA RESULT:      -7.1      0.000      0.000
REMARK  Name = 
REMARK  4 active torsions:
REMARK  status: ('A' for Active; 'I' for Inactive)
REMARK    1  A    between atoms: C_1  and  C_2
REMARK    2  A    between atoms: C_2  and  C_15
REMARK    3  A    between atoms: C_3  and  C_4
REMARK    4  A    between atoms: C_6  and  C_7
REMARK                            x       y       z     vdW  Elec       q    Type
REMARK                         _______ _______ _______ _____ _____    ______ ____
ROOT
ATOM      1  C   UNL     1       4.282   3.731  17.405  0.00  0.00    +0.000 A 
ATOM      2  N   UNL     1       4.506   3.834  16.111  0.00  0.00    +0.000 NA
ATOM      3  C   UNL     1       5.783   4.295  15.857  0.00  0.00    +0.000 A 
ATOM      4  C   UNL     1       6.492   4.664  16.980  0.00  0.00    +0.000 A 
ATOM      5  S   UNL     1       5.550   4.384  18.386  0.00  0.00    +0.000 S 
ENDROOT
BRANCH   3   6
ATOM      6  C   UNL     1       6.291   4.342  14.493  0.00  0.00    +0.000 A 
ATOM      7  C   UNL     1       5.736   3.502  13.516  0.00  0.00    +0.000 A 
ATOM      8  C   UNL     1       6.231   3.503  12.211  0.00  0.00    +0.000 A 
ATOM      9  C   UNL     1       7.295   4.335  11.871  0.00  0.00    +0.000 A 
ATOM     10  C   UNL     1       7.865   5.165  12.835  0.00  0.00    +0.000 A 
ATOM     11  C   UNL     1       7.367   5.169  14.140  0.00  0.00    +0.000 A 
ENDBRANCH   3   6
BRANCH   1  14
ATOM     12  C   UNL     1       1.833   5.321  18.116  0.00  0.00    +0.000 C 
ATOM     13  C   UNL     1       2.053   3.857  18.368  0.00  0.00    +0.000 C 
ATOM     14  C   UNL     1       3.144   3.140  18.017  0.00  0.00    +0.000 C 
BRANCH  13  15
ATOM     15  C   UNL     1       0.965   3.076  19.035  0.00  0.00    +0.000 C 
ATOM     16  N   UNL     1       0.654   3.434  20.309  0.00  0.00    +0.000 N 
ATOM     17  O   UNL     1       0.367   2.154  18.492  0.00  0.00    +0.000 OA
ATOM     18  H   UNL     1       1.121   4.154  20.837  0.00  0.00    +0.000 HD
ATOM     19  H   UNL     1      -0.067   2.899  20.774  0.00  0.00    +0.000 HD
ENDBRANCH  13  15
ENDBRANCH   1  14
TORSDOF 3
ENDMDL
MODEL 2
REMARK VINA RESULT:      -7.0      3.500      7.174
REMARK  Name = 
REMARK  4 active torsions:
REMARK  status: ('A' for Active; 'I' for Inactive)
REMARK    1  A    between atoms: C_1  and  C_2
REMARK    2  A    between atoms: C_2  and  C_15
REMARK    3  A    between atoms: C_3  and  C_4
REMARK    4  A    between atoms: C_6  and  C_7
REMARK                            x       y       z     vdW  Elec       q    Type
REMARK                         _______ _______ _______ _____ _____    ______ ____
ROOT
ATOM      1  C   UNL     1       4.323   5.141  17.428  0.00  0.00    +0.000 A 
ATOM      2  N   UNL     1       3.484   6.152  17.523  0.00  0.00    +0.000 NA
ATOM      3  C   UNL     1       3.072   6.342  18.827  0.00  0.00    +0.000 A 
ATOM      4  C   UNL     1       3.511   5.380  19.712  0.00  0.00    +0.000 A 
ATOM      5  S   UNL     1       4.499   4.240  18.894  0.00  0.00    +0.000 S 
ENDROOT
BRANCH   3   6
ATOM      6  C   UNL     1       2.259   7.497  19.183  0.00  0.00    +0.000 A 
ATOM      7  C   UNL     1       2.018   8.496  18.228  0.00  0.00    +0.000 A 
ATOM      8  C   UNL     1       1.272   9.630  18.557  0.00  0.00    +0.000 A 
ATOM      9  C   UNL     1       0.769   9.782  19.847  0.00  0.00    +0.000 A 
ATOM     10  C   UNL     1       1.012   8.803  20.808  0.00  0.00    +0.000 A 
ATOM     11  C   UNL     1       1.754   7.665  20.480  0.00  0.00    +0.000 A 
ENDBRANCH   3   6
BRANCH   1  14
ATOM     12  C   UNL     1       7.086   6.194  16.887  0.00  0.00    +0.000 C 
ATOM     13  C   UNL     1       6.295   5.267  16.010  0.00  0.00    +0.000 C 
ATOM     14  C   UNL     1       5.065   4.771  16.273  0.00  0.00    +0.000 C 
BRANCH  13  15
ATOM     15  C   UNL     1       6.911   4.794  14.731  0.00  0.00    +0.000 C 
ATOM     16  N   UNL     1       6.399   3.654  14.196  0.00  0.00    +0.000 N 
ATOM     17  O   UNL     1       7.830   5.378  14.170  0.00  0.00    +0.000 OA
ATOM     18  H   UNL     1       5.669   3.098  14.611  0.00  0.00    +0.000 HD
ATOM     19  H   UNL     1       6.822   3.318  13.341  0.00  0.00    +0.000 HD
ENDBRANCH  13  15
ENDBRANCH   1  14
TORSDOF 3
ENDMDL
MODEL 3
REMARK VINA RESULT:      -7.0      0.137      1.178
REMARK  Name = 
REMARK  4 active torsions:
REMARK  status: ('A' for Active; 'I' for Inactive)
REMARK    1  A    between atoms: C_1  and  C_2
REMARK    2  A    between atoms: C_2  and  C_15
REMARK    3  A    between atoms: C_3  and  C_4
REMARK    4  A    between atoms: C_6  and  C_7
REMARK                            x       y       z     vdW  Elec       q    Type
REMARK                         _______ _______ _______ _____ _____    ______ ____
ROOT
ATOM      1  C   UNL     1       4.299   3.808  17.526  0.00  0.00    +0.000 A 
ATOM      2  N   UNL     1       4.519   3.833  16.227  0.00  0.00    +0.000 NA
ATOM      3  C   UNL     1       5.769   4.344  15.939  0.00  0.00    +0.000 A 
ATOM      4  C   UNL     1       6.456   4.827  17.032  0.00  0.00    +0.000 A 
ATOM      5  S   UNL     1       5.528   4.594  18.456  0.00  0.00    +0.000 S 
ENDROOT
BRANCH   3   6
ATOM      6  C   UNL     1       6.276   4.324  14.574  0.00  0.00    +0.000 A 
ATOM      7  C   UNL     1       7.356   5.147  14.223  0.00  0.00    +0.000 A 
ATOM      8  C   UNL     1       7.837   5.172  12.912  0.00  0.00    +0.000 A 
ATOM      9  C   UNL     1       7.234   4.383  11.936  0.00  0.00    +0.000 A 
ATOM     10  C   UNL     1       6.152   3.571  12.267  0.00  0.00    +0.000 A 
ATOM     11  C   UNL     1       5.673   3.540  13.580  0.00  0.00    +0.000 A 
ENDBRANCH   3   6
BRANCH   1  14
ATOM     12  C   UNL     1       1.722   5.272  18.023  0.00  0.00    +0.000 C 
ATOM     13  C   UNL     1       2.045   3.864  18.434  0.00  0.00    +0.000 C 
ATOM     14  C   UNL     1       3.194   3.200  18.180  0.00  0.00    +0.000 C 
BRANCH  13  15
ATOM     15  C   UNL     1       1.002   3.077  19.164  0.00  0.00    +0.000 C 
ATOM     16  N   UNL     1       0.767   3.432  20.455  0.00  0.00    +0.000 N 
ATOM     17  O   UNL     1       0.377   2.153  18.657  0.00  0.00    +0.000 OA
ATOM     18  H   UNL     1       1.260   4.155  20.955  0.00  0.00    +0.000 HD
ATOM     19  H   UNL     1       0.077   2.893  20.962  0.00  0.00    +0.000 HD
ENDBRANCH  13  15
ENDBRANCH   1  14
TORSDOF 3
ENDMDL
MODEL 4
REMARK VINA RESULT:      -6.9      0.577      1.574
REMARK  Name = 
REMARK  4 active torsions:
REMARK  status: ('A' for Active; 'I' for Inactive)
REMARK    1  A    between atoms: C_1  and  C_2
REMARK    2  A    between atoms: C_2  and  C_15
REMARK    3  A    between atoms: C_3  and  C_4
REMARK    4  A    between atoms: C_6  and  C_7
REMARK                            x       y       z     vdW  Elec       q    Type
REMARK                         _______ _______ _______ _____ _____    ______ ____
ROOT
ATOM      1  C   UNL     1       4.250   4.442  17.492  0.00  0.00    +0.000 A 
ATOM      2  N   UNL     1       4.471   4.468  16.194  0.00  0.00    +0.000 NA
ATOM      3  C   UNL     1       5.824   4.501  15.916  0.00  0.00    +0.000 A 
ATOM      4  C   UNL     1       6.634   4.626  17.024  0.00  0.00    +0.000 A 
ATOM      5  S   UNL     1       5.676   4.659  18.448  0.00  0.00    +0.000 S 
ENDROOT
BRANCH   3   6
ATOM      6  C   UNL     1       6.297   4.383  14.543  0.00  0.00    +0.000 A 
ATOM      7  C   UNL     1       7.375   5.169  14.112  0.00  0.00    +0.000 A 
ATOM      8  C   UNL     1       7.823   5.100  12.791  0.00  0.00    +0.000 A 
ATOM      9  C   UNL     1       7.189   4.253  11.885  0.00  0.00    +0.000 A 
ATOM     10  C   UNL     1       6.109   3.477  12.297  0.00  0.00    +0.000 A 
ATOM     11  C   UNL     1       5.662   3.541  13.620  0.00  0.00    +0.000 A 
ENDBRANCH   3   6
BRANCH   1  14
ATOM     12  C   UNL     1       3.245   1.712  18.244  0.00  0.00    +0.000 C 
ATOM     13  C   UNL     1       2.523   3.015  18.437  0.00  0.00    +0.000 C 
ATOM     14  C   UNL     1       2.994   4.243  18.127  0.00  0.00    +0.000 C 
BRANCH  13  15
ATOM     15  C   UNL     1       1.166   2.993  19.068  0.00  0.00    +0.000 C 
ATOM     16  N   UNL     1       0.943   3.896  20.059  0.00  0.00    +0.000 N 
ATOM     17  O   UNL     1       0.281   2.214  18.734  0.00  0.00    +0.000 OA
ATOM     18  H   UNL     1       1.627   4.545  20.414  0.00  0.00    +0.000 HD
ATOM     19  H   UNL     1       0.035   3.876  20.503  0.00  0.00    +0.000 HD
ENDBRANCH  13  15
ENDBRANCH   1  14
TORSDOF 3
ENDMDL
MODEL 5
REMARK VINA RESULT:      -6.9      3.061      7.083
REMARK  Name = 
REMARK  4 active torsions:
REMARK  status: ('A' for Active; 'I' for Inactive)
REMARK    1  A    between atoms: C_1  and  C_2
REMARK    2  A    between atoms: C_2  and  C_15
REMARK    3  A    between atoms: C_3  and  C_4
REMARK    4  A    between atoms: C_6  and  C_7
REMARK                            x       y       z     vdW  Elec       q    Type
REMARK                         _______ _______ _______ _____ _____    ______ ____
ROOT
ATOM      1  C   UNL     1       4.559   5.553  16.729  0.00  0.00    +0.000 A 
ATOM      2  N   UNL     1       4.086   4.629  17.540  0.00  0.00    +0.000 NA
ATOM      3  C   UNL     1       3.312   5.186  18.539  0.00  0.00    +0.000 A 
ATOM      4  C   UNL     1       3.302   6.564  18.554  0.00  0.00    +0.000 A 
ATOM      5  S   UNL     1       4.250   7.171  17.258  0.00  0.00    +0.000 S 
ENDROOT
BRANCH   3   6
ATOM      6  C   UNL     1       2.569   4.334  19.457  0.00  0.00    +0.000 A 
ATOM      7  C   UNL     1       1.502   3.560  18.977  0.00  0.00    +0.000 A 
ATOM      8  C   UNL     1       0.753   2.764  19.845  0.00  0.00    +0.000 A 
ATOM      9  C   UNL     1       1.055   2.741  21.204  0.00  0.00    +0.000 A 
ATOM     10  C   UNL     1       2.104   3.515  21.696  0.00  0.00    +0.000 A 
ATOM     11  C   UNL     1       2.858   4.309  20.828  0.00  0.00    +0.000 A 
ENDBRANCH   3   6
BRANCH   1  14
ATOM     12  C   UNL     1       7.408   4.598  16.653  0.00  0.00    +0.000 C 
ATOM     13  C   UNL     1       6.543   4.927  15.470  0.00  0.00    +0.000 C 
ATOM     14  C   UNL     1       5.252   5.326  15.509  0.00  0.00    +0.000 C 
BRANCH  13  15
ATOM     15  C   UNL     1       7.121   4.774  14.098  0.00  0.00    +0.000 C 
ATOM     16  N   UNL     1       6.625   3.760  13.341  0.00  0.00    +0.000 N 
ATOM     17  O   UNL     1       7.998   5.503  13.651  0.00  0.00    +0.000 OA
ATOM     18  H   UNL     1       5.930   3.097  13.646  0.00  0.00    +0.000 HD
ATOM     19  H   UNL     1       7.023   3.638  12.419  0.00  0.00    +0.000 HD
ENDBRANCH  13  15
ENDBRANCH   1  14
TORSDOF 3
ENDMDL
MODEL 6
REMARK VINA RESULT:      -6.9      0.684      1.173
REMARK  Name = 
REMARK  4 active torsions:
REMARK  status: ('A' for Active; 'I' for Inactive)
REMARK    1  A    between atoms: C_1  and  C_2
REMARK    2  A    between atoms: C_2  and  C_15
REMARK    3  A    between atoms: C_3  and  C_4
REMARK    4  A    between atoms: C_6  and  C_7
REMARK                            x       y       z     vdW  Elec       q    Type
REMARK                         _______ _______ _______ _____ _____    ______ ____
ROOT
ATOM      1  C   UNL     1       4.255   4.261  17.655  0.00  0.00    +0.000 A 
ATOM      2  N   UNL     1       4.437   4.322  16.352  0.00  0.00    +0.000 NA
ATOM      3  C   UNL     1       5.774   4.472  16.037  0.00  0.00    +0.000 A 
ATOM      4  C   UNL     1       6.601   4.652  17.126  0.00  0.00    +0.000 A 
ATOM      5  S   UNL     1       5.684   4.586  18.575  0.00  0.00    +0.000 S 
ENDROOT
BRANCH   3   6
ATOM      6  C   UNL     1       6.216   4.413  14.651  0.00  0.00    +0.000 A 
ATOM      7  C   UNL     1       5.557   3.565  13.748  0.00  0.00    +0.000 A 
ATOM      8  C   UNL     1       5.986   3.464  12.424  0.00  0.00    +0.000 A 
ATOM      9  C   UNL     1       7.086   4.200  11.991  0.00  0.00    +0.000 A 
ATOM     10  C   UNL     1       7.758   5.036  12.880  0.00  0.00    +0.000 A 
ATOM     11  C   UNL     1       7.327   5.142  14.205  0.00  0.00    +0.000 A 
ENDBRANCH   3   6
BRANCH   1  14
ATOM     12  C   UNL     1       3.530   1.452  18.440  0.00  0.00    +0.000 C 
ATOM     13  C   UNL     1       2.694   2.682  18.646  0.00  0.00    +0.000 C 
ATOM     14  C   UNL     1       3.039   3.948  18.320  0.00  0.00    +0.000 C 
BRANCH  13  15
ATOM     15  C   UNL     1       1.360   2.537  19.309  0.00  0.00    +0.000 C 
ATOM     16  N   UNL     1       1.327   2.730  20.654  0.00  0.00    +0.000 N 
ATOM     17  O   UNL     1       0.333   2.257  18.702  0.00  0.00    +0.000 OA
ATOM     18  H   UNL     1       2.130   2.928  21.229  0.00  0.00    +0.000 HD
ATOM     19  H   UNL     1       0.433   2.615  21.112  0.00  0.00    +0.000 HD
ENDBRANCH  13  15
ENDBRANCH   1  14
TORSDOF 3
ENDMDL
MODEL 7
REMARK VINA RESULT:      -6.8      3.071      7.169
REMARK  Name = 
REMARK  4 active torsions:
REMARK  status: ('A' for Active; 'I' for Inactive)
REMARK    1  A    between atoms: C_1  and  C_2
REMARK    2  A    between atoms: C_2  and  C_15
REMARK    3  A    between atoms: C_3  and  C_4
REMARK    4  A    between atoms: C_6  and  C_7
REMARK                            x       y       z     vdW  Elec       q    Type
REMARK                         _______ _______ _______ _____ _____    ______ ____
ROOT
ATOM      1  C   UNL     1       4.534   5.550  16.807  0.00  0.00    +0.000 A 
ATOM      2  N   UNL     1       4.047   4.638  17.624  0.00  0.00    +0.000 NA
ATOM      3  C   UNL     1       3.261   5.210  18.604  0.00  0.00    +0.000 A 
ATOM      4  C   UNL     1       3.254   6.589  18.601  0.00  0.00    +0.000 A 
ATOM      5  S   UNL     1       4.221   7.175  17.310  0.00  0.00    +0.000 S 
ENDROOT
BRANCH   3   6
ATOM      6  C   UNL     1       2.504   4.372  19.524  0.00  0.00    +0.000 A 
ATOM      7  C   UNL     1       3.040   4.064  20.783  0.00  0.00    +0.000 A 
ATOM      8  C   UNL     1       2.350   3.234  21.668  0.00  0.00    +0.000 A 
ATOM      9  C   UNL     1       1.120   2.693  21.298  0.00  0.00    +0.000 A 
ATOM     10  C   UNL     1       0.583   2.980  20.045  0.00  0.00    +0.000 A 
ATOM     11  C   UNL     1       1.270   3.815  19.161  0.00  0.00    +0.000 A 
ENDBRANCH   3   6
BRANCH   1  14
ATOM     12  C   UNL     1       7.413   4.688  16.782  0.00  0.00    +0.000 C 
ATOM     13  C   UNL     1       6.547   4.948  15.583  0.00  0.00    +0.000 C 
ATOM     14  C   UNL     1       5.243   5.304  15.600  0.00  0.00    +0.000 C 
BRANCH  13  15
ATOM     15  C   UNL     1       7.139   4.767  14.221  0.00  0.00    +0.000 C 
ATOM     16  N   UNL     1       6.617   3.769  13.460  0.00  0.00    +0.000 N 
ATOM     17  O   UNL     1       8.049   5.462  13.784  0.00  0.00    +0.000 OA
ATOM     18  H   UNL     1       5.894   3.133  13.757  0.00  0.00    +0.000 HD
ATOM     19  H   UNL     1       7.024   3.628  12.545  0.00  0.00    +0.000 HD
ENDBRANCH  13  15
ENDBRANCH   1  14
TORSDOF 3
ENDMDL
MODEL 8
REMARK VINA RESULT:      -6.8      3.365      7.167
REMARK  Name = 
REMARK  4 active torsions:
REMARK  status: ('A' for Active; 'I' for Inactive)
REMARK    1  A    between atoms: C_1  and  C_2
REMARK    2  A    between atoms: C_2  and  C_15
REMARK    3  A    between atoms: C_3  and  C_4
REMARK    4  A    between atoms: C_6  and  C_7
REMARK                            x       y       z     vdW  Elec       q    Type
REMARK                         _______ _______ _______ _____ _____    ______ ____
ROOT
ATOM      1  C   UNL     1       4.301   5.125  17.417  0.00  0.00    +0.000 A 
ATOM      2  N   UNL     1       3.486   6.156  17.520  0.00  0.00    +0.000 NA
ATOM      3  C   UNL     1       3.079   6.345  18.826  0.00  0.00    +0.000 A 
ATOM      4  C   UNL     1       3.496   5.367  19.703  0.00  0.00    +0.000 A 
ATOM      5  S   UNL     1       4.456   4.210  18.876  0.00  0.00    +0.000 S 
ENDROOT
BRANCH   3   6
ATOM      6  C   UNL     1       2.294   7.517  19.190  0.00  0.00    +0.000 A 
ATOM      7  C   UNL     1       1.771   7.625  20.487  0.00  0.00    +0.000 A 
ATOM      8  C   UNL     1       0.986   8.721  20.849  0.00  0.00    +0.000 A 
ATOM      9  C   UNL     1       0.705   9.715  19.914  0.00  0.00    +0.000 A 
ATOM     10  C   UNL     1       1.207   9.613  18.619  0.00  0.00    +0.000 A 
ATOM     11  C   UNL     1       1.998   8.519  18.256  0.00  0.00    +0.000 A 
ENDBRANCH   3   6
BRANCH   1  14
ATOM     12  C   UNL     1       7.056   6.178  16.842  0.00  0.00    +0.000 C 
ATOM     13  C   UNL     1       6.259   5.242  15.980  0.00  0.00    +0.000 C 
ATOM     14  C   UNL     1       5.033   4.746  16.259  0.00  0.00    +0.000 C 
BRANCH  13  15
ATOM     15  C   UNL     1       6.865   4.758  14.700  0.00  0.00    +0.000 C 
ATOM     16  N   UNL     1       7.883   5.502  14.192  0.00  0.00    +0.000 N 
ATOM     17  O   UNL     1       6.486   3.752  14.113  0.00  0.00    +0.000 OA
ATOM     18  H   UNL     1       8.230   6.358  14.594  0.00  0.00    +0.000 HD
ATOM     19  H   UNL     1       8.287   5.193  13.318  0.00  0.00    +0.000 HD
ENDBRANCH  13  15
ENDBRANCH   1  14
TORSDOF 3
ENDMDL
MODEL 9
REMARK VINA RESULT:      -6.8      1.389      1.842
REMARK  Name = 
REMARK  4 active torsions:
REMARK  status: ('A' for Active; 'I' for Inactive)
REMARK    1  A    between atoms: C_1  and  C_2
REMARK    2  A    between atoms: C_2  and  C_15
REMARK    3  A    between atoms: C_3  and  C_4
REMARK    4  A    between atoms: C_6  and  C_7
REMARK                            x       y       z     vdW  Elec       q    Type
REMARK                         _______ _______ _______ _____ _____    ______ ____
ROOT
ATOM      1  C   UNL     1       4.306   4.720  17.572  0.00  0.00    +0.000 A 
ATOM      2  N   UNL     1       4.685   4.155  16.444  0.00  0.00    +0.000 NA
ATOM      3  C   UNL     1       5.285   5.070  15.601  0.00  0.00    +0.000 A 
ATOM      4  C   UNL     1       5.248   6.373  16.051  0.00  0.00    +0.000 A 
ATOM      5  S   UNL     1       4.481   6.441  17.585  0.00  0.00    +0.000 S 
ENDROOT
BRANCH   3   6
ATOM      6  C   UNL     1       5.912   4.631  14.362  0.00  0.00    +0.000 A 
ATOM      7  C   UNL     1       7.145   5.178  13.977  0.00  0.00    +0.000 A 
ATOM      8  C   UNL     1       7.747   4.799  12.776  0.00  0.00    +0.000 A 
ATOM      9  C   UNL     1       7.117   3.878  11.942  0.00  0.00    +0.000 A 
ATOM     10  C   UNL     1       5.886   3.338  12.306  0.00  0.00    +0.000 A 
ATOM     11  C   UNL     1       5.284   3.712  13.510  0.00  0.00    +0.000 A 
ENDBRANCH   3   6
BRANCH   1  14
ATOM     12  C   UNL     1       1.392   4.068  17.915  0.00  0.00    +0.000 C 
ATOM     13  C   UNL     1       2.494   3.782  18.895  0.00  0.00    +0.000 C 
ATOM     14  C   UNL     1       3.808   4.048  18.722  0.00  0.00    +0.000 C 
BRANCH  13  15
ATOM     15  C   UNL     1       2.147   3.102  20.182  0.00  0.00    +0.000 C 
ATOM     16  N   UNL     1       0.827   3.051  20.505  0.00  0.00    +0.000 N 
ATOM     17  O   UNL     1       2.982   2.608  20.930  0.00  0.00    +0.000 OA
ATOM     18  H   UNL     1       0.083   3.462  19.963  0.00  0.00    +0.000 HD
ATOM     19  H   UNL     1       0.585   2.610  21.381  0.00  0.00    +0.000 HD
ENDBRANCH  13  15
ENDBRANCH   1  14
TORSDOF 3
ENDMDL
