MODEL 1
REMARK VINA RESULT:      -7.1      0.000      0.000
REMARK  Name = 
REMARK  3 active torsions:
REMARK  status: ('A' for Active; 'I' for Inactive)
REMARK    1  A    between atoms: C_2  and  C_3
REMARK    2  A    between atoms: N_5  and  C_6
REMARK    3  A    between atoms: N_5  and  C_12
REMARK                            x       y       z     vdW  Elec       q    Type
REMARK                         _______ _______ _______ _____ _____    ______ ____
ROOT
ATOM      1  O   UNL     1       7.609   4.894  14.696  0.00  0.00    +0.000 OA
ATOM      2  C   UNL     1       6.409   4.694  14.917  0.00  0.00    +0.000 C 
ATOM      3  N   UNL     1       5.786   5.084  16.138  0.00  0.00    +0.000 N 
ENDROOT
BRANCH   3   4
ATOM      4  C   UNL     1       4.439   4.657  16.669  0.00  0.00    +0.000 C 
ATOM      5  C   UNL     1       3.735   5.683  17.581  0.00  0.00    +0.000 C 
ATOM      6  C   UNL     1       3.926   5.280  19.030  0.00  0.00    +0.000 C 
ATOM      7  S   UNL     1       3.906   3.495  19.019  0.00  0.00    +0.000 S 
ATOM      8  O   UNL     1       2.549   3.058  19.255  0.00  0.00    +0.000 OA
ATOM      9  O   UNL     1       5.017   3.017  19.815  0.00  0.00    +0.000 OA
ATOM     10  C   UNL     1       4.284   3.265  17.292  0.00  0.00    +0.000 C 
ENDBRANCH   3   4
BRANCH   3  11
ATOM     11  C   UNL     1       6.616   5.852  17.087  0.00  0.00    +0.000 A 
ATOM     12  C   UNL     1       6.814   7.235  16.926  0.00  0.00    +0.000 A 
ATOM     13  C   UNL     1       7.678   7.963  17.754  0.00  0.00    +0.000 A 
ATOM     14  C   UNL     1       8.334   7.332  18.802  0.00  0.00    +0.000 A 
ATOM     15  C   UNL     1       8.105   5.981  19.031  0.00  0.00    +0.000 A 
ATOM     16  C   UNL     1       7.254   5.251  18.187  0.00  0.00    +0.000 A 
ENDBRANCH   3  11
BRANCH   2  17
ATOM     17  C   UNL     1       5.600   3.958  13.867  0.00  0.00    +0.000 C 
ATOM     18 CL   UNL     1       6.530   3.684  12.366  0.00  0.00    +0.000 Cl
ENDBRANCH   2  17
TORSDOF 3
ENDMDL
MODEL 2
REMARK VINA RESULT:      -7.1      0.152      1.138
REMARK  Name = 
REMARK  3 active torsions:
REMARK  status: ('A' for Active; 'I' for Inactive)
REMARK    1  A    between atoms: C_2  and  C_3
REMARK    2  A    between atoms: N_5  and  C_6
REMARK    3  A    between atoms: N_5  and  C_12
REMARK                            x       y       z     vdW  Elec       q    Type
REMARK                         _______ _______ _______ _____ _____    ______ ____
ROOT
ATOM      1  O   UNL     1       7.585   4.949  14.572  0.00  0.00    +0.000 OA
ATOM      2  C   UNL     1       6.388   4.791  14.834  0.00  0.00    +0.000 C 
ATOM      3  N   UNL     1       5.828   5.173  16.087  0.00  0.00    +0.000 N 
ENDROOT
BRANCH   3   4
ATOM      4  C   UNL     1       4.486   4.787  16.659  0.00  0.00    +0.000 C 
ATOM      5  C   UNL     1       3.851   5.824  17.610  0.00  0.00    +0.000 C 
ATOM      6  C   UNL     1       4.076   5.393  19.046  0.00  0.00    +0.000 C 
ATOM      7  S   UNL     1       3.992   3.610  19.011  0.00  0.00    +0.000 S 
ATOM      8  O   UNL     1       2.629   3.219  19.289  0.00  0.00    +0.000 OA
ATOM      9  O   UNL     1       5.112   3.082  19.761  0.00  0.00    +0.000 OA
ATOM     10  C   UNL     1       4.302   3.393  17.269  0.00  0.00    +0.000 C 
ENDBRANCH   3   4
BRANCH   3  11
ATOM     11  C   UNL     1       6.724   5.882  17.023  0.00  0.00    +0.000 A 
ATOM     12  C   UNL     1       7.345   5.207  18.088  0.00  0.00    +0.000 A 
ATOM     13  C   UNL     1       8.116   5.880  19.045  0.00  0.00    +0.000 A 
ATOM     14  C   UNL     1       8.327   7.247  18.934  0.00  0.00    +0.000 A 
ATOM     15  C   UNL     1       7.784   7.931  17.853  0.00  0.00    +0.000 A 
ATOM     16  C   UNL     1       6.996   7.258  16.908  0.00  0.00    +0.000 A 
ENDBRANCH   3  11
BRANCH   2  17
ATOM     17  C   UNL     1       5.510   4.116  13.798  0.00  0.00    +0.000 C 
ATOM     18 CL   UNL     1       6.444   3.558  12.382  0.00  0.00    +0.000 Cl
ENDBRANCH   2  17
TORSDOF 3
ENDMDL
MODEL 3
REMARK VINA RESULT:      -6.7      3.201      5.461
REMARK  Name = 
REMARK  3 active torsions:
REMARK  status: ('A' for Active; 'I' for Inactive)
REMARK    1  A    between atoms: C_2  and  C_3
REMARK    2  A    between atoms: N_5  and  C_6
REMARK    3  A    between atoms: N_5  and  C_12
REMARK                            x       y       z     vdW  Elec       q    Type
REMARK                         _______ _______ _______ _____ _____    ______ ____
ROOT
ATOM      1  O   UNL     1       2.513   6.419  19.343  0.00  0.00    +0.000 OA
ATOM      2  C   UNL     1       3.069   6.668  18.267  0.00  0.00    +0.000 C 
ATOM      3  N   UNL     1       3.724   5.662  17.500  0.00  0.00    +0.000 N 
ENDROOT
BRANCH   3   4
ATOM      4  C   UNL     1       4.679   5.850  16.346  0.00  0.00    +0.000 C 
ATOM      5  C   UNL     1       4.727   4.688  15.333  0.00  0.00    +0.000 C 
ATOM      6  C   UNL     1       5.947   3.831  15.609  0.00  0.00    +0.000 C 
ATOM      7  S   UNL     1       7.201   4.977  16.157  0.00  0.00    +0.000 S 
ATOM      8  O   UNL     1       7.966   5.391  15.004  0.00  0.00    +0.000 OA
ATOM      9  O   UNL     1       7.830   4.437  17.345  0.00  0.00    +0.000 OA
ATOM     10  C   UNL     1       6.114   6.310  16.627  0.00  0.00    +0.000 C 
ENDBRANCH   3   4
BRANCH   3  11
ATOM     11  C   UNL     1       3.605   4.274  17.990  0.00  0.00    +0.000 A 
ATOM     12  C   UNL     1       2.591   3.421  17.520  0.00  0.00    +0.000 A 
ATOM     13  C   UNL     1       2.398   2.137  18.046  0.00  0.00    +0.000 A 
ATOM     14  C   UNL     1       3.249   1.651  19.028  0.00  0.00    +0.000 A 
ATOM     15  C   UNL     1       4.304   2.444  19.464  0.00  0.00    +0.000 A 
ATOM     16  C   UNL     1       4.482   3.736  18.949  0.00  0.00    +0.000 A 
ENDBRANCH   3  11
BRANCH   2  17
ATOM     17  C   UNL     1       3.094   8.107  17.790  0.00  0.00    +0.000 C 
ATOM     18 CL   UNL     1       1.484   8.875  17.875  0.00  0.00    +0.000 Cl
ENDBRANCH   2  17
TORSDOF 3
ENDMDL
MODEL 4
REMARK VINA RESULT:      -6.6      2.933      5.174
REMARK  Name = 
REMARK  3 active torsions:
REMARK  status: ('A' for Active; 'I' for Inactive)
REMARK    1  A    between atoms: C_2  and  C_3
REMARK    2  A    between atoms: N_5  and  C_6
REMARK    3  A    between atoms: N_5  and  C_12
REMARK                            x       y       z     vdW  Elec       q    Type
REMARK                         _______ _______ _______ _____ _____    ______ ____
ROOT
ATOM      1  O   UNL     1       1.001   3.802  17.973  0.00  0.00    +0.000 OA
ATOM      2  C   UNL     1       2.199   3.514  17.877  0.00  0.00    +0.000 C 
ATOM      3  N   UNL     1       3.230   4.481  18.058  0.00  0.00    +0.000 N 
ENDROOT
BRANCH   3   4
ATOM      4  C   UNL     1       4.689   4.360  17.692  0.00  0.00    +0.000 C 
ATOM      5  C   UNL     1       5.653   5.230  18.525  0.00  0.00    +0.000 C 
ATOM      6  C   UNL     1       6.026   6.467  17.731  0.00  0.00    +0.000 C 
ATOM      7  S   UNL     1       6.090   5.923  16.033  0.00  0.00    +0.000 S 
ATOM      8  O   UNL     1       7.449   5.533  15.736  0.00  0.00    +0.000 OA
ATOM      9  O   UNL     1       5.368   6.876  15.216  0.00  0.00    +0.000 OA
ATOM     10  C   UNL     1       5.104   4.449  16.219  0.00  0.00    +0.000 C 
ENDBRANCH   3   4
BRANCH   3  11
ATOM     11  C   UNL     1       2.805   5.828  18.488  0.00  0.00    +0.000 A 
ATOM     12  C   UNL     1       2.514   6.104  19.835  0.00  0.00    +0.000 A 
ATOM     13  C   UNL     1       2.012   7.345  20.248  0.00  0.00    +0.000 A 
ATOM     14  C   UNL     1       1.832   8.365  19.325  0.00  0.00    +0.000 A 
ATOM     15  C   UNL     1       2.176   8.147  17.996  0.00  0.00    +0.000 A 
ATOM     16  C   UNL     1       2.660   6.896  17.584  0.00  0.00    +0.000 A 
ENDBRANCH   3  11
BRANCH   2  17
ATOM     17  C   UNL     1       2.566   2.092  17.499  0.00  0.00    +0.000 C 
ATOM     18 CL   UNL     1       3.588   1.307  18.735  0.00  0.00    +0.000 Cl
ENDBRANCH   2  17
TORSDOF 3
ENDMDL
MODEL 5
REMARK VINA RESULT:      -6.6      3.142      5.577
REMARK  Name = 
REMARK  3 active torsions:
REMARK  status: ('A' for Active; 'I' for Inactive)
REMARK    1  A    between atoms: C_2  and  C_3
REMARK    2  A    between atoms: N_5  and  C_6
REMARK    3  A    between atoms: N_5  and  C_12
REMARK                            x       y       z     vdW  Elec       q    Type
REMARK                         _______ _______ _______ _____ _____    ______ ____
ROOT
ATOM      1  O   UNL     1       1.686   5.623  20.051  0.00  0.00    +0.000 OA
ATOM      2  C   UNL     1       2.450   6.320  19.374  0.00  0.00    +0.000 C 
ATOM      3  N   UNL     1       3.513   5.760  18.608  0.00  0.00    +0.000 N 
ENDROOT
BRANCH   3   4
ATOM      4  C   UNL     1       4.683   6.478  17.982  0.00  0.00    +0.000 C 
ATOM      5  C   UNL     1       4.490   6.896  16.510  0.00  0.00    +0.000 C 
ATOM      6  C   UNL     1       5.201   5.905  15.609  0.00  0.00    +0.000 C 
ATOM      7  S   UNL     1       6.656   5.415  16.519  0.00  0.00    +0.000 S 
ATOM      8  O   UNL     1       7.743   6.285  16.132  0.00  0.00    +0.000 OA
ATOM      9  O   UNL     1       6.768   3.972  16.466  0.00  0.00    +0.000 OA
ATOM     10  C   UNL     1       6.093   5.896  18.141  0.00  0.00    +0.000 C 
ENDBRANCH   3   4
BRANCH   3  11
ATOM     11  C   UNL     1       3.589   4.286  18.564  0.00  0.00    +0.000 A 
ATOM     12  C   UNL     1       2.980   3.557  17.527  0.00  0.00    +0.000 A 
ATOM     13  C   UNL     1       2.953   2.156  17.520  0.00  0.00    +0.000 A 
ATOM     14  C   UNL     1       3.580   1.443  18.532  0.00  0.00    +0.000 A 
ATOM     15  C   UNL     1       4.252   2.134  19.534  0.00  0.00    +0.000 A 
ATOM     16  C   UNL     1       4.259   3.536  19.547  0.00  0.00    +0.000 A 
ENDBRANCH   3  11
BRANCH   2  17
ATOM     17  C   UNL     1       2.271   7.826  19.413  0.00  0.00    +0.000 C 
ATOM     18 CL   UNL     1       1.688   8.478  17.856  0.00  0.00    +0.000 Cl
ENDBRANCH   2  17
TORSDOF 3
ENDMDL
MODEL 6
REMARK VINA RESULT:      -6.6      3.312      5.613
REMARK  Name = 
REMARK  3 active torsions:
REMARK  status: ('A' for Active; 'I' for Inactive)
REMARK    1  A    between atoms: C_2  and  C_3
REMARK    2  A    between atoms: N_5  and  C_6
REMARK    3  A    between atoms: N_5  and  C_12
REMARK                            x       y       z     vdW  Elec       q    Type
REMARK                         _______ _______ _______ _____ _____    ______ ____
ROOT
ATOM      1  O   UNL     1       1.902   7.029  19.445  0.00  0.00    +0.000 OA
ATOM      2  C   UNL     1       2.637   7.080  18.452  0.00  0.00    +0.000 C 
ATOM      3  N   UNL     1       3.250   5.918  17.901  0.00  0.00    +0.000 N 
ENDROOT
BRANCH   3   4
ATOM      4  C   UNL     1       4.379   5.852  16.901  0.00  0.00    +0.000 C 
ATOM      5  C   UNL     1       4.459   4.547  16.082  0.00  0.00    +0.000 C 
ATOM      6  C   UNL     1       5.533   3.652  16.669  0.00  0.00    +0.000 C 
ATOM      7  S   UNL     1       6.801   4.768  17.244  0.00  0.00    +0.000 S 
ATOM      8  O   UNL     1       7.766   4.940  16.182  0.00  0.00    +0.000 OA
ATOM      9  O   UNL     1       7.191   4.373  18.582  0.00  0.00    +0.000 OA
ATOM     10  C   UNL     1       5.796   6.238  17.341  0.00  0.00    +0.000 C 
ENDBRANCH   3   4
BRANCH   3  11
ATOM     11  C   UNL     1       2.871   4.623  18.499  0.00  0.00    +0.000 A 
ATOM     12  C   UNL     1       1.779   3.886  18.007  0.00  0.00    +0.000 A 
ATOM     13  C   UNL     1       1.341   2.707  18.623  0.00  0.00    +0.000 A 
ATOM     14  C   UNL     1       2.015   2.206  19.727  0.00  0.00    +0.000 A 
ATOM     15  C   UNL     1       3.140   2.874  20.196  0.00  0.00    +0.000 A 
ATOM     16  C   UNL     1       3.565   4.064  19.588  0.00  0.00    +0.000 A 
ENDBRANCH   3  11
BRANCH   2  17
ATOM     17  C   UNL     1       2.929   8.439  17.846  0.00  0.00    +0.000 C 
ATOM     18 CL   UNL     1       1.496   9.506  17.857  0.00  0.00    +0.000 Cl
ENDBRANCH   2  17
TORSDOF 3
ENDMDL
MODEL 7
REMARK VINA RESULT:      -6.6      3.541      5.821
REMARK  Name = 
REMARK  3 active torsions:
REMARK  status: ('A' for Active; 'I' for Inactive)
REMARK    1  A    between atoms: C_2  and  C_3
REMARK    2  A    between atoms: N_5  and  C_6
REMARK    3  A    between atoms: N_5  and  C_12
REMARK                            x       y       z     vdW  Elec       q    Type
REMARK                         _______ _______ _______ _____ _____    ______ ____
ROOT
ATOM      1  O   UNL     1       1.668   7.537  19.694  0.00  0.00    +0.000 OA
ATOM      2  C   UNL     1       2.399   7.313  18.723  0.00  0.00    +0.000 C 
ATOM      3  N   UNL     1       2.891   6.010  18.427  0.00  0.00    +0.000 N 
ENDROOT
BRANCH   3   4
ATOM      4  C   UNL     1       4.002   5.632  17.478  0.00  0.00    +0.000 C 
ATOM      5  C   UNL     1       4.174   4.118  17.232  0.00  0.00    +0.000 C 
ATOM      6  C   UNL     1       5.328   3.601  18.068  0.00  0.00    +0.000 C 
ATOM      7  S   UNL     1       6.511   4.938  18.098  0.00  0.00    +0.000 S 
ATOM      8  O   UNL     1       7.439   4.742  17.007  0.00  0.00    +0.000 OA
ATOM      9  O   UNL     1       6.957   5.128  19.462  0.00  0.00    +0.000 OA
ATOM     10  C   UNL     1       5.391   6.255  17.662  0.00  0.00    +0.000 C 
ENDBRANCH   3   4
BRANCH   3  11
ATOM     11  C   UNL     1       2.388   4.906  19.269  0.00  0.00    +0.000 A 
ATOM     12  C   UNL     1       1.388   4.034  18.804  0.00  0.00    +0.000 A 
ATOM     13  C   UNL     1       0.826   3.045  19.622  0.00  0.00    +0.000 A 
ATOM     14  C   UNL     1       1.285   2.871  20.920  0.00  0.00    +0.000 A 
ATOM     15  C   UNL     1       2.322   3.671  21.386  0.00  0.00    +0.000 A 
ATOM     16  C   UNL     1       2.869   4.672  20.570  0.00  0.00    +0.000 A 
ENDBRANCH   3  11
BRANCH   2  17
ATOM     17  C   UNL     1       2.821   8.486  17.859  0.00  0.00    +0.000 C 
ATOM     18 CL   UNL     1       1.583   9.772  17.813  0.00  0.00    +0.000 Cl
ENDBRANCH   2  17
TORSDOF 3
ENDMDL
MODEL 8
REMARK VINA RESULT:      -6.5      3.578      5.931
REMARK  Name = 
REMARK  3 active torsions:
REMARK  status: ('A' for Active; 'I' for Inactive)
REMARK    1  A    between atoms: C_2  and  C_3
REMARK    2  A    between atoms: N_5  and  C_6
REMARK    3  A    between atoms: N_5  and  C_12
REMARK                            x       y       z     vdW  Elec       q    Type
REMARK                         _______ _______ _______ _____ _____    ______ ____
ROOT
ATOM      1  O   UNL     1       1.918   7.406  19.586  0.00  0.00    +0.000 OA
ATOM      2  C   UNL     1       2.595   7.108  18.595  0.00  0.00    +0.000 C 
ATOM      3  N   UNL     1       2.978   5.765  18.312  0.00  0.00    +0.000 N 
ENDROOT
BRANCH   3   4
ATOM      4  C   UNL     1       4.023   5.286  17.334  0.00  0.00    +0.000 C 
ATOM      5  C   UNL     1       5.043   4.277  17.901  0.00  0.00    +0.000 C 
ATOM      6  C   UNL     1       6.335   4.999  18.227  0.00  0.00    +0.000 C 
ATOM      7  S   UNL     1       6.489   6.260  16.973  0.00  0.00    +0.000 S 
ATOM      8  O   UNL     1       7.267   5.719  15.883  0.00  0.00    +0.000 OA
ATOM      9  O   UNL     1       6.832   7.511  17.617  0.00  0.00    +0.000 OA
ATOM     10  C   UNL     1       4.777   6.310  16.478  0.00  0.00    +0.000 C 
ENDBRANCH   3   4
BRANCH   3  11
ATOM     11  C   UNL     1       2.426   4.720  19.197  0.00  0.00    +0.000 A 
ATOM     12  C   UNL     1       1.479   3.794  18.726  0.00  0.00    +0.000 A 
ATOM     13  C   UNL     1       0.868   2.860  19.573  0.00  0.00    +0.000 A 
ATOM     14  C   UNL     1       1.225   2.797  20.912  0.00  0.00    +0.000 A 
ATOM     15  C   UNL     1       2.208   3.653  21.394  0.00  0.00    +0.000 A 
ATOM     16  C   UNL     1       2.804   4.599  20.547  0.00  0.00    +0.000 A 
ENDBRANCH   3  11
BRANCH   2  17
ATOM     17  C   UNL     1       3.071   8.228  17.690  0.00  0.00    +0.000 C 
ATOM     18 CL   UNL     1       2.020   9.669  17.787  0.00  0.00    +0.000 Cl
ENDBRANCH   2  17
TORSDOF 3
ENDMDL
MODEL 9
REMARK VINA RESULT:      -6.5      3.286      5.614
REMARK  Name = 
REMARK  3 active torsions:
REMARK  status: ('A' for Active; 'I' for Inactive)
REMARK    1  A    between atoms: C_2  and  C_3
REMARK    2  A    between atoms: N_5  and  C_6
REMARK    3  A    between atoms: N_5  and  C_12
REMARK                            x       y       z     vdW  Elec       q    Type
REMARK                         _______ _______ _______ _____ _____    ______ ____
ROOT
ATOM      1  O   UNL     1       1.936   7.150  19.334  0.00  0.00    +0.000 OA
ATOM      2  C   UNL     1       2.685   7.169  18.351  0.00  0.00    +0.000 C 
ATOM      3  N   UNL     1       3.283   5.986  17.829  0.00  0.00    +0.000 N 
ENDROOT
BRANCH   3   4
ATOM      4  C   UNL     1       4.423   5.879  16.846  0.00  0.00    +0.000 C 
ATOM      5  C   UNL     1       4.466   4.575  16.023  0.00  0.00    +0.000 C 
ATOM      6  C   UNL     1       5.495   3.637  16.622  0.00  0.00    +0.000 C 
ATOM      7  S   UNL     1       6.796   4.701  17.222  0.00  0.00    +0.000 S 
ATOM      8  O   UNL     1       7.783   4.839  16.176  0.00  0.00    +0.000 OA
ATOM      9  O   UNL     1       7.150   4.286  18.564  0.00  0.00    +0.000 OA
ATOM     10  C   UNL     1       5.847   6.208  17.310  0.00  0.00    +0.000 C 
ENDBRANCH   3   4
BRANCH   3  11
ATOM     11  C   UNL     1       2.869   4.709  18.445  0.00  0.00    +0.000 A 
ATOM     12  C   UNL     1       3.555   4.181  19.553  0.00  0.00    +0.000 A 
ATOM     13  C   UNL     1       3.244   2.924  20.088  0.00  0.00    +0.000 A 
ATOM     14  C   UNL     1       2.201   2.179  19.556  0.00  0.00    +0.000 A 
ATOM     15  C   UNL     1       1.459   2.705  18.505  0.00  0.00    +0.000 A 
ATOM     16  C   UNL     1       1.786   3.955  17.960  0.00  0.00    +0.000 A 
ENDBRANCH   3  11
BRANCH   2  17
ATOM     17  C   UNL     1       3.013   8.511  17.725  0.00  0.00    +0.000 C 
ATOM     18 CL   UNL     1       1.659   9.668  17.862  0.00  0.00    +0.000 Cl
ENDBRANCH   2  17
TORSDOF 3
ENDMDL
