MODEL 1
REMARK VINA RESULT:      -7.1      0.000      0.000
REMARK  Name = 
REMARK  3 active torsions:
REMARK  status: ('A' for Active; 'I' for Inactive)
REMARK    1  A    between atoms: S_2  and  C_4
REMARK    2  A    between atoms: S_2  and  N_9
REMARK    3  A    between atoms: N_20  and  C_21
REMARK                            x       y       z     vdW  Elec       q    Type
REMARK                         _______ _______ _______ _____ _____    ______ ____
ROOT
ATOM      1  N   UNL     1      -5.659  12.799  22.225  0.00  0.00    +0.000 NA
ATOM      2  C   UNL     1      -5.566  11.913  21.029  0.00  0.00    +0.000 C 
ATOM      3  C   UNL     1      -6.979  11.644  20.510  0.00  0.00    +0.000 C 
ATOM      4  C   UNL     1      -7.396  12.979  19.996  0.00  0.00    +0.000 A 
ATOM      5  C   UNL     1      -7.383  14.002  20.928  0.00  0.00    +0.000 A 
ATOM      6  S   UNL     1      -7.915  15.463  20.251  0.00  0.00    +0.000 S 
ATOM      7  C   UNL     1      -7.565  14.876  18.677  0.00  0.00    +0.000 A 
ATOM      8  N   UNL     1      -7.522  15.708  17.627  0.00  0.00    +0.000 NA
ATOM      9  C   UNL     1      -6.938  15.143  16.568  0.00  0.00    +0.000 A 
ATOM     10  N   UNL     1      -6.416  13.907  16.469  0.00  0.00    +0.000 NA
ATOM     11  C   UNL     1      -6.542  13.062  17.517  0.00  0.00    +0.000 A 
ATOM     12  N   UNL     1      -5.978  11.777  17.475  0.00  0.00    +0.000 N 
ATOM     13  C   UNL     1      -7.196  13.538  18.682  0.00  0.00    +0.000 A 
ATOM     14  C   UNL     1      -6.765  13.832  22.298  0.00  0.00    +0.000 C 
ATOM     15  H   UNL     1      -6.449  11.135  18.086  0.00  0.00    +0.000 HD
ENDROOT
BRANCH  12  16
ATOM     16  C   UNL     1      -4.680  11.333  17.146  0.00  0.00    +0.000 A 
ATOM     17  C   UNL     1      -3.759  11.161  18.202  0.00  0.00    +0.000 A 
ATOM     18  C   UNL     1      -2.467  10.670  17.981  0.00  0.00    +0.000 A 
ATOM     19  C   UNL     1      -2.076  10.339  16.691  0.00  0.00    +0.000 A 
ATOM     20  C   UNL     1      -2.972  10.518  15.642  0.00  0.00    +0.000 A 
ATOM     21  F   UNL     1      -2.587  10.201  14.399  0.00  0.00    +0.000 F 
ATOM     22  C   UNL     1      -4.262  11.011  15.856  0.00  0.00    +0.000 A 
ENDBRANCH  12  16
BRANCH   1  24
ATOM     23  O   UNL     1      -4.023  11.974  23.958  0.00  0.00    +0.000 OA
ATOM     24  S   UNL     1      -4.214  13.075  23.039  0.00  0.00    +0.000 S 
ATOM     25  O   UNL     1      -4.211  14.452  23.508  0.00  0.00    +0.000 OA
BRANCH  24  26
ATOM     26  C   UNL     1      -2.822  12.934  21.927  0.00  0.00    +0.000 A 
ATOM     27  C   UNL     1      -1.846  11.961  21.788  0.00  0.00    +0.000 A 
ATOM     28  C   UNL     1      -0.798  12.363  20.907  0.00  0.00    +0.000 A 
ATOM     29  C   UNL     1      -1.048  13.594  20.344  0.00  0.00    +0.000 A 
ATOM     30  S   UNL     1      -2.544  14.244  20.861  0.00  0.00    +0.000 S 
ENDBRANCH  24  26
ENDBRANCH   1  24
TORSDOF 3
ENDMDL
MODEL 2
REMARK VINA RESULT:      -7.0      4.406      6.652
REMARK  Name = 
REMARK  3 active torsions:
REMARK  status: ('A' for Active; 'I' for Inactive)
REMARK    1  A    between atoms: S_2  and  C_4
REMARK    2  A    between atoms: S_2  and  N_9
REMARK    3  A    between atoms: N_20  and  C_21
REMARK                            x       y       z     vdW  Elec       q    Type
REMARK                         _______ _______ _______ _____ _____    ______ ____
ROOT
ATOM      1  N   UNL     1      -1.999  13.158  21.339  0.00  0.00    +0.000 NA
ATOM      2  C   UNL     1      -1.558  12.100  20.385  0.00  0.00    +0.000 C 
ATOM      3  C   UNL     1      -1.660  12.652  18.963  0.00  0.00    +0.000 C 
ATOM      4  C   UNL     1      -0.591  13.691  18.940  0.00  0.00    +0.000 A 
ATOM      5  C   UNL     1      -0.722  14.693  19.886  0.00  0.00    +0.000 A 
ATOM      6  S   UNL     1       0.518  15.842  19.744  0.00  0.00    +0.000 S 
ATOM      7  C   UNL     1       1.489  14.709  18.897  0.00  0.00    +0.000 A 
ATOM      8  N   UNL     1       2.797  14.931  18.705  0.00  0.00    +0.000 NA
ATOM      9  C   UNL     1       3.438  13.826  18.317  0.00  0.00    +0.000 A 
ATOM     10  N   UNL     1       2.929  12.596  18.125  0.00  0.00    +0.000 NA
ATOM     11  C   UNL     1       1.595  12.417  18.248  0.00  0.00    +0.000 A 
ATOM     12  N   UNL     1       1.023  11.143  18.096  0.00  0.00    +0.000 N 
ATOM     13  C   UNL     1       0.802  13.538  18.606  0.00  0.00    +0.000 A 
ATOM     14  C   UNL     1      -1.732  14.612  21.008  0.00  0.00    +0.000 C 
ATOM     15  H   UNL     1       0.061  11.189  17.816  0.00  0.00    +0.000 HD
ENDROOT
BRANCH  12  16
ATOM     16  C   UNL     1       1.343   9.897  18.674  0.00  0.00    +0.000 A 
ATOM     17  C   UNL     1       2.043   8.964  17.877  0.00  0.00    +0.000 A 
ATOM     18  C   UNL     1       2.453   7.726  18.382  0.00  0.00    +0.000 A 
ATOM     19  C   UNL     1       2.170   7.400  19.702  0.00  0.00    +0.000 A 
ATOM     20  C   UNL     1       1.470   8.307  20.490  0.00  0.00    +0.000 A 
ATOM     21  F   UNL     1       1.197   7.985  21.761  0.00  0.00    +0.000 F 
ATOM     22  C   UNL     1       1.054   9.544  19.991  0.00  0.00    +0.000 A 
ENDBRANCH  12  16
BRANCH   1  24
ATOM     23  O   UNL     1      -1.459  13.698  23.742  0.00  0.00    +0.000 OA
ATOM     24  S   UNL     1      -2.114  12.682  22.948  0.00  0.00    +0.000 S 
ATOM     25  O   UNL     1      -1.715  11.287  23.040  0.00  0.00    +0.000 OA
BRANCH  24  26
ATOM     26  C   UNL     1      -3.809  12.744  23.509  0.00  0.00    +0.000 A 
ATOM     27  C   UNL     1      -4.394  12.407  24.719  0.00  0.00    +0.000 A 
ATOM     28  C   UNL     1      -5.819  12.416  24.656  0.00  0.00    +0.000 A 
ATOM     29  C   UNL     1      -6.273  12.834  23.425  0.00  0.00    +0.000 A 
ATOM     30  S   UNL     1      -4.988  13.230  22.368  0.00  0.00    +0.000 S 
ENDBRANCH  24  26
ENDBRANCH   1  24
TORSDOF 3
ENDMDL
MODEL 3
REMARK VINA RESULT:      -7.0      4.548      6.803
REMARK  Name = 
REMARK  3 active torsions:
REMARK  status: ('A' for Active; 'I' for Inactive)
REMARK    1  A    between atoms: S_2  and  C_4
REMARK    2  A    between atoms: S_2  and  N_9
REMARK    3  A    between atoms: N_20  and  C_21
REMARK                            x       y       z     vdW  Elec       q    Type
REMARK                         _______ _______ _______ _____ _____    ______ ____
ROOT
ATOM      1  N   UNL     1       0.172  10.345  20.044  0.00  0.00    +0.000 NA
ATOM      2  C   UNL     1      -0.656  11.414  20.671  0.00  0.00    +0.000 C 
ATOM      3  C   UNL     1      -0.850  12.540  19.655  0.00  0.00    +0.000 C 
ATOM      4  C   UNL     1      -1.719  11.903  18.626  0.00  0.00    +0.000 A 
ATOM      5  C   UNL     1      -1.198  10.767  18.033  0.00  0.00    +0.000 A 
ATOM      6  S   UNL     1      -2.246  10.149  16.850  0.00  0.00    +0.000 S 
ATOM      7  C   UNL     1      -3.562  10.990  17.560  0.00  0.00    +0.000 A 
ATOM      8  N   UNL     1      -4.826  10.700  17.222  0.00  0.00    +0.000 NA
ATOM      9  C   UNL     1      -5.704  11.218  18.084  0.00  0.00    +0.000 A 
ATOM     10  N   UNL     1      -5.453  11.944  19.188  0.00  0.00    +0.000 NA
ATOM     11  C   UNL     1      -4.175  12.288  19.463  0.00  0.00    +0.000 A 
ATOM     12  N   UNL     1      -3.860  13.011  20.625  0.00  0.00    +0.000 N 
ATOM     13  C   UNL     1      -3.158  11.838  18.582  0.00  0.00    +0.000 A 
ATOM     14  C   UNL     1       0.047  10.087  18.557  0.00  0.00    +0.000 C 
ATOM     15  H   UNL     1      -3.009  13.534  20.529  0.00  0.00    +0.000 HD
ENDROOT
BRANCH  12  16
ATOM     16  C   UNL     1      -4.199  12.804  21.979  0.00  0.00    +0.000 A 
ATOM     17  C   UNL     1      -3.170  12.402  22.859  0.00  0.00    +0.000 A 
ATOM     18  C   UNL     1      -3.399  12.228  24.228  0.00  0.00    +0.000 A 
ATOM     19  C   UNL     1      -4.667  12.457  24.743  0.00  0.00    +0.000 A 
ATOM     20  C   UNL     1      -5.690  12.840  23.881  0.00  0.00    +0.000 A 
ATOM     21  F   UNL     1      -6.914  13.055  24.383  0.00  0.00    +0.000 F 
ATOM     22  C   UNL     1      -5.470  13.012  22.512  0.00  0.00    +0.000 A 
ENDBRANCH  12  16
BRANCH   1  24
ATOM     23  O   UNL     1      -0.566   8.360  21.415  0.00  0.00    +0.000 OA
ATOM     24  S   UNL     1       0.633   9.091  21.066  0.00  0.00    +0.000 S 
ATOM     25  O   UNL     1       1.503   9.638  22.095  0.00  0.00    +0.000 OA
BRANCH  24  26
ATOM     26  C   UNL     1       1.614   7.884  20.187  0.00  0.00    +0.000 A 
ATOM     27  C   UNL     1       2.357   7.970  19.021  0.00  0.00    +0.000 A 
ATOM     28  C   UNL     1       2.809   6.695  18.569  0.00  0.00    +0.000 A 
ATOM     29  C   UNL     1       2.464   5.690  19.445  0.00  0.00    +0.000 A 
ATOM     30  S   UNL     1       1.622   6.289  20.808  0.00  0.00    +0.000 S 
ENDBRANCH  24  26
ENDBRANCH   1  24
TORSDOF 3
ENDMDL
MODEL 4
REMARK VINA RESULT:      -7.0      5.018      7.760
REMARK  Name = 
REMARK  3 active torsions:
REMARK  status: ('A' for Active; 'I' for Inactive)
REMARK    1  A    between atoms: S_2  and  C_4
REMARK    2  A    between atoms: S_2  and  N_9
REMARK    3  A    between atoms: N_20  and  C_21
REMARK                            x       y       z     vdW  Elec       q    Type
REMARK                         _______ _______ _______ _____ _____    ______ ____
ROOT
ATOM      1  N   UNL     1      -1.951  11.169  17.986  0.00  0.00    +0.000 NA
ATOM      2  C   UNL     1      -0.624  10.496  18.094  0.00  0.00    +0.000 C 
ATOM      3  C   UNL     1       0.368  11.474  18.724  0.00  0.00    +0.000 C 
ATOM      4  C   UNL     1      -0.139  11.599  20.119  0.00  0.00    +0.000 A 
ATOM      5  C   UNL     1      -1.442  12.051  20.236  0.00  0.00    +0.000 A 
ATOM      6  S   UNL     1      -1.903  12.199  21.862  0.00  0.00    +0.000 S 
ATOM      7  C   UNL     1      -0.652  11.119  22.327  0.00  0.00    +0.000 A 
ATOM      8  N   UNL     1      -0.632  10.577  23.552  0.00  0.00    +0.000 NA
ATOM      9  C   UNL     1       0.212   9.546  23.627  0.00  0.00    +0.000 A 
ATOM     10  N   UNL     1       0.981   9.031  22.651  0.00  0.00    +0.000 NA
ATOM     11  C   UNL     1       1.001   9.644  21.447  0.00  0.00    +0.000 A 
ATOM     12  N   UNL     1       1.758   9.121  20.386  0.00  0.00    +0.000 N 
ATOM     13  C   UNL     1       0.181  10.789  21.267  0.00  0.00    +0.000 A 
ATOM     14  C   UNL     1      -2.358  12.179  19.039  0.00  0.00    +0.000 C 
ATOM     15  H   UNL     1       2.014   9.824  19.717  0.00  0.00    +0.000 HD
ENDROOT
BRANCH  12  16
ATOM     16  C   UNL     1       1.829   7.824  19.836  0.00  0.00    +0.000 A 
ATOM     17  C   UNL     1       2.279   7.700  18.503  0.00  0.00    +0.000 A 
ATOM     18  C   UNL     1       2.437   6.452  17.892  0.00  0.00    +0.000 A 
ATOM     19  C   UNL     1       2.148   5.299  18.611  0.00  0.00    +0.000 A 
ATOM     20  C   UNL     1       1.691   5.412  19.920  0.00  0.00    +0.000 A 
ATOM     21  F   UNL     1       1.410   4.296  20.606  0.00  0.00    +0.000 F 
ATOM     22  C   UNL     1       1.528   6.656  20.535  0.00  0.00    +0.000 A 
ENDBRANCH  12  16
BRANCH   1  24
ATOM     23  O   UNL     1      -3.341   9.067  17.882  0.00  0.00    +0.000 OA
ATOM     24  S   UNL     1      -3.137  10.307  17.163  0.00  0.00    +0.000 S 
ATOM     25  O   UNL     1      -2.802  10.306  15.748  0.00  0.00    +0.000 OA
BRANCH  24  26
ATOM     26  C   UNL     1      -4.720  11.125  17.290  0.00  0.00    +0.000 A 
ATOM     27  C   UNL     1      -5.242  12.231  16.638  0.00  0.00    +0.000 A 
ATOM     28  C   UNL     1      -6.476  12.666  17.207  0.00  0.00    +0.000 A 
ATOM     29  C   UNL     1      -6.892  11.832  18.222  0.00  0.00    +0.000 A 
ATOM     30  S   UNL     1      -5.812  10.529  18.465  0.00  0.00    +0.000 S 
ENDBRANCH  24  26
ENDBRANCH   1  24
TORSDOF 3
ENDMDL
MODEL 5
REMARK VINA RESULT:      -6.8      1.196      1.395
REMARK  Name = 
REMARK  3 active torsions:
REMARK  status: ('A' for Active; 'I' for Inactive)
REMARK    1  A    between atoms: S_2  and  C_4
REMARK    2  A    between atoms: S_2  and  N_9
REMARK    3  A    between atoms: N_20  and  C_21
REMARK                            x       y       z     vdW  Elec       q    Type
REMARK                         _______ _______ _______ _____ _____    ______ ____
ROOT
ATOM      1  N   UNL     1      -4.445  13.612  22.114  0.00  0.00    +0.000 NA
ATOM      2  C   UNL     1      -4.625  12.524  21.110  0.00  0.00    +0.000 C 
ATOM      3  C   UNL     1      -6.119  12.233  20.970  0.00  0.00    +0.000 C 
ATOM      4  C   UNL     1      -6.632  13.472  20.321  0.00  0.00    +0.000 A 
ATOM      5  C   UNL     1      -6.407  14.643  21.023  0.00  0.00    +0.000 A 
ATOM      6  S   UNL     1      -7.068  15.983  20.220  0.00  0.00    +0.000 S 
ATOM      7  C   UNL     1      -7.079  15.109  18.743  0.00  0.00    +0.000 A 
ATOM      8  N   UNL     1      -7.266  15.736  17.574  0.00  0.00    +0.000 NA
ATOM      9  C   UNL     1      -6.935  14.964  16.536  0.00  0.00    +0.000 A 
ATOM     10  N   UNL     1      -6.455  13.708  16.557  0.00  0.00    +0.000 NA
ATOM     11  C   UNL     1      -6.350  13.071  17.744  0.00  0.00    +0.000 A 
ATOM     12  N   UNL     1      -5.817  11.773  17.819  0.00  0.00    +0.000 N 
ATOM     13  C   UNL     1      -6.726  13.778  18.916  0.00  0.00    +0.000 A 
ATOM     14  C   UNL     1      -5.501  14.692  22.233  0.00  0.00    +0.000 C 
ATOM     15  H   UNL     1      -6.145  11.274  18.625  0.00  0.00    +0.000 HD
ENDROOT
BRANCH  12  16
ATOM     16  C   UNL     1      -4.628  11.218  17.304  0.00  0.00    +0.000 A 
ATOM     17  C   UNL     1      -3.708  10.669  18.224  0.00  0.00    +0.000 A 
ATOM     18  C   UNL     1      -2.528  10.045  17.804  0.00  0.00    +0.000 A 
ATOM     19  C   UNL     1      -2.249   9.958  16.446  0.00  0.00    +0.000 A 
ATOM     20  C   UNL     1      -3.143  10.508  15.533  0.00  0.00    +0.000 A 
ATOM     21  F   UNL     1      -2.866  10.424  14.225  0.00  0.00    +0.000 F 
ATOM     22  C   UNL     1      -4.321  11.135  15.947  0.00  0.00    +0.000 A 
ENDBRANCH  12  16
BRANCH   1  24
ATOM     23  O   UNL     1      -2.835  14.256  23.945  0.00  0.00    +0.000 OA
ATOM     24  S   UNL     1      -2.853  13.962  22.529  0.00  0.00    +0.000 S 
ATOM     25  O   UNL     1      -2.328  14.910  21.559  0.00  0.00    +0.000 OA
BRANCH  24  26
ATOM     26  C   UNL     1      -1.827  12.505  22.393  0.00  0.00    +0.000 A 
ATOM     27  C   UNL     1      -1.723  11.372  23.184  0.00  0.00    +0.000 A 
ATOM     28  C   UNL     1      -0.615  10.553  22.818  0.00  0.00    +0.000 A 
ATOM     29  C   UNL     1       0.042  11.046  21.712  0.00  0.00    +0.000 A 
ATOM     30  S   UNL     1      -0.691  12.472  21.115  0.00  0.00    +0.000 S 
ENDBRANCH  24  26
ENDBRANCH   1  24
TORSDOF 3
ENDMDL
MODEL 6
REMARK VINA RESULT:      -6.7      4.475      6.467
REMARK  Name = 
REMARK  3 active torsions:
REMARK  status: ('A' for Active; 'I' for Inactive)
REMARK    1  A    between atoms: S_2  and  C_4
REMARK    2  A    between atoms: S_2  and  N_9
REMARK    3  A    between atoms: N_20  and  C_21
REMARK                            x       y       z     vdW  Elec       q    Type
REMARK                         _______ _______ _______ _____ _____    ______ ____
ROOT
ATOM      1  N   UNL     1      -2.183  12.999  21.320  0.00  0.00    +0.000 NA
ATOM      2  C   UNL     1      -1.689  11.890  20.455  0.00  0.00    +0.000 C 
ATOM      3  C   UNL     1      -1.812  12.321  18.993  0.00  0.00    +0.000 C 
ATOM      4  C   UNL     1      -0.793  13.404  18.887  0.00  0.00    +0.000 A 
ATOM      5  C   UNL     1      -0.974  14.471  19.748  0.00  0.00    +0.000 A 
ATOM      6  S   UNL     1       0.211  15.663  19.514  0.00  0.00    +0.000 S 
ATOM      7  C   UNL     1       1.237  14.512  18.760  0.00  0.00    +0.000 A 
ATOM      8  N   UNL     1       2.533  14.779  18.551  0.00  0.00    +0.000 NA
ATOM      9  C   UNL     1       3.227  13.679  18.253  0.00  0.00    +0.000 A 
ATOM     10  N   UNL     1       2.777  12.414  18.160  0.00  0.00    +0.000 NA
ATOM     11  C   UNL     1       1.453  12.183  18.298  0.00  0.00    +0.000 A 
ATOM     12  N   UNL     1       0.943  10.876  18.249  0.00  0.00    +0.000 N 
ATOM     13  C   UNL     1       0.607  13.291  18.565  0.00  0.00    +0.000 A 
ATOM     14  C   UNL     1      -1.983  14.433  20.874  0.00  0.00    +0.000 C 
ATOM     15  H   UNL     1      -0.020  10.853  17.967  0.00  0.00    +0.000 HD
ENDROOT
BRANCH  12  16
ATOM     16  C   UNL     1       1.319   9.697  18.926  0.00  0.00    +0.000 A 
ATOM     17  C   UNL     1       0.950   9.574  20.284  0.00  0.00    +0.000 A 
ATOM     18  C   UNL     1       1.229   8.418  21.021  0.00  0.00    +0.000 A 
ATOM     19  C   UNL     1       1.883   7.358  20.406  0.00  0.00    +0.000 A 
ATOM     20  C   UNL     1       2.262   7.476  19.073  0.00  0.00    +0.000 A 
ATOM     21  F   UNL     1       2.896   6.451  18.487  0.00  0.00    +0.000 F 
ATOM     22  C   UNL     1       1.990   8.629  18.332  0.00  0.00    +0.000 A 
ENDBRANCH  12  16
BRANCH   1  24
ATOM     23  O   UNL     1      -1.035  12.020  23.341  0.00  0.00    +0.000 OA
ATOM     24  S   UNL     1      -2.281  12.650  22.963  0.00  0.00    +0.000 S 
ATOM     25  O   UNL     1      -3.556  11.999  23.214  0.00  0.00    +0.000 OA
BRANCH  24  26
ATOM     26  C   UNL     1      -2.299  14.151  23.931  0.00  0.00    +0.000 A 
ATOM     27  C   UNL     1      -1.283  14.863  24.550  0.00  0.00    +0.000 A 
ATOM     28  C   UNL     1      -1.782  15.894  25.400  0.00  0.00    +0.000 A 
ATOM     29  C   UNL     1      -3.155  15.985  25.343  0.00  0.00    +0.000 A 
ATOM     30  S   UNL     1      -3.827  14.849  24.255  0.00  0.00    +0.000 S 
ENDBRANCH  24  26
ENDBRANCH   1  24
TORSDOF 3
ENDMDL
MODEL 7
REMARK VINA RESULT:      -6.7      3.220      4.958
REMARK  Name = 
REMARK  3 active torsions:
REMARK  status: ('A' for Active; 'I' for Inactive)
REMARK    1  A    between atoms: S_2  and  C_4
REMARK    2  A    between atoms: S_2  and  N_9
REMARK    3  A    between atoms: N_20  and  C_21
REMARK                            x       y       z     vdW  Elec       q    Type
REMARK                         _______ _______ _______ _____ _____    ______ ____
ROOT
ATOM      1  N   UNL     1      -0.926  13.197  22.420  0.00  0.00    +0.000 NA
ATOM      2  C   UNL     1      -2.137  12.367  22.162  0.00  0.00    +0.000 C 
ATOM      3  C   UNL     1      -2.857  12.128  23.490  0.00  0.00    +0.000 C 
ATOM      4  C   UNL     1      -3.361  13.488  23.834  0.00  0.00    +0.000 A 
ATOM      5  C   UNL     1      -2.390  14.466  23.951  0.00  0.00    +0.000 A 
ATOM      6  S   UNL     1      -3.065  15.960  24.388  0.00  0.00    +0.000 S 
ATOM      7  C   UNL     1      -4.602  15.444  23.824  0.00  0.00    +0.000 A 
ATOM      8  N   UNL     1      -5.597  16.322  23.640  0.00  0.00    +0.000 NA
ATOM      9  C   UNL     1      -6.591  15.804  22.915  0.00  0.00    +0.000 A 
ATOM     10  N   UNL     1      -6.674  14.571  22.383  0.00  0.00    +0.000 NA
ATOM     11  C   UNL     1      -5.693  13.680  22.649  0.00  0.00    +0.000 A 
ATOM     12  N   UNL     1      -5.717  12.395  22.083  0.00  0.00    +0.000 N 
ATOM     13  C   UNL     1      -4.608  14.105  23.458  0.00  0.00    +0.000 A 
ATOM     14  C   UNL     1      -0.958  14.231  23.526  0.00  0.00    +0.000 C 
ATOM     15  H   UNL     1      -5.206  11.728  22.632  0.00  0.00    +0.000 HD
ENDROOT
BRANCH  12  16
ATOM     16  C   UNL     1      -5.885  11.960  20.752  0.00  0.00    +0.000 A 
ATOM     17  C   UNL     1      -6.976  11.108  20.473  0.00  0.00    +0.000 A 
ATOM     18  C   UNL     1      -7.256  10.672  19.173  0.00  0.00    +0.000 A 
ATOM     19  C   UNL     1      -6.445  11.087  18.125  0.00  0.00    +0.000 A 
ATOM     20  C   UNL     1      -5.361  11.916  18.393  0.00  0.00    +0.000 A 
ATOM     21  F   UNL     1      -4.580  12.309  17.377  0.00  0.00    +0.000 F 
ATOM     22  C   UNL     1      -5.073  12.352  19.689  0.00  0.00    +0.000 A 
ENDBRANCH  12  16
BRANCH   1  24
ATOM     23  O   UNL     1       1.403  12.954  21.481  0.00  0.00    +0.000 OA
ATOM     24  S   UNL     1       0.090  13.429  21.099  0.00  0.00    +0.000 S 
ATOM     25  O   UNL     1      -0.103  14.784  20.608  0.00  0.00    +0.000 OA
BRANCH  24  26
ATOM     26  C   UNL     1      -0.366  12.350  19.750  0.00  0.00    +0.000 A 
ATOM     27  C   UNL     1      -1.278  12.498  18.717  0.00  0.00    +0.000 A 
ATOM     28  C   UNL     1      -1.470  11.290  17.984  0.00  0.00    +0.000 A 
ATOM     29  C   UNL     1      -0.643  10.283  18.431  0.00  0.00    +0.000 A 
ATOM     30  S   UNL     1       0.368  10.805  19.709  0.00  0.00    +0.000 S 
ENDBRANCH  24  26
ENDBRANCH   1  24
TORSDOF 3
ENDMDL
MODEL 8
REMARK VINA RESULT:      -6.7      4.547      6.564
REMARK  Name = 
REMARK  3 active torsions:
REMARK  status: ('A' for Active; 'I' for Inactive)
REMARK    1  A    between atoms: S_2  and  C_4
REMARK    2  A    between atoms: S_2  and  N_9
REMARK    3  A    between atoms: N_20  and  C_21
REMARK                            x       y       z     vdW  Elec       q    Type
REMARK                         _______ _______ _______ _____ _____    ______ ____
ROOT
ATOM      1  N   UNL     1      -2.174  13.317  21.373  0.00  0.00    +0.000 NA
ATOM      2  C   UNL     1      -1.721  12.230  20.457  0.00  0.00    +0.000 C 
ATOM      3  C   UNL     1      -1.816  12.736  19.017  0.00  0.00    +0.000 C 
ATOM      4  C   UNL     1      -0.752  13.778  18.968  0.00  0.00    +0.000 A 
ATOM      5  C   UNL     1      -0.893  14.810  19.879  0.00  0.00    +0.000 A 
ATOM      6  S   UNL     1       0.342  15.960  19.708  0.00  0.00    +0.000 S 
ATOM      7  C   UNL     1       1.324  14.804  18.904  0.00  0.00    +0.000 A 
ATOM      8  N   UNL     1       2.632  15.026  18.715  0.00  0.00    +0.000 NA
ATOM      9  C   UNL     1       3.280  13.913  18.367  0.00  0.00    +0.000 A 
ATOM     10  N   UNL     1       2.779  12.675  18.212  0.00  0.00    +0.000 NA
ATOM     11  C   UNL     1       1.445  12.493  18.332  0.00  0.00    +0.000 A 
ATOM     12  N   UNL     1       0.880  11.212  18.217  0.00  0.00    +0.000 N 
ATOM     13  C   UNL     1       0.644  13.622  18.647  0.00  0.00    +0.000 A 
ATOM     14  C   UNL     1      -1.911  14.760  20.996  0.00  0.00    +0.000 C 
ATOM     15  H   UNL     1      -0.081  11.244  17.930  0.00  0.00    +0.000 HD
ENDROOT
BRANCH  12  16
ATOM     16  C   UNL     1       1.202   9.988  18.838  0.00  0.00    +0.000 A 
ATOM     17  C   UNL     1       1.894   9.025  18.071  0.00  0.00    +0.000 A 
ATOM     18  C   UNL     1       2.306   7.805  18.618  0.00  0.00    +0.000 A 
ATOM     19  C   UNL     1       2.032   7.527  19.950  0.00  0.00    +0.000 A 
ATOM     20  C   UNL     1       1.339   8.464  20.710  0.00  0.00    +0.000 A 
ATOM     21  F   UNL     1       1.075   8.189  21.994  0.00  0.00    +0.000 F 
ATOM     22  C   UNL     1       0.922   9.683  20.169  0.00  0.00    +0.000 A 
ENDBRANCH  12  16
BRANCH   1  24
ATOM     23  O   UNL     1      -0.968  12.546  23.450  0.00  0.00    +0.000 OA
ATOM     24  S   UNL     1      -2.297  12.894  22.996  0.00  0.00    +0.000 S 
ATOM     25  O   UNL     1      -3.406  11.963  23.141  0.00  0.00    +0.000 OA
BRANCH  24  26
ATOM     26  C   UNL     1      -2.719  14.315  23.992  0.00  0.00    +0.000 A 
ATOM     27  C   UNL     1      -3.928  14.945  24.239  0.00  0.00    +0.000 A 
ATOM     28  C   UNL     1      -3.767  16.181  24.932  0.00  0.00    +0.000 A 
ATOM     29  C   UNL     1      -2.450  16.415  25.259  0.00  0.00    +0.000 A 
ATOM     30  S   UNL     1      -1.427  15.142  24.752  0.00  0.00    +0.000 S 
ENDBRANCH  24  26
ENDBRANCH   1  24
TORSDOF 3
ENDMDL
MODEL 9
REMARK VINA RESULT:      -6.6      4.491      6.781
REMARK  Name = 
REMARK  3 active torsions:
REMARK  status: ('A' for Active; 'I' for Inactive)
REMARK    1  A    between atoms: S_2  and  C_4
REMARK    2  A    between atoms: S_2  and  N_9
REMARK    3  A    between atoms: N_20  and  C_21
REMARK                            x       y       z     vdW  Elec       q    Type
REMARK                         _______ _______ _______ _____ _____    ______ ____
ROOT
ATOM      1  N   UNL     1       0.004  10.447  19.532  0.00  0.00    +0.000 NA
ATOM      2  C   UNL     1      -0.565  11.704  20.100  0.00  0.00    +0.000 C 
ATOM      3  C   UNL     1      -0.986  12.614  18.946  0.00  0.00    +0.000 C 
ATOM      4  C   UNL     1      -2.139  11.877  18.356  0.00  0.00    +0.000 A 
ATOM      5  C   UNL     1      -1.859  10.595  17.916  0.00  0.00    +0.000 A 
ATOM      6  S   UNL     1      -3.225   9.865  17.224  0.00  0.00    +0.000 S 
ATOM      7  C   UNL     1      -4.248  10.967  18.051  0.00  0.00    +0.000 A 
ATOM      8  N   UNL     1      -5.567  10.750  18.136  0.00  0.00    +0.000 NA
ATOM      9  C   UNL     1      -6.141  11.522  19.061  0.00  0.00    +0.000 A 
ATOM     10  N   UNL     1      -5.556  12.426  19.866  0.00  0.00    +0.000 NA
ATOM     11  C   UNL     1      -4.238  12.682  19.707  0.00  0.00    +0.000 A 
ATOM     12  N   UNL     1      -3.575  13.588  20.551  0.00  0.00    +0.000 N 
ATOM     13  C   UNL     1      -3.533  11.957  18.712  0.00  0.00    +0.000 A 
ATOM     14  C   UNL     1      -0.548   9.908  18.229  0.00  0.00    +0.000 C 
ATOM     15  H   UNL     1      -2.763  13.988  20.117  0.00  0.00    +0.000 HD
ENDROOT
BRANCH  12  16
ATOM     16  C   UNL     1      -3.527  13.697  21.956  0.00  0.00    +0.000 A 
ATOM     17  C   UNL     1      -2.988  14.882  22.504  0.00  0.00    +0.000 A 
ATOM     18  C   UNL     1      -2.951  15.104  23.885  0.00  0.00    +0.000 A 
ATOM     19  C   UNL     1      -3.459  14.140  24.745  0.00  0.00    +0.000 A 
ATOM     20  C   UNL     1      -3.979  12.964  24.214  0.00  0.00    +0.000 A 
ATOM     21  F   UNL     1      -4.463  12.035  25.050  0.00  0.00    +0.000 F 
ATOM     22  C   UNL     1      -4.015  12.734  22.836  0.00  0.00    +0.000 A 
ENDBRANCH  12  16
BRANCH   1  24
ATOM     23  O   UNL     1      -0.407   8.606  21.206  0.00  0.00    +0.000 OA
ATOM     24  S   UNL     1       0.677   9.385  20.649  0.00  0.00    +0.000 S 
ATOM     25  O   UNL     1       1.577  10.138  21.508  0.00  0.00    +0.000 OA
BRANCH  24  26
ATOM     26  C   UNL     1       1.691   8.163  19.831  0.00  0.00    +0.000 A 
ATOM     27  C   UNL     1       2.348   8.174  18.611  0.00  0.00    +0.000 A 
ATOM     28  C   UNL     1       2.868   6.892  18.262  0.00  0.00    +0.000 A 
ATOM     29  C   UNL     1       2.660   5.967  19.260  0.00  0.00    +0.000 A 
ATOM     30  S   UNL     1       1.863   6.649  20.611  0.00  0.00    +0.000 S 
ENDBRANCH  24  26
ENDBRANCH   1  24
TORSDOF 3
ENDMDL
