MODEL 1
REMARK VINA RESULT:      -6.1      0.000      0.000
REMARK  Name = 
REMARK  8 active torsions:
REMARK  status: ('A' for Active; 'I' for Inactive)
REMARK    1  A    between atoms: C_1  and  O_2
REMARK    2  A    between atoms: O_2  and  C_3
REMARK    3  A    between atoms: C_8  and  C_9
REMARK    4  A    between atoms: C_14  and  C_15
REMARK    5  A    between atoms: C_16  and  C_17
REMARK    6  A    between atoms: C_20  and  C_22
REMARK    7  A    between atoms: C_25  and  C_26
REMARK    8  A    between atoms: C_26  and  O_27
REMARK                            x       y       z     vdW  Elec       q    Type
REMARK                         _______ _______ _______ _____ _____    ______ ____
ROOT
ATOM      1  C   UNL     1       2.332   6.092  19.069  0.00  0.00    +0.000 A 
ATOM      2  C   UNL     1       1.263   7.000  18.851  0.00  0.00    +0.000 A 
ATOM      3  C   UNL     1       1.389   8.169  18.101  0.00  0.00    +0.000 A 
ATOM      4  C   UNL     1       2.613   8.499  17.561  0.00  0.00    +0.000 A 
ATOM      5  C   UNL     1       3.688   7.630  17.733  0.00  0.00    +0.000 A 
ATOM      6  C   UNL     1       3.607   6.401  18.453  0.00  0.00    +0.000 A 
ENDROOT
BRANCH   1  12
ATOM      7  C   UNL     1       1.406   3.694  19.564  0.00  0.00    +0.000 A 
ATOM      8  C   UNL     1       1.307   2.594  20.438  0.00  0.00    +0.000 A 
ATOM      9  C   UNL     1       1.844   2.633  21.715  0.00  0.00    +0.000 A 
ATOM     10  C   UNL     1       2.439   3.806  22.153  0.00  0.00    +0.000 A 
ATOM     11  C   UNL     1       2.491   4.918  21.302  0.00  0.00    +0.000 A 
ATOM     12  C   UNL     1       2.082   4.884  19.954  0.00  0.00    +0.000 A 
BRANCH   7  14
ATOM     13  C   UNL     1       0.419   2.254  17.980  0.00  0.00    +0.000 C 
ATOM     14  O   UNL     1       0.874   3.576  18.297  0.00  0.00    +0.000 OA
ENDBRANCH   7  14
ENDBRANCH   1  12
BRANCH   6  15
ATOM     15  C   UNL     1       4.951   5.434  18.501  0.00  0.00    +0.000 C 
ATOM     16  C   UNL     1       6.301   5.916  17.873  0.00  0.00    +0.000 C 
ATOM     17  N   UNL     1       5.964   5.032  16.749  0.00  0.00    +0.000 N 
ATOM     18  C   UNL     1       6.744   4.886  15.634  0.00  0.00    +0.000 C 
ATOM     19  O   UNL     1       7.698   5.630  15.425  0.00  0.00    +0.000 OA
ATOM     20  C   UNL     1       5.060   4.192  17.541  0.00  0.00    +0.000 C 
BRANCH  18  21
ATOM     21  C   UNL     1       6.402   3.820  14.656  0.00  0.00    +0.000 C 
ATOM     22  C   UNL     1       5.323   4.081  13.625  0.00  0.00    +0.000 C 
ATOM     23  C   UNL     1       6.757   3.973  13.196  0.00  0.00    +0.000 C 
ENDBRANCH  18  21
BRANCH  16  24
ATOM     24  C   UNL     1       7.501   5.507  18.610  0.00  0.00    +0.000 C 
ATOM     25  N   UNL     1       8.426   5.186  19.243  0.00  0.00    +0.000 NA
ENDBRANCH  16  24
BRANCH  20  26
ATOM     26  C   UNL     1       3.809   3.688  16.847  0.00  0.00    +0.000 C 
BRANCH  26  27
ATOM     27  O   UNL     1       3.506   2.371  17.299  0.00  0.00    +0.000 OA
ATOM     28  H   UNL     1       2.608   2.362  17.671  0.00  0.00    +0.000 HD
ENDBRANCH  26  27
ENDBRANCH  20  26
ENDBRANCH   6  15
TORSDOF 7
ENDMDL
MODEL 2
REMARK VINA RESULT:      -5.8      7.586     11.313
REMARK  Name = 
REMARK  8 active torsions:
REMARK  status: ('A' for Active; 'I' for Inactive)
REMARK    1  A    between atoms: C_1  and  O_2
REMARK    2  A    between atoms: O_2  and  C_3
REMARK    3  A    between atoms: C_8  and  C_9
REMARK    4  A    between atoms: C_14  and  C_15
REMARK    5  A    between atoms: C_16  and  C_17
REMARK    6  A    between atoms: C_20  and  C_22
REMARK    7  A    between atoms: C_25  and  C_26
REMARK    8  A    between atoms: C_26  and  O_27
REMARK                            x       y       z     vdW  Elec       q    Type
REMARK                         _______ _______ _______ _____ _____    ______ ____
ROOT
ATOM      1  C   UNL     1       0.583  11.249  21.267  0.00  0.00    +0.000 A 
ATOM      2  C   UNL     1       1.148  10.029  21.725  0.00  0.00    +0.000 A 
ATOM      3  C   UNL     1       0.561   9.234  22.709  0.00  0.00    +0.000 A 
ATOM      4  C   UNL     1      -0.608   9.648  23.307  0.00  0.00    +0.000 A 
ATOM      5  C   UNL     1      -1.209  10.830  22.880  0.00  0.00    +0.000 A 
ATOM      6  C   UNL     1      -0.679  11.661  21.848  0.00  0.00    +0.000 A 
ENDROOT
BRANCH   1  12
ATOM      7  C   UNL     1       1.479  11.725  18.853  0.00  0.00    +0.000 A 
ATOM      8  C   UNL     1       2.138  12.590  17.958  0.00  0.00    +0.000 A 
ATOM      9  C   UNL     1       2.704  13.781  18.385  0.00  0.00    +0.000 A 
ATOM     10  C   UNL     1       2.664  14.091  19.736  0.00  0.00    +0.000 A 
ATOM     11  C   UNL     1       2.054  13.206  20.635  0.00  0.00    +0.000 A 
ATOM     12  C   UNL     1       1.349  12.053  20.232  0.00  0.00    +0.000 A 
BRANCH   7  14
ATOM     13  C   UNL     1       1.874   9.589  17.938  0.00  0.00    +0.000 C 
ATOM     14  O   UNL     1       0.914  10.569  18.355  0.00  0.00    +0.000 OA
ENDBRANCH   7  14
ENDBRANCH   1  12
BRANCH   6  15
ATOM     15  C   UNL     1      -1.552  12.993  21.392  0.00  0.00    +0.000 C 
ATOM     16  C   UNL     1      -2.829  13.419  22.189  0.00  0.00    +0.000 C 
ATOM     17  N   UNL     1      -3.583  12.808  21.087  0.00  0.00    +0.000 N 
ATOM     18  C   UNL     1      -4.949  12.749  21.039  0.00  0.00    +0.000 C 
ATOM     19  O   UNL     1      -5.632  13.051  22.013  0.00  0.00    +0.000 OA
ATOM     20  C   UNL     1      -2.483  12.927  20.125  0.00  0.00    +0.000 C 
BRANCH  18  21
ATOM     21  C   UNL     1      -5.602  12.286  19.787  0.00  0.00    +0.000 C 
ATOM     22  C   UNL     1      -6.552  11.106  19.840  0.00  0.00    +0.000 C 
ATOM     23  C   UNL     1      -7.085  12.484  19.573  0.00  0.00    +0.000 C 
ENDBRANCH  18  21
BRANCH  16  24
ATOM     24  C   UNL     1      -3.022  14.867  22.311  0.00  0.00    +0.000 C 
ATOM     25  N   UNL     1      -3.149  16.018  22.455  0.00  0.00    +0.000 NA
ENDBRANCH  16  24
BRANCH  20  26
ATOM     26  C   UNL     1      -2.305  11.785  19.142  0.00  0.00    +0.000 C 
BRANCH  26  27
ATOM     27  O   UNL     1      -2.451  12.271  17.811  0.00  0.00    +0.000 OA
ATOM     28  H   UNL     1      -1.589  12.583  17.490  0.00  0.00    +0.000 HD
ENDBRANCH  26  27
ENDBRANCH  20  26
ENDBRANCH   6  15
TORSDOF 7
ENDMDL
MODEL 3
REMARK VINA RESULT:      -5.8      8.358     11.760
REMARK  Name = 
REMARK  8 active torsions:
REMARK  status: ('A' for Active; 'I' for Inactive)
REMARK    1  A    between atoms: C_1  and  O_2
REMARK    2  A    between atoms: O_2  and  C_3
REMARK    3  A    between atoms: C_8  and  C_9
REMARK    4  A    between atoms: C_14  and  C_15
REMARK    5  A    between atoms: C_16  and  C_17
REMARK    6  A    between atoms: C_20  and  C_22
REMARK    7  A    between atoms: C_25  and  C_26
REMARK    8  A    between atoms: C_26  and  O_27
REMARK                            x       y       z     vdW  Elec       q    Type
REMARK                         _______ _______ _______ _____ _____    ______ ____
ROOT
ATOM      1  C   UNL     1       0.590  11.342  21.306  0.00  0.00    +0.000 A 
ATOM      2  C   UNL     1       1.166  10.095  21.668  0.00  0.00    +0.000 A 
ATOM      3  C   UNL     1       0.589   9.222  22.589  0.00  0.00    +0.000 A 
ATOM      4  C   UNL     1      -0.582   9.578  23.219  0.00  0.00    +0.000 A 
ATOM      5  C   UNL     1      -1.194  10.784  22.885  0.00  0.00    +0.000 A 
ATOM      6  C   UNL     1      -0.674  11.697  21.919  0.00  0.00    +0.000 A 
ENDROOT
BRANCH   1  12
ATOM      7  C   UNL     1       1.967  13.470  20.652  0.00  0.00    +0.000 A 
ATOM      8  C   UNL     1       2.724  14.173  19.694  0.00  0.00    +0.000 A 
ATOM      9  C   UNL     1       2.876  13.697  18.401  0.00  0.00    +0.000 A 
ATOM     10  C   UNL     1       2.217  12.532  18.037  0.00  0.00    +0.000 A 
ATOM     11  C   UNL     1       1.423  11.860  18.976  0.00  0.00    +0.000 A 
ATOM     12  C   UNL     1       1.347  12.230  20.334  0.00  0.00    +0.000 A 
BRANCH   7  14
ATOM     13  C   UNL     1       1.477  15.362  21.970  0.00  0.00    +0.000 C 
ATOM     14  O   UNL     1       1.881  13.987  21.929  0.00  0.00    +0.000 OA
ENDBRANCH   7  14
ENDBRANCH   1  12
BRANCH   6  15
ATOM     15  C   UNL     1      -1.560  13.052  21.568  0.00  0.00    +0.000 C 
ATOM     16  C   UNL     1      -2.823  13.418  22.415  0.00  0.00    +0.000 C 
ATOM     17  N   UNL     1      -3.596  12.878  21.290  0.00  0.00    +0.000 N 
ATOM     18  C   UNL     1      -4.963  12.816  21.264  0.00  0.00    +0.000 C 
ATOM     19  O   UNL     1      -5.628  13.050  22.269  0.00  0.00    +0.000 OA
ATOM     20  C   UNL     1      -2.515  13.064  20.317  0.00  0.00    +0.000 C 
BRANCH  18  21
ATOM     21  C   UNL     1      -5.639  12.433  19.997  0.00  0.00    +0.000 C 
ATOM     22  C   UNL     1      -6.525  11.204  19.973  0.00  0.00    +0.000 C 
ATOM     23  C   UNL     1      -7.137  12.569  19.852  0.00  0.00    +0.000 C 
ENDBRANCH  18  21
BRANCH  16  24
ATOM     24  C   UNL     1      -3.019  14.855  22.635  0.00  0.00    +0.000 C 
ATOM     25  N   UNL     1      -3.209  15.998  22.767  0.00  0.00    +0.000 NA
ENDBRANCH  16  24
BRANCH  20  26
ATOM     26  C   UNL     1      -2.353  11.990  19.259  0.00  0.00    +0.000 C 
BRANCH  26  27
ATOM     27  O   UNL     1      -1.918  12.581  18.037  0.00  0.00    +0.000 OA
ATOM     28  H   UNL     1      -1.690  11.877  17.407  0.00  0.00    +0.000 HD
ENDBRANCH  26  27
ENDBRANCH  20  26
ENDBRANCH   6  15
TORSDOF 7
ENDMDL
MODEL 4
REMARK VINA RESULT:      -5.7      9.657     12.295
REMARK  Name = 
REMARK  8 active torsions:
REMARK  status: ('A' for Active; 'I' for Inactive)
REMARK    1  A    between atoms: C_1  and  O_2
REMARK    2  A    between atoms: O_2  and  C_3
REMARK    3  A    between atoms: C_8  and  C_9
REMARK    4  A    between atoms: C_14  and  C_15
REMARK    5  A    between atoms: C_16  and  C_17
REMARK    6  A    between atoms: C_20  and  C_22
REMARK    7  A    between atoms: C_25  and  C_26
REMARK    8  A    between atoms: C_26  and  O_27
REMARK                            x       y       z     vdW  Elec       q    Type
REMARK                         _______ _______ _______ _____ _____    ______ ____
ROOT
ATOM      1  C   UNL     1       9.845  14.765  21.002  0.00  0.00    +0.000 A 
ATOM      2  C   UNL     1      10.947  15.646  21.160  0.00  0.00    +0.000 A 
ATOM      3  C   UNL     1      10.949  16.721  22.049  0.00  0.00    +0.000 A 
ATOM      4  C   UNL     1       9.823  16.984  22.797  0.00  0.00    +0.000 A 
ATOM      5  C   UNL     1       8.723  16.137  22.689  0.00  0.00    +0.000 A 
ATOM      6  C   UNL     1       8.679  14.998  21.831  0.00  0.00    +0.000 A 
ENDROOT
BRANCH   1  12
ATOM      7  C   UNL     1       9.327  13.679  18.677  0.00  0.00    +0.000 A 
ATOM      8  C   UNL     1       9.559  12.647  17.747  0.00  0.00    +0.000 A 
ATOM      9  C   UNL     1      10.378  11.570  18.050  0.00  0.00    +0.000 A 
ATOM     10  C   UNL     1      10.930  11.488  19.319  0.00  0.00    +0.000 A 
ATOM     11  C   UNL     1      10.658  12.489  20.261  0.00  0.00    +0.000 A 
ATOM     12  C   UNL     1       9.945  13.667  19.959  0.00  0.00    +0.000 A 
BRANCH   7  14
ATOM     13  C   UNL     1       7.215  14.341  17.867  0.00  0.00    +0.000 C 
ATOM     14  O   UNL     1       8.524  14.735  18.299  0.00  0.00    +0.000 OA
ENDBRANCH   7  14
ENDBRANCH   1  12
BRANCH   6  15
ATOM     15  C   UNL     1       7.329  14.039  21.873  0.00  0.00    +0.000 C 
ATOM     16  C   UNL     1       6.056  14.491  22.663  0.00  0.00    +0.000 C 
ATOM     17  N   UNL     1       6.501  13.548  23.698  0.00  0.00    +0.000 N 
ATOM     18  C   UNL     1       5.841  13.345  24.879  0.00  0.00    +0.000 C 
ATOM     19  O   UNL     1       4.920  14.080  25.225  0.00  0.00    +0.000 OA
ATOM     20  C   UNL     1       7.311  12.748  22.773  0.00  0.00    +0.000 C 
BRANCH  18  21
ATOM     21  C   UNL     1       6.274  12.229  25.759  0.00  0.00    +0.000 C 
ATOM     22  C   UNL     1       7.290  12.498  26.851  0.00  0.00    +0.000 C 
ATOM     23  C   UNL     1       5.866  12.192  27.213  0.00  0.00    +0.000 C 
ENDBRANCH  18  21
BRANCH  16  24
ATOM     24  C   UNL     1       4.783  14.125  22.035  0.00  0.00    +0.000 C 
ATOM     25  N   UNL     1       3.744  13.860  21.576  0.00  0.00    +0.000 NA
ENDBRANCH  16  24
BRANCH  20  26
ATOM     26  C   UNL     1       8.623  12.205  23.305  0.00  0.00    +0.000 C 
BRANCH  26  27
ATOM     27  O   UNL     1       8.543  10.787  23.426  0.00  0.00    +0.000 OA
ATOM     28  H   UNL     1       7.717  10.553  23.882  0.00  0.00    +0.000 HD
ENDBRANCH  26  27
ENDBRANCH  20  26
ENDBRANCH   6  15
TORSDOF 7
ENDMDL
MODEL 5
REMARK VINA RESULT:      -5.6      4.195      7.487
REMARK  Name = 
REMARK  8 active torsions:
REMARK  status: ('A' for Active; 'I' for Inactive)
REMARK    1  A    between atoms: C_1  and  O_2
REMARK    2  A    between atoms: O_2  and  C_3
REMARK    3  A    between atoms: C_8  and  C_9
REMARK    4  A    between atoms: C_14  and  C_15
REMARK    5  A    between atoms: C_16  and  C_17
REMARK    6  A    between atoms: C_20  and  C_22
REMARK    7  A    between atoms: C_25  and  C_26
REMARK    8  A    between atoms: C_26  and  O_27
REMARK                            x       y       z     vdW  Elec       q    Type
REMARK                         _______ _______ _______ _____ _____    ______ ____
ROOT
ATOM      1  C   UNL     1       0.224  11.412  18.597  0.00  0.00    +0.000 A 
ATOM      2  C   UNL     1      -1.076  11.922  18.341  0.00  0.00    +0.000 A 
ATOM      3  C   UNL     1      -2.112  11.153  17.811  0.00  0.00    +0.000 A 
ATOM      4  C   UNL     1      -1.877   9.838  17.479  0.00  0.00    +0.000 A 
ATOM      5  C   UNL     1      -0.622   9.287  17.728  0.00  0.00    +0.000 A 
ATOM      6  C   UNL     1       0.461  10.012  18.308  0.00  0.00    +0.000 A 
ENDROOT
BRANCH   1  12
ATOM      7  C   UNL     1       1.517  12.677  20.490  0.00  0.00    +0.000 A 
ATOM      8  C   UNL     1       2.586  13.509  20.875  0.00  0.00    +0.000 A 
ATOM      9  C   UNL     1       3.436  14.075  19.938  0.00  0.00    +0.000 A 
ATOM     10  C   UNL     1       3.185  13.858  18.592  0.00  0.00    +0.000 A 
ATOM     11  C   UNL     1       2.090  13.072  18.207  0.00  0.00    +0.000 A 
ATOM     12  C   UNL     1       1.281  12.367  19.121  0.00  0.00    +0.000 A 
BRANCH   7  14
ATOM     13  C   UNL     1      -0.307  12.998  21.948  0.00  0.00    +0.000 C 
ATOM     14  O   UNL     1       0.727  12.123  21.477  0.00  0.00    +0.000 OA
ENDBRANCH   7  14
ENDBRANCH   1  12
BRANCH   6  15
ATOM     15  C   UNL     1       1.869   9.197  18.620  0.00  0.00    +0.000 C 
ATOM     16  C   UNL     1       2.217   7.883  17.845  0.00  0.00    +0.000 C 
ATOM     17  N   UNL     1       1.789   7.184  19.064  0.00  0.00    +0.000 N 
ATOM     18  C   UNL     1       1.778   5.823  19.197  0.00  0.00    +0.000 C 
ATOM     19  O   UNL     1       1.960   5.089  18.230  0.00  0.00    +0.000 OA
ATOM     20  C   UNL     1       2.008   8.343  19.934  0.00  0.00    +0.000 C 
BRANCH  18  21
ATOM     21  C   UNL     1       1.514   5.237  20.537  0.00  0.00    +0.000 C 
ATOM     22  C   UNL     1       1.040   3.801  20.637  0.00  0.00    +0.000 C 
ATOM     23  C   UNL     1       2.419   4.167  21.102  0.00  0.00    +0.000 C 
ENDBRANCH  18  21
BRANCH  16  24
ATOM     24  C   UNL     1       3.639   7.714  17.531  0.00  0.00    +0.000 C 
ATOM     25  N   UNL     1       4.778   7.562  17.333  0.00  0.00    +0.000 NA
ENDBRANCH  16  24
BRANCH  20  26
ATOM     26  C   UNL     1       1.010   8.556  21.057  0.00  0.00    +0.000 C 
BRANCH  26  27
ATOM     27  O   UNL     1       1.581   9.401  22.053  0.00  0.00    +0.000 OA
ATOM     28  H   UNL     1       2.504   9.592  21.817  0.00  0.00    +0.000 HD
ENDBRANCH  26  27
ENDBRANCH  20  26
ENDBRANCH   6  15
TORSDOF 7
ENDMDL
MODEL 6
REMARK VINA RESULT:      -5.5      7.852     10.824
REMARK  Name = 
REMARK  8 active torsions:
REMARK  status: ('A' for Active; 'I' for Inactive)
REMARK    1  A    between atoms: C_1  and  O_2
REMARK    2  A    between atoms: O_2  and  C_3
REMARK    3  A    between atoms: C_8  and  C_9
REMARK    4  A    between atoms: C_14  and  C_15
REMARK    5  A    between atoms: C_16  and  C_17
REMARK    6  A    between atoms: C_20  and  C_22
REMARK    7  A    between atoms: C_25  and  C_26
REMARK    8  A    between atoms: C_26  and  O_27
REMARK                            x       y       z     vdW  Elec       q    Type
REMARK                         _______ _______ _______ _____ _____    ______ ____
ROOT
ATOM      1  C   UNL     1      -4.406  13.004  20.396  0.00  0.00    +0.000 A 
ATOM      2  C   UNL     1      -5.711  12.531  20.096  0.00  0.00    +0.000 A 
ATOM      3  C   UNL     1      -5.981  11.616  19.078  0.00  0.00    +0.000 A 
ATOM      4  C   UNL     1      -4.950  11.160  18.287  0.00  0.00    +0.000 A 
ATOM      5  C   UNL     1      -3.650  11.582  18.554  0.00  0.00    +0.000 A 
ATOM      6  C   UNL     1      -3.309  12.481  19.608  0.00  0.00    +0.000 A 
ENDROOT
BRANCH   1  12
ATOM      7  C   UNL     1      -4.387  13.807  22.888  0.00  0.00    +0.000 A 
ATOM      8  C   UNL     1      -4.132  14.826  23.827  0.00  0.00    +0.000 A 
ATOM      9  C   UNL     1      -3.763  16.101  23.430  0.00  0.00    +0.000 A 
ATOM     10  C   UNL     1      -3.701  16.386  22.074  0.00  0.00    +0.000 A 
ATOM     11  C   UNL     1      -4.004  15.386  21.140  0.00  0.00    +0.000 A 
ATOM     12  C   UNL     1      -4.252  14.044  21.491  0.00  0.00    +0.000 A 
BRANCH   7  14
ATOM     13  C   UNL     1      -4.439  12.357  24.746  0.00  0.00    +0.000 C 
ATOM     14  O   UNL     1      -4.722  12.553  23.354  0.00  0.00    +0.000 OA
ENDBRANCH   7  14
ENDBRANCH   1  12
BRANCH   6  15
ATOM     15  C   UNL     1      -1.707  12.825  19.853  0.00  0.00    +0.000 C 
ATOM     16  C   UNL     1      -0.611  12.231  18.907  0.00  0.00    +0.000 C 
ATOM     17  N   UNL     1      -0.355  11.274  19.991  0.00  0.00    +0.000 N 
ATOM     18  C   UNL     1       0.580  10.277  19.922  0.00  0.00    +0.000 C 
ATOM     19  O   UNL     1       1.144  10.008  18.866  0.00  0.00    +0.000 OA
ATOM     20  C   UNL     1      -0.926  12.135  21.032  0.00  0.00    +0.000 C 
BRANCH  18  21
ATOM     21  C   UNL     1       0.887   9.497  21.150  0.00  0.00    +0.000 C 
ATOM     22  C   UNL     1      -0.035   8.365  21.557  0.00  0.00    +0.000 C 
ATOM     23  C   UNL     1       1.346   8.061  21.055  0.00  0.00    +0.000 C 
ENDBRANCH  18  21
BRANCH  16  24
ATOM     24  C   UNL     1       0.513  13.130  18.630  0.00  0.00    +0.000 C 
ATOM     25  N   UNL     1       1.426  13.809  18.373  0.00  0.00    +0.000 NA
ENDBRANCH  16  24
BRANCH  20  26
ATOM     26  C   UNL     1      -1.714  11.449  22.132  0.00  0.00    +0.000 C 
BRANCH  26  27
ATOM     27  O   UNL     1      -1.008  11.555  23.366  0.00  0.00    +0.000 OA
ATOM     28  H   UNL     1      -0.638  10.686  23.596  0.00  0.00    +0.000 HD
ENDBRANCH  26  27
ENDBRANCH  20  26
ENDBRANCH   6  15
TORSDOF 7
ENDMDL
MODEL 7
REMARK VINA RESULT:      -5.5      7.249     10.321
REMARK  Name = 
REMARK  8 active torsions:
REMARK  status: ('A' for Active; 'I' for Inactive)
REMARK    1  A    between atoms: C_1  and  O_2
REMARK    2  A    between atoms: O_2  and  C_3
REMARK    3  A    between atoms: C_8  and  C_9
REMARK    4  A    between atoms: C_14  and  C_15
REMARK    5  A    between atoms: C_16  and  C_17
REMARK    6  A    between atoms: C_20  and  C_22
REMARK    7  A    between atoms: C_25  and  C_26
REMARK    8  A    between atoms: C_26  and  O_27
REMARK                            x       y       z     vdW  Elec       q    Type
REMARK                         _______ _______ _______ _____ _____    ______ ____
ROOT
ATOM      1  C   UNL     1      -1.605  10.523  18.778  0.00  0.00    +0.000 A 
ATOM      2  C   UNL     1      -2.528   9.932  17.874  0.00  0.00    +0.000 A 
ATOM      3  C   UNL     1      -3.789  10.465  17.607  0.00  0.00    +0.000 A 
ATOM      4  C   UNL     1      -4.196  11.604  18.266  0.00  0.00    +0.000 A 
ATOM      5  C   UNL     1      -3.319  12.229  19.149  0.00  0.00    +0.000 A 
ATOM      6  C   UNL     1      -2.003  11.755  19.429  0.00  0.00    +0.000 A 
ENDROOT
BRANCH   1  12
ATOM      7  C   UNL     1       0.147   9.277  20.272  0.00  0.00    +0.000 A 
ATOM      8  C   UNL     1       1.352   8.555  20.374  0.00  0.00    +0.000 A 
ATOM      9  C   UNL     1       2.173   8.357  19.275  0.00  0.00    +0.000 A 
ATOM     10  C   UNL     1       1.819   8.935  18.065  0.00  0.00    +0.000 A 
ATOM     11  C   UNL     1       0.645   9.697  17.976  0.00  0.00    +0.000 A 
ATOM     12  C   UNL     1      -0.286   9.813  19.027  0.00  0.00    +0.000 A 
BRANCH   7  14
ATOM     13  C   UNL     1       0.115   9.480  22.621  0.00  0.00    +0.000 C 
ATOM     14  O   UNL     1      -0.636   9.412  21.400  0.00  0.00    +0.000 OA
ENDBRANCH   7  14
ENDBRANCH   1  12
BRANCH   6  15
ATOM     15  C   UNL     1      -1.046  12.654  20.440  0.00  0.00    +0.000 C 
ATOM     16  C   UNL     1      -1.620  13.918  21.163  0.00  0.00    +0.000 C 
ATOM     17  N   UNL     1      -0.902  14.690  20.140  0.00  0.00    +0.000 N 
ATOM     18  C   UNL     1      -0.919  16.056  20.065  0.00  0.00    +0.000 C 
ATOM     19  O   UNL     1      -1.691  16.719  20.752  0.00  0.00    +0.000 OA
ATOM     20  C   UNL     1       0.047  13.614  19.840  0.00  0.00    +0.000 C 
BRANCH  18  21
ATOM     21  C   UNL     1      -0.001  16.733  19.113  0.00  0.00    +0.000 C 
ATOM     22  C   UNL     1      -0.544  17.234  17.790  0.00  0.00    +0.000 C 
ATOM     23  C   UNL     1      -0.123  18.214  18.846  0.00  0.00    +0.000 C 
ENDBRANCH  18  21
BRANCH  16  24
ATOM     24  C   UNL     1      -1.119  14.125  22.525  0.00  0.00    +0.000 C 
ATOM     25  N   UNL     1      -0.742  14.242  23.622  0.00  0.00    +0.000 NA
ENDBRANCH  16  24
BRANCH  20  26
ATOM     26  C   UNL     1       0.455  13.445  18.388  0.00  0.00    +0.000 C 
BRANCH  26  27
ATOM     27  O   UNL     1       1.852  13.172  18.311  0.00  0.00    +0.000 OA
ATOM     28  H   UNL     1       2.058  12.407  18.874  0.00  0.00    +0.000 HD
ENDBRANCH  26  27
ENDBRANCH  20  26
ENDBRANCH   6  15
TORSDOF 7
ENDMDL
MODEL 8
REMARK VINA RESULT:      -5.5      7.797     10.432
REMARK  Name = 
REMARK  8 active torsions:
REMARK  status: ('A' for Active; 'I' for Inactive)
REMARK    1  A    between atoms: C_1  and  O_2
REMARK    2  A    between atoms: O_2  and  C_3
REMARK    3  A    between atoms: C_8  and  C_9
REMARK    4  A    between atoms: C_14  and  C_15
REMARK    5  A    between atoms: C_16  and  C_17
REMARK    6  A    between atoms: C_20  and  C_22
REMARK    7  A    between atoms: C_25  and  C_26
REMARK    8  A    between atoms: C_26  and  O_27
REMARK                            x       y       z     vdW  Elec       q    Type
REMARK                         _______ _______ _______ _____ _____    ______ ____
ROOT
ATOM      1  C   UNL     1       0.034  11.684  19.923  0.00  0.00    +0.000 A 
ATOM      2  C   UNL     1       0.281  10.354  19.491  0.00  0.00    +0.000 A 
ATOM      3  C   UNL     1       1.296  10.014  18.597  0.00  0.00    +0.000 A 
ATOM      4  C   UNL     1       2.091  11.005  18.066  0.00  0.00    +0.000 A 
ATOM      5  C   UNL     1       1.898  12.323  18.473  0.00  0.00    +0.000 A 
ATOM      6  C   UNL     1       0.906  12.724  19.416  0.00  0.00    +0.000 A 
ENDROOT
BRANCH   1  12
ATOM      7  C   UNL     1      -1.170  11.645  22.248  0.00  0.00    +0.000 A 
ATOM      8  C   UNL     1      -2.280  11.999  23.040  0.00  0.00    +0.000 A 
ATOM      9  C   UNL     1      -3.392  12.620  22.492  0.00  0.00    +0.000 A 
ATOM     10  C   UNL     1      -3.426  12.841  21.124  0.00  0.00    +0.000 A 
ATOM     11  C   UNL     1      -2.343  12.442  20.328  0.00  0.00    +0.000 A 
ATOM     12  C   UNL     1      -1.139  11.932  20.854  0.00  0.00    +0.000 A 
BRANCH   7  14
ATOM     13  C   UNL     1      -0.270   9.662  23.152  0.00  0.00    +0.000 C 
ATOM     14  O   UNL     1      -0.085  11.055  22.863  0.00  0.00    +0.000 OA
ENDBRANCH   7  14
ENDBRANCH   1  12
BRANCH   6  15
ATOM     15  C   UNL     1       0.853  14.319  19.864  0.00  0.00    +0.000 C 
ATOM     16  C   UNL     1       1.070  15.450  18.805  0.00  0.00    +0.000 C 
ATOM     17  N   UNL     1       2.424  15.557  19.363  0.00  0.00    +0.000 N 
ATOM     18  C   UNL     1       3.371  16.431  18.902  0.00  0.00    +0.000 C 
ATOM     19  O   UNL     1       3.200  17.063  17.864  0.00  0.00    +0.000 OA
ATOM     20  C   UNL     1       2.059  14.955  20.649  0.00  0.00    +0.000 C 
BRANCH  18  21
ATOM     21  C   UNL     1       4.635  16.587  19.669  0.00  0.00    +0.000 C 
ATOM     22  C   UNL     1       5.800  15.664  19.371  0.00  0.00    +0.000 C 
ATOM     23  C   UNL     1       5.881  17.116  18.999  0.00  0.00    +0.000 C 
ENDBRANCH  18  21
BRANCH  16  24
ATOM     24  C   UNL     1       0.248  16.647  19.009  0.00  0.00    +0.000 C 
ATOM     25  N   UNL     1      -0.432  17.588  19.123  0.00  0.00    +0.000 NA
ENDBRANCH  16  24
BRANCH  20  26
ATOM     26  C   UNL     1       3.082  14.039  21.293  0.00  0.00    +0.000 C 
BRANCH  26  27
ATOM     27  O   UNL     1       3.468  14.564  22.559  0.00  0.00    +0.000 OA
ATOM     28  H   UNL     1       3.281  13.904  23.248  0.00  0.00    +0.000 HD
ENDBRANCH  26  27
ENDBRANCH  20  26
ENDBRANCH   6  15
TORSDOF 7
ENDMDL
MODEL 9
REMARK VINA RESULT:      -5.5      8.593     10.910
REMARK  Name = 
REMARK  8 active torsions:
REMARK  status: ('A' for Active; 'I' for Inactive)
REMARK    1  A    between atoms: C_1  and  O_2
REMARK    2  A    between atoms: O_2  and  C_3
REMARK    3  A    between atoms: C_8  and  C_9
REMARK    4  A    between atoms: C_14  and  C_15
REMARK    5  A    between atoms: C_16  and  C_17
REMARK    6  A    between atoms: C_20  and  C_22
REMARK    7  A    between atoms: C_25  and  C_26
REMARK    8  A    between atoms: C_26  and  O_27
REMARK                            x       y       z     vdW  Elec       q    Type
REMARK                         _______ _______ _______ _____ _____    ______ ____
ROOT
ATOM      1  C   UNL     1      -4.478  13.725  20.550  0.00  0.00    +0.000 A 
ATOM      2  C   UNL     1      -5.099  15.000  20.618  0.00  0.00    +0.000 A 
ATOM      3  C   UNL     1      -4.471  16.134  21.134  0.00  0.00    +0.000 A 
ATOM      4  C   UNL     1      -3.195  16.029  21.641  0.00  0.00    +0.000 A 
ATOM      5  C   UNL     1      -2.538  14.803  21.581  0.00  0.00    +0.000 A 
ATOM      6  C   UNL     1      -3.113  13.621  21.026  0.00  0.00    +0.000 A 
ENDROOT
BRANCH   1  12
ATOM      7  C   UNL     1      -6.261  11.819  20.752  0.00  0.00    +0.000 A 
ATOM      8  C   UNL     1      -7.024  10.808  20.136  0.00  0.00    +0.000 A 
ATOM      9  C   UNL     1      -6.843  10.476  18.802  0.00  0.00    +0.000 A 
ATOM     10  C   UNL     1      -5.849  11.121  18.083  0.00  0.00    +0.000 A 
ATOM     11  C   UNL     1      -5.055  12.091  18.710  0.00  0.00    +0.000 A 
ATOM     12  C   UNL     1      -5.288  12.556  20.020  0.00  0.00    +0.000 A 
BRANCH   7  14
ATOM     13  C   UNL     1      -7.892  11.994  22.445  0.00  0.00    +0.000 C 
ATOM     14  O   UNL     1      -6.512  12.117  22.075  0.00  0.00    +0.000 OA
ENDBRANCH   7  14
ENDBRANCH   1  12
BRANCH   6  15
ATOM     15  C   UNL     1      -2.175  12.257  20.950  0.00  0.00    +0.000 C 
ATOM     16  C   UNL     1      -0.840  12.163  21.760  0.00  0.00    +0.000 C 
ATOM     17  N   UNL     1      -0.175  12.437  20.480  0.00  0.00    +0.000 N 
ATOM     18  C   UNL     1       1.181  12.544  20.333  0.00  0.00    +0.000 C 
ATOM     19  O   UNL     1       1.923  12.594  21.310  0.00  0.00    +0.000 OA
ATOM     20  C   UNL     1      -1.305  11.972  19.670  0.00  0.00    +0.000 C 
BRANCH  18  21
ATOM     21  C   UNL     1       1.749  12.627  18.962  0.00  0.00    +0.000 C 
ATOM     22  C   UNL     1       1.812  13.972  18.267  0.00  0.00    +0.000 C 
ATOM     23  C   UNL     1       3.078  13.303  18.718  0.00  0.00    +0.000 C 
ENDBRANCH  18  21
BRANCH  16  24
ATOM     24  C   UNL     1      -0.548  10.836  22.309  0.00  0.00    +0.000 C 
ATOM     25  N   UNL     1      -0.321   9.800  22.797  0.00  0.00    +0.000 NA
ENDBRANCH  16  24
BRANCH  20  26
ATOM     26  C   UNL     1      -1.599  12.742  18.396  0.00  0.00    +0.000 C 
BRANCH  26  27
ATOM     27  O   UNL     1      -1.424  11.888  17.268  0.00  0.00    +0.000 OA
ATOM     28  H   UNL     1      -1.359  12.432  16.465  0.00  0.00    +0.000 HD
ENDBRANCH  26  27
ENDBRANCH  20  26
ENDBRANCH   6  15
TORSDOF 7
ENDMDL
