MODEL 1
REMARK VINA RESULT:      -8.9      0.000      0.000
REMARK  Name = 
REMARK  7 active torsions:
REMARK  status: ('A' for Active; 'I' for Inactive)
REMARK    1  A    between atoms: C_1  and  O_2
REMARK    2  A    between atoms: O_2  and  C_3
REMARK    3  A    between atoms: C_6  and  N_7
REMARK    4  A    between atoms: C_8  and  C_10
REMARK    5  A    between atoms: N_13  and  S_14
REMARK    6  A    between atoms: S_14  and  C_17
REMARK    7  A    between atoms: C_22  and  C_23
REMARK                            x       y       z     vdW  Elec       q    Type
REMARK                         _______ _______ _______ _____ _____    ______ ____
ROOT
ATOM      1  C   UNL     1       7.524   6.314  17.717  0.00  0.00    +0.000 C 
ATOM      2  C   UNL     1       7.232   5.727  19.104  0.00  0.00    +0.000 C 
ATOM      3  C   UNL     1       5.794   5.220  19.225  0.00  0.00    +0.000 C 
ATOM      4  N   UNL     1       4.817   6.301  18.888  0.00  0.00    +0.000 NA
ATOM      5  C   UNL     1       5.074   6.915  17.550  0.00  0.00    +0.000 C 
ATOM      6  C   UNL     1       6.508   7.425  17.445  0.00  0.00    +0.000 C 
ENDROOT
BRANCH   1   8
ATOM      7  N   UNL     1       6.969   5.650  15.435  0.00  0.00    +0.000 N 
ATOM      8  C   UNL     1       7.524   5.228  16.629  0.00  0.00    +0.000 C 
ATOM      9  O   UNL     1       8.005   4.119  16.833  0.00  0.00    +0.000 OA
ATOM     10  H   UNL     1       6.738   6.633  15.354  0.00  0.00    +0.000 HD
BRANCH   7  14
ATOM     11  C   UNL     1       6.104   3.245  12.148  0.00  0.00    +0.000 A 
ATOM     12  C   UNL     1       7.244   4.028  12.073  0.00  0.00    +0.000 A 
ATOM     13  C   UNL     1       7.567   4.847  13.158  0.00  0.00    +0.000 A 
ATOM     14  C   UNL     1       6.743   4.866  14.281  0.00  0.00    +0.000 A 
ATOM     15  C   UNL     1       5.626   4.029  14.253  0.00  0.00    +0.000 A 
ATOM     16  N   UNL     1       5.286   3.222  13.220  0.00  0.00    +0.000 NA
BRANCH  11  18
ATOM     17  C   UNL     1       6.413   1.178  11.103  0.00  0.00    +0.000 C 
ATOM     18  O   UNL     1       5.815   2.469  11.044  0.00  0.00    +0.000 OA
ENDBRANCH  11  18
ENDBRANCH   7  14
ENDBRANCH   1   8
BRANCH   4  19
ATOM     19  S   UNL     1       3.169   5.787  19.015  0.00  0.00    +0.000 S 
ATOM     20  O   UNL     1       2.793   5.173  17.759  0.00  0.00    +0.000 OA
ATOM     21  O   UNL     1       3.025   5.082  20.267  0.00  0.00    +0.000 OA
BRANCH  19  22
ATOM     22  C   UNL     1       2.268   7.314  19.123  0.00  0.00    +0.000 A 
ATOM     23  C   UNL     1       2.119   8.120  17.997  0.00  0.00    +0.000 A 
ATOM     24  C   UNL     1       1.449   9.337  18.118  0.00  0.00    +0.000 A 
ATOM     25  C   UNL     1       0.914   9.746  19.350  0.00  0.00    +0.000 A 
ATOM     26 CL   UNL     1       0.132  11.282  19.369  0.00  0.00    +0.000 Cl
ATOM     27  C   UNL     1       1.032   8.928  20.483  0.00  0.00    +0.000 A 
ATOM     28  C   UNL     1       1.740   7.710  20.356  0.00  0.00    +0.000 A 
BRANCH  27  29
ATOM     29  C   UNL     1       0.437   9.243  21.832  0.00  0.00    +0.000 C 
ATOM     30  F   UNL     1       1.256   9.115  22.905  0.00  0.00    +0.000 F 
ATOM     31  F   UNL     1      -0.018  10.531  21.879  0.00  0.00    +0.000 F 
ATOM     32  F   UNL     1      -0.651   8.468  22.103  0.00  0.00    +0.000 F 
ENDBRANCH  27  29
ENDBRANCH  19  22
ENDBRANCH   4  19
TORSDOF 6
ENDMDL
MODEL 2
REMARK VINA RESULT:      -8.7      0.520      1.110
REMARK  Name = 
REMARK  7 active torsions:
REMARK  status: ('A' for Active; 'I' for Inactive)
REMARK    1  A    between atoms: C_1  and  O_2
REMARK    2  A    between atoms: O_2  and  C_3
REMARK    3  A    between atoms: C_6  and  N_7
REMARK    4  A    between atoms: C_8  and  C_10
REMARK    5  A    between atoms: N_13  and  S_14
REMARK    6  A    between atoms: S_14  and  C_17
REMARK    7  A    between atoms: C_22  and  C_23
REMARK                            x       y       z     vdW  Elec       q    Type
REMARK                         _______ _______ _______ _____ _____    ______ ____
ROOT
ATOM      1  C   UNL     1       7.481   6.316  17.692  0.00  0.00    +0.000 C 
ATOM      2  C   UNL     1       7.183   5.755  19.088  0.00  0.00    +0.000 C 
ATOM      3  C   UNL     1       5.740   5.264  19.216  0.00  0.00    +0.000 C 
ATOM      4  N   UNL     1       4.774   6.349  18.862  0.00  0.00    +0.000 NA
ATOM      5  C   UNL     1       5.038   6.939  17.515  0.00  0.00    +0.000 C 
ATOM      6  C   UNL     1       6.477   7.433  17.402  0.00  0.00    +0.000 C 
ENDROOT
BRANCH   1   8
ATOM      7  N   UNL     1       6.848   5.596  15.448  0.00  0.00    +0.000 N 
ATOM      8  C   UNL     1       7.471   5.214  16.621  0.00  0.00    +0.000 C 
ATOM      9  O   UNL     1       8.000   4.125  16.820  0.00  0.00    +0.000 OA
ATOM     10  H   UNL     1       6.578   6.569  15.363  0.00  0.00    +0.000 HD
BRANCH   7  14
ATOM     11  C   UNL     1       6.316   3.306  12.012  0.00  0.00    +0.000 A 
ATOM     12  C   UNL     1       5.355   3.189  13.002  0.00  0.00    +0.000 A 
ATOM     13  C   UNL     1       5.500   3.943  14.169  0.00  0.00    +0.000 A 
ATOM     14  C   UNL     1       6.598   4.786  14.317  0.00  0.00    +0.000 A 
ATOM     15  C   UNL     1       7.499   4.834  13.251  0.00  0.00    +0.000 A 
ATOM     16  N   UNL     1       7.387   4.119  12.107  0.00  0.00    +0.000 NA
BRANCH  11  18
ATOM     17  C   UNL     1       6.379   1.142  11.130  0.00  0.00    +0.000 C 
ATOM     18  O   UNL     1       6.141   2.525  10.887  0.00  0.00    +0.000 OA
ENDBRANCH  11  18
ENDBRANCH   7  14
ENDBRANCH   1   8
BRANCH   4  19
ATOM     19  S   UNL     1       3.121   5.854  18.996  0.00  0.00    +0.000 S 
ATOM     20  O   UNL     1       2.730   5.253  17.739  0.00  0.00    +0.000 OA
ATOM     21  O   UNL     1       2.977   5.142  20.245  0.00  0.00    +0.000 OA
BRANCH  19  22
ATOM     22  C   UNL     1       2.239   7.390  19.120  0.00  0.00    +0.000 A 
ATOM     23  C   UNL     1       2.148   8.236  18.018  0.00  0.00    +0.000 A 
ATOM     24  C   UNL     1       1.492   9.459  18.154  0.00  0.00    +0.000 A 
ATOM     25  C   UNL     1       0.912   9.834  19.377  0.00  0.00    +0.000 A 
ATOM     26 CL   UNL     1       0.153  11.382  19.418  0.00  0.00    +0.000 Cl
ATOM     27  C   UNL     1       0.972   8.977  20.484  0.00  0.00    +0.000 A 
ATOM     28  C   UNL     1       1.666   7.753  20.344  0.00  0.00    +0.000 A 
BRANCH  27  29
ATOM     29  C   UNL     1       0.326   9.255  21.818  0.00  0.00    +0.000 C 
ATOM     30  F   UNL     1      -0.296  10.452  21.957  0.00  0.00    +0.000 F 
ATOM     31  F   UNL     1      -0.628   8.320  22.106  0.00  0.00    +0.000 F 
ATOM     32  F   UNL     1       1.221   9.183  22.844  0.00  0.00    +0.000 F 
ENDBRANCH  27  29
ENDBRANCH  19  22
ENDBRANCH   4  19
TORSDOF 6
ENDMDL
MODEL 3
REMARK VINA RESULT:      -8.7      1.465      1.940
REMARK  Name = 
REMARK  7 active torsions:
REMARK  status: ('A' for Active; 'I' for Inactive)
REMARK    1  A    between atoms: C_1  and  O_2
REMARK    2  A    between atoms: O_2  and  C_3
REMARK    3  A    between atoms: C_6  and  N_7
REMARK    4  A    between atoms: C_8  and  C_10
REMARK    5  A    between atoms: N_13  and  S_14
REMARK    6  A    between atoms: S_14  and  C_17
REMARK    7  A    between atoms: C_22  and  C_23
REMARK                            x       y       z     vdW  Elec       q    Type
REMARK                         _______ _______ _______ _____ _____    ______ ____
ROOT
ATOM      1  C   UNL     1       7.431   6.339  17.650  0.00  0.00    +0.000 C 
ATOM      2  C   UNL     1       7.214   5.744  19.047  0.00  0.00    +0.000 C 
ATOM      3  C   UNL     1       5.817   5.143  19.208  0.00  0.00    +0.000 C 
ATOM      4  N   UNL     1       4.762   6.155  18.891  0.00  0.00    +0.000 NA
ATOM      5  C   UNL     1       4.944   6.776  17.544  0.00  0.00    +0.000 C 
ATOM      6  C   UNL     1       6.338   7.379  17.399  0.00  0.00    +0.000 C 
ENDROOT
BRANCH   1   8
ATOM      7  N   UNL     1       6.924   5.649  15.365  0.00  0.00    +0.000 N 
ATOM      8  C   UNL     1       7.476   5.249  16.568  0.00  0.00    +0.000 C 
ATOM      9  O   UNL     1       7.986   4.155  16.784  0.00  0.00    +0.000 OA
ATOM     10  H   UNL     1       6.666   6.624  15.276  0.00  0.00    +0.000 HD
BRANCH   7  14
ATOM     11  C   UNL     1       6.173   3.200  12.083  0.00  0.00    +0.000 A 
ATOM     12  C   UNL     1       7.271   4.039  12.004  0.00  0.00    +0.000 A 
ATOM     13  C   UNL     1       7.555   4.875  13.087  0.00  0.00    +0.000 A 
ATOM     14  C   UNL     1       6.735   4.853  14.212  0.00  0.00    +0.000 A 
ATOM     15  C   UNL     1       5.662   3.960  14.188  0.00  0.00    +0.000 A 
ATOM     16  N   UNL     1       5.361   3.137  13.157  0.00  0.00    +0.000 NA
BRANCH  11  18
ATOM     17  C   UNL     1       6.407   1.079  11.130  0.00  0.00    +0.000 C 
ATOM     18  O   UNL     1       5.920   2.409  10.980  0.00  0.00    +0.000 OA
ENDBRANCH  11  18
ENDBRANCH   7  14
ENDBRANCH   1   8
BRANCH   4  19
ATOM     19  S   UNL     1       3.156   5.534  19.063  0.00  0.00    +0.000 S 
ATOM     20  O   UNL     1       2.633   5.271  17.739  0.00  0.00    +0.000 OA
ATOM     21  O   UNL     1       3.190   4.503  20.074  0.00  0.00    +0.000 OA
BRANCH  19  22
ATOM     22  C   UNL     1       2.245   6.918  19.702  0.00  0.00    +0.000 A 
ATOM     23  C   UNL     1       1.660   6.848  20.964  0.00  0.00    +0.000 A 
ATOM     24  C   UNL     1       0.908   7.929  21.424  0.00  0.00    +0.000 A 
ATOM     25  C   UNL     1       0.751   9.083  20.640  0.00  0.00    +0.000 A 
ATOM     26 CL   UNL     1      -0.223  10.336  21.315  0.00  0.00    +0.000 Cl
ATOM     27  C   UNL     1       1.360   9.175  19.381  0.00  0.00    +0.000 A 
ATOM     28  C   UNL     1       2.094   8.062  18.911  0.00  0.00    +0.000 A 
BRANCH  27  29
ATOM     29  C   UNL     1       1.308  10.392  18.492  0.00  0.00    +0.000 C 
ATOM     30  F   UNL     1       1.696  11.568  19.045  0.00  0.00    +0.000 F 
ATOM     31  F   UNL     1       2.106  10.233  17.394  0.00  0.00    +0.000 F 
ATOM     32  F   UNL     1       0.057  10.611  17.998  0.00  0.00    +0.000 F 
ENDBRANCH  27  29
ENDBRANCH  19  22
ENDBRANCH   4  19
TORSDOF 6
ENDMDL
MODEL 4
REMARK VINA RESULT:      -8.3      1.548      2.159
REMARK  Name = 
REMARK  7 active torsions:
REMARK  status: ('A' for Active; 'I' for Inactive)
REMARK    1  A    between atoms: C_1  and  O_2
REMARK    2  A    between atoms: O_2  and  C_3
REMARK    3  A    between atoms: C_6  and  N_7
REMARK    4  A    between atoms: C_8  and  C_10
REMARK    5  A    between atoms: N_13  and  S_14
REMARK    6  A    between atoms: S_14  and  C_17
REMARK    7  A    between atoms: C_22  and  C_23
REMARK                            x       y       z     vdW  Elec       q    Type
REMARK                         _______ _______ _______ _____ _____    ______ ____
ROOT
ATOM      1  C   UNL     1       7.371   6.325  17.679  0.00  0.00    +0.000 C 
ATOM      2  C   UNL     1       7.148   5.735  19.077  0.00  0.00    +0.000 C 
ATOM      3  C   UNL     1       5.744   5.151  19.239  0.00  0.00    +0.000 C 
ATOM      4  N   UNL     1       4.701   6.174  18.920  0.00  0.00    +0.000 NA
ATOM      5  C   UNL     1       4.889   6.789  17.572  0.00  0.00    +0.000 C 
ATOM      6  C   UNL     1       6.289   7.376  17.425  0.00  0.00    +0.000 C 
ENDROOT
BRANCH   1   8
ATOM      7  N   UNL     1       6.755   5.594  15.433  0.00  0.00    +0.000 N 
ATOM      8  C   UNL     1       7.403   5.231  16.599  0.00  0.00    +0.000 C 
ATOM      9  O   UNL     1       7.982   4.166  16.785  0.00  0.00    +0.000 OA
ATOM     10  H   UNL     1       6.441   6.554  15.358  0.00  0.00    +0.000 HD
BRANCH   7  14
ATOM     11  C   UNL     1       6.312   3.297  11.989  0.00  0.00    +0.000 A 
ATOM     12  C   UNL     1       5.322   3.187  12.951  0.00  0.00    +0.000 A 
ATOM     13  C   UNL     1       5.436   3.944  14.120  0.00  0.00    +0.000 A 
ATOM     14  C   UNL     1       6.534   4.782  14.297  0.00  0.00    +0.000 A 
ATOM     15  C   UNL     1       7.465   4.823  13.258  0.00  0.00    +0.000 A 
ATOM     16  N   UNL     1       7.383   4.106  12.113  0.00  0.00    +0.000 NA
BRANCH  11  18
ATOM     17  C   UNL     1       6.534   1.156  11.079  0.00  0.00    +0.000 C 
ATOM     18  O   UNL     1       6.166   2.514  10.862  0.00  0.00    +0.000 OA
ENDBRANCH  11  18
ENDBRANCH   7  14
ENDBRANCH   1   8
BRANCH   4  19
ATOM     19  S   UNL     1       3.087   5.572  19.094  0.00  0.00    +0.000 S 
ATOM     20  O   UNL     1       2.562   5.309  17.771  0.00  0.00    +0.000 OA
ATOM     21  O   UNL     1       3.110   4.544  20.109  0.00  0.00    +0.000 OA
BRANCH  19  22
ATOM     22  C   UNL     1       2.191   6.968  19.728  0.00  0.00    +0.000 A 
ATOM     23  C   UNL     1       1.601   6.908  20.988  0.00  0.00    +0.000 A 
ATOM     24  C   UNL     1       0.861   7.999  21.443  0.00  0.00    +0.000 A 
ATOM     25  C   UNL     1       0.722   9.154  20.657  0.00  0.00    +0.000 A 
ATOM     26 CL   UNL     1      -0.238  10.420  21.326  0.00  0.00    +0.000 Cl
ATOM     27  C   UNL     1       1.337   9.236  19.400  0.00  0.00    +0.000 A 
ATOM     28  C   UNL     1       2.059   8.113  18.935  0.00  0.00    +0.000 A 
BRANCH  27  29
ATOM     29  C   UNL     1       1.305  10.453  18.509  0.00  0.00    +0.000 C 
ATOM     30  F   UNL     1       0.087  10.850  18.063  0.00  0.00    +0.000 F 
ATOM     31  F   UNL     1       1.826  11.543  19.148  0.00  0.00    +0.000 F 
ATOM     32  F   UNL     1       2.072  10.289  17.394  0.00  0.00    +0.000 F 
ENDBRANCH  27  29
ENDBRANCH  19  22
ENDBRANCH   4  19
TORSDOF 6
ENDMDL
MODEL 5
REMARK VINA RESULT:      -8.0      6.239     11.283
REMARK  Name = 
REMARK  7 active torsions:
REMARK  status: ('A' for Active; 'I' for Inactive)
REMARK    1  A    between atoms: C_1  and  O_2
REMARK    2  A    between atoms: O_2  and  C_3
REMARK    3  A    between atoms: C_6  and  N_7
REMARK    4  A    between atoms: C_8  and  C_10
REMARK    5  A    between atoms: N_13  and  S_14
REMARK    6  A    between atoms: S_14  and  C_17
REMARK    7  A    between atoms: C_22  and  C_23
REMARK                            x       y       z     vdW  Elec       q    Type
REMARK                         _______ _______ _______ _____ _____    ______ ____
ROOT
ATOM      1  C   UNL     1      -0.389  12.655  19.092  0.00  0.00    +0.000 C 
ATOM      2  C   UNL     1      -0.879  11.316  18.526  0.00  0.00    +0.000 C 
ATOM      3  C   UNL     1      -0.762  10.182  19.547  0.00  0.00    +0.000 C 
ATOM      4  N   UNL     1       0.639  10.065  20.055  0.00  0.00    +0.000 NA
ATOM      5  C   UNL     1       1.165  11.353  20.600  0.00  0.00    +0.000 C 
ATOM      6  C   UNL     1       1.052  12.473  19.571  0.00  0.00    +0.000 C 
ENDROOT
BRANCH   1   8
ATOM      7  N   UNL     1      -2.532  12.517  20.252  0.00  0.00    +0.000 N 
ATOM      8  C   UNL     1      -1.322  13.182  20.194  0.00  0.00    +0.000 C 
ATOM      9  O   UNL     1      -0.975  14.087  20.945  0.00  0.00    +0.000 OA
ATOM     10  H   UNL     1      -2.637  11.696  19.668  0.00  0.00    +0.000 HD
BRANCH   7  14
ATOM     11  C   UNL     1      -5.643  13.303  22.905  0.00  0.00    +0.000 A 
ATOM     12  C   UNL     1      -5.814  13.715  21.594  0.00  0.00    +0.000 A 
ATOM     13  C   UNL     1      -4.791  13.467  20.675  0.00  0.00    +0.000 A 
ATOM     14  C   UNL     1      -3.629  12.822  21.089  0.00  0.00    +0.000 A 
ATOM     15  C   UNL     1      -3.568  12.441  22.431  0.00  0.00    +0.000 A 
ATOM     16  N   UNL     1      -4.541  12.663  23.346  0.00  0.00    +0.000 NA
BRANCH  11  18
ATOM     17  C   UNL     1      -7.780  12.705  23.639  0.00  0.00    +0.000 C 
ATOM     18  O   UNL     1      -6.671  13.588  23.780  0.00  0.00    +0.000 OA
ENDBRANCH  11  18
ENDBRANCH   7  14
ENDBRANCH   1   8
BRANCH   4  19
ATOM     19  S   UNL     1       0.835   8.790  21.210  0.00  0.00    +0.000 S 
ATOM     20  O   UNL     1       1.790   9.231  22.206  0.00  0.00    +0.000 OA
ATOM     21  O   UNL     1      -0.482   8.332  21.585  0.00  0.00    +0.000 OA
BRANCH  19  22
ATOM     22  C   UNL     1       1.633   7.506  20.277  0.00  0.00    +0.000 A 
ATOM     23  C   UNL     1       2.247   7.802  19.063  0.00  0.00    +0.000 A 
ATOM     24  C   UNL     1       2.823   6.768  18.324  0.00  0.00    +0.000 A 
ATOM     25  C   UNL     1       2.805   5.447  18.799  0.00  0.00    +0.000 A 
ATOM     26 CL   UNL     1       3.530   4.261  17.779  0.00  0.00    +0.000 Cl
ATOM     27  C   UNL     1       2.215   5.143  20.034  0.00  0.00    +0.000 A 
ATOM     28  C   UNL     1       1.607   6.194  20.760  0.00  0.00    +0.000 A 
BRANCH  27  29
ATOM     29  C   UNL     1       2.201   3.773  20.662  0.00  0.00    +0.000 C 
ATOM     30  F   UNL     1       1.321   2.876  20.152  0.00  0.00    +0.000 F 
ATOM     31  F   UNL     1       3.425   3.173  20.558  0.00  0.00    +0.000 F 
ATOM     32  F   UNL     1       1.940   3.826  21.999  0.00  0.00    +0.000 F 
ENDBRANCH  27  29
ENDBRANCH  19  22
ENDBRANCH   4  19
TORSDOF 6
ENDMDL
MODEL 6
REMARK VINA RESULT:      -7.9      6.267     11.339
REMARK  Name = 
REMARK  7 active torsions:
REMARK  status: ('A' for Active; 'I' for Inactive)
REMARK    1  A    between atoms: C_1  and  O_2
REMARK    2  A    between atoms: O_2  and  C_3
REMARK    3  A    between atoms: C_6  and  N_7
REMARK    4  A    between atoms: C_8  and  C_10
REMARK    5  A    between atoms: N_13  and  S_14
REMARK    6  A    between atoms: S_14  and  C_17
REMARK    7  A    between atoms: C_22  and  C_23
REMARK                            x       y       z     vdW  Elec       q    Type
REMARK                         _______ _______ _______ _____ _____    ______ ____
ROOT
ATOM      1  C   UNL     1      -0.859  12.402  18.904  0.00  0.00    +0.000 C 
ATOM      2  C   UNL     1      -0.278  11.198  18.151  0.00  0.00    +0.000 C 
ATOM      3  C   UNL     1      -0.167   9.960  19.043  0.00  0.00    +0.000 C 
ATOM      4  N   UNL     1       0.633  10.256  20.270  0.00  0.00    +0.000 NA
ATOM      5  C   UNL     1       0.115  11.436  21.026  0.00  0.00    +0.000 C 
ATOM      6  C   UNL     1       0.017  12.666  20.130  0.00  0.00    +0.000 C 
ENDROOT
BRANCH   1   8
ATOM      7  N   UNL     1      -2.779  13.020  20.277  0.00  0.00    +0.000 N 
ATOM      8  C   UNL     1      -2.338  12.190  19.263  0.00  0.00    +0.000 C 
ATOM      9  O   UNL     1      -3.030  11.373  18.665  0.00  0.00    +0.000 OA
ATOM     10  H   UNL     1      -2.146  13.746  20.589  0.00  0.00    +0.000 HD
BRANCH   7  14
ATOM     11  C   UNL     1      -6.419  12.911  22.295  0.00  0.00    +0.000 A 
ATOM     12  C   UNL     1      -6.455  13.227  20.948  0.00  0.00    +0.000 A 
ATOM     13  C   UNL     1      -5.253  13.271  20.237  0.00  0.00    +0.000 A 
ATOM     14  C   UNL     1      -4.053  13.006  20.890  0.00  0.00    +0.000 A 
ATOM     15  C   UNL     1      -4.134  12.688  22.247  0.00  0.00    +0.000 A 
ATOM     16  N   UNL     1      -5.281  12.634  22.964  0.00  0.00    +0.000 NA
BRANCH  11  18
ATOM     17  C   UNL     1      -7.556  13.488  24.254  0.00  0.00    +0.000 C 
ATOM     18  O   UNL     1      -7.629  12.900  22.959  0.00  0.00    +0.000 OA
ENDBRANCH  11  18
ENDBRANCH   7  14
ENDBRANCH   1   8
BRANCH   4  19
ATOM     19  S   UNL     1       0.801   8.888  21.316  0.00  0.00    +0.000 S 
ATOM     20  O   UNL     1       1.741   9.234  22.360  0.00  0.00    +0.000 OA
ATOM     21  O   UNL     1      -0.526   8.411  21.630  0.00  0.00    +0.000 OA
BRANCH  19  22
ATOM     22  C   UNL     1       1.604   7.679  20.291  0.00  0.00    +0.000 A 
ATOM     23  C   UNL     1       2.248   8.072  19.120  0.00  0.00    +0.000 A 
ATOM     24  C   UNL     1       2.828   7.098  18.307  0.00  0.00    +0.000 A 
ATOM     25  C   UNL     1       2.785   5.742  18.663  0.00  0.00    +0.000 A 
ATOM     26 CL   UNL     1       3.518   4.639  17.559  0.00  0.00    +0.000 Cl
ATOM     27  C   UNL     1       2.165   5.339  19.855  0.00  0.00    +0.000 A 
ATOM     28  C   UNL     1       1.552   6.330  20.657  0.00  0.00    +0.000 A 
BRANCH  27  29
ATOM     29  C   UNL     1       2.122   3.919  20.360  0.00  0.00    +0.000 C 
ATOM     30  F   UNL     1       1.483   3.013  19.580  0.00  0.00    +0.000 F 
ATOM     31  F   UNL     1       3.383   3.420  20.530  0.00  0.00    +0.000 F 
ATOM     32  F   UNL     1       1.533   3.831  21.587  0.00  0.00    +0.000 F 
ENDBRANCH  27  29
ENDBRANCH  19  22
ENDBRANCH   4  19
TORSDOF 6
ENDMDL
MODEL 7
REMARK VINA RESULT:      -7.9      6.443     11.464
REMARK  Name = 
REMARK  7 active torsions:
REMARK  status: ('A' for Active; 'I' for Inactive)
REMARK    1  A    between atoms: C_1  and  O_2
REMARK    2  A    between atoms: O_2  and  C_3
REMARK    3  A    between atoms: C_6  and  N_7
REMARK    4  A    between atoms: C_8  and  C_10
REMARK    5  A    between atoms: N_13  and  S_14
REMARK    6  A    between atoms: S_14  and  C_17
REMARK    7  A    between atoms: C_22  and  C_23
REMARK                            x       y       z     vdW  Elec       q    Type
REMARK                         _______ _______ _______ _____ _____    ______ ____
ROOT
ATOM      1  C   UNL     1      -0.761  12.597  19.192  0.00  0.00    +0.000 C 
ATOM      2  C   UNL     1      -1.035  11.224  18.563  0.00  0.00    +0.000 C 
ATOM      3  C   UNL     1      -0.832  10.082  19.560  0.00  0.00    +0.000 C 
ATOM      4  N   UNL     1       0.539  10.131  20.155  0.00  0.00    +0.000 NA
ATOM      5  C   UNL     1       0.857  11.458  20.765  0.00  0.00    +0.000 C 
ATOM      6  C   UNL     1       0.660  12.588  19.759  0.00  0.00    +0.000 C 
ENDROOT
BRANCH   1   8
ATOM      7  N   UNL     1      -3.117  12.789  19.799  0.00  0.00    +0.000 N 
ATOM      8  C   UNL     1      -1.820  12.961  20.245  0.00  0.00    +0.000 C 
ATOM      9  O   UNL     1      -1.502  13.337  21.368  0.00  0.00    +0.000 OA
ATOM     10  H   UNL     1      -3.241  12.339  18.900  0.00  0.00    +0.000 HD
BRANCH   7  14
ATOM     11  C   UNL     1      -6.714  13.555  21.751  0.00  0.00    +0.000 A 
ATOM     12  C   UNL     1      -5.710  14.498  21.888  0.00  0.00    +0.000 A 
ATOM     13  C   UNL     1      -4.489  14.276  21.246  0.00  0.00    +0.000 A 
ATOM     14  C   UNL     1      -4.304  13.120  20.492  0.00  0.00    +0.000 A 
ATOM     15  C   UNL     1      -5.387  12.243  20.413  0.00  0.00    +0.000 A 
ATOM     16  N   UNL     1      -6.583  12.430  21.020  0.00  0.00    +0.000 NA
BRANCH  11  18
ATOM     17  C   UNL     1      -7.688  14.296  23.742  0.00  0.00    +0.000 C 
ATOM     18  O   UNL     1      -7.895  13.809  22.420  0.00  0.00    +0.000 OA
ENDBRANCH  11  18
ENDBRANCH   7  14
ENDBRANCH   1   8
BRANCH   4  19
ATOM     19  S   UNL     1       0.831   8.855  21.288  0.00  0.00    +0.000 S 
ATOM     20  O   UNL     1       1.819   9.318  22.239  0.00  0.00    +0.000 OA
ATOM     21  O   UNL     1      -0.452   8.354  21.724  0.00  0.00    +0.000 OA
BRANCH  19  22
ATOM     22  C   UNL     1       1.619   7.603  20.306  0.00  0.00    +0.000 A 
ATOM     23  C   UNL     1       2.209   7.936  19.089  0.00  0.00    +0.000 A 
ATOM     24  C   UNL     1       2.778   6.927  18.312  0.00  0.00    +0.000 A 
ATOM     25  C   UNL     1       2.778   5.593  18.751  0.00  0.00    +0.000 A 
ATOM     26 CL   UNL     1       3.493   4.441  17.686  0.00  0.00    +0.000 Cl
ATOM     27  C   UNL     1       2.214   5.252  19.988  0.00  0.00    +0.000 A 
ATOM     28  C   UNL     1       1.612   6.278  20.753  0.00  0.00    +0.000 A 
BRANCH  27  29
ATOM     29  C   UNL     1       2.222   3.865  20.580  0.00  0.00    +0.000 C 
ATOM     30  F   UNL     1       1.904   3.760  21.894  0.00  0.00    +0.000 F 
ATOM     31  F   UNL     1       1.338   3.049  19.930  0.00  0.00    +0.000 F 
ATOM     32  F   UNL     1       3.436   3.259  20.444  0.00  0.00    +0.000 F 
ENDBRANCH  27  29
ENDBRANCH  19  22
ENDBRANCH   4  19
TORSDOF 6
ENDMDL
MODEL 8
REMARK VINA RESULT:      -7.8      6.540     11.565
REMARK  Name = 
REMARK  7 active torsions:
REMARK  status: ('A' for Active; 'I' for Inactive)
REMARK    1  A    between atoms: C_1  and  O_2
REMARK    2  A    between atoms: O_2  and  C_3
REMARK    3  A    between atoms: C_6  and  N_7
REMARK    4  A    between atoms: C_8  and  C_10
REMARK    5  A    between atoms: N_13  and  S_14
REMARK    6  A    between atoms: S_14  and  C_17
REMARK    7  A    between atoms: C_22  and  C_23
REMARK                            x       y       z     vdW  Elec       q    Type
REMARK                         _______ _______ _______ _____ _____    ______ ____
ROOT
ATOM      1  C   UNL     1      -0.689  12.668  19.258  0.00  0.00    +0.000 C 
ATOM      2  C   UNL     1      -0.971  11.314  18.595  0.00  0.00    +0.000 C 
ATOM      3  C   UNL     1      -0.795  10.147  19.569  0.00  0.00    +0.000 C 
ATOM      4  N   UNL     1       0.568  10.166  20.183  0.00  0.00    +0.000 NA
ATOM      5  C   UNL     1       0.893  11.475  20.826  0.00  0.00    +0.000 C 
ATOM      6  C   UNL     1       0.724  12.629  19.843  0.00  0.00    +0.000 C 
ENDROOT
BRANCH   1   8
ATOM      7  N   UNL     1      -3.046  12.993  19.803  0.00  0.00    +0.000 N 
ATOM      8  C   UNL     1      -1.758  13.023  20.304  0.00  0.00    +0.000 C 
ATOM      9  O   UNL     1      -1.456  13.274  21.465  0.00  0.00    +0.000 OA
ATOM     10  H   UNL     1      -3.168  12.634  18.863  0.00  0.00    +0.000 HD
BRANCH   7  14
ATOM     11  C   UNL     1      -6.463  14.297  21.790  0.00  0.00    +0.000 A 
ATOM     12  C   UNL     1      -6.304  12.930  21.644  0.00  0.00    +0.000 A 
ATOM     13  C   UNL     1      -5.168  12.455  20.983  0.00  0.00    +0.000 A 
ATOM     14  C   UNL     1      -4.230  13.356  20.484  0.00  0.00    +0.000 A 
ATOM     15  C   UNL     1      -4.487  14.711  20.698  0.00  0.00    +0.000 A 
ATOM     16  N   UNL     1      -5.574  15.204  21.336  0.00  0.00    +0.000 NA
BRANCH  11  18
ATOM     17  C   UNL     1      -7.343  15.420  23.642  0.00  0.00    +0.000 C 
ATOM     18  O   UNL     1      -7.611  14.719  22.431  0.00  0.00    +0.000 OA
ENDBRANCH  11  18
ENDBRANCH   7  14
ENDBRANCH   1   8
BRANCH   4  19
ATOM     19  S   UNL     1       0.828   8.862  21.291  0.00  0.00    +0.000 S 
ATOM     20  O   UNL     1       1.798   9.297  22.275  0.00  0.00    +0.000 OA
ATOM     21  O   UNL     1      -0.466   8.357  21.687  0.00  0.00    +0.000 OA
BRANCH  19  22
ATOM     22  C   UNL     1       1.632   7.629  20.297  0.00  0.00    +0.000 A 
ATOM     23  C   UNL     1       2.192   7.975  19.070  0.00  0.00    +0.000 A 
ATOM     24  C   UNL     1       2.774   6.980  18.285  0.00  0.00    +0.000 A 
ATOM     25  C   UNL     1       2.817   5.648  18.725  0.00  0.00    +0.000 A 
ATOM     26 CL   UNL     1       3.542   4.513  17.649  0.00  0.00    +0.000 Cl
ATOM     27  C   UNL     1       2.283   5.294  19.972  0.00  0.00    +0.000 A 
ATOM     28  C   UNL     1       1.668   6.305  20.746  0.00  0.00    +0.000 A 
BRANCH  27  29
ATOM     29  C   UNL     1       2.338   3.909  20.565  0.00  0.00    +0.000 C 
ATOM     30  F   UNL     1       3.486   3.212  20.381  0.00  0.00    +0.000 F 
ATOM     31  F   UNL     1       2.153   3.946  21.918  0.00  0.00    +0.000 F 
ATOM     32  F   UNL     1       1.341   3.109  20.088  0.00  0.00    +0.000 F 
ENDBRANCH  27  29
ENDBRANCH  19  22
ENDBRANCH   4  19
TORSDOF 6
ENDMDL
MODEL 9
REMARK VINA RESULT:      -7.7      6.356     11.692
REMARK  Name = 
REMARK  7 active torsions:
REMARK  status: ('A' for Active; 'I' for Inactive)
REMARK    1  A    between atoms: C_1  and  O_2
REMARK    2  A    between atoms: O_2  and  C_3
REMARK    3  A    between atoms: C_6  and  N_7
REMARK    4  A    between atoms: C_8  and  C_10
REMARK    5  A    between atoms: N_13  and  S_14
REMARK    6  A    between atoms: S_14  and  C_17
REMARK    7  A    between atoms: C_22  and  C_23
REMARK                            x       y       z     vdW  Elec       q    Type
REMARK                         _______ _______ _______ _____ _____    ______ ____
ROOT
ATOM      1  C   UNL     1      -0.365  12.789  19.228  0.00  0.00    +0.000 C 
ATOM      2  C   UNL     1      -0.719  11.455  18.557  0.00  0.00    +0.000 C 
ATOM      3  C   UNL     1      -0.636  10.279  19.532  0.00  0.00    +0.000 C 
ATOM      4  N   UNL     1       0.713  10.211  20.171  0.00  0.00    +0.000 NA
ATOM      5  C   UNL     1       1.109  11.496  20.823  0.00  0.00    +0.000 C 
ATOM      6  C   UNL     1       1.031  12.659  19.839  0.00  0.00    +0.000 C 
ENDROOT
BRANCH   1   8
ATOM      7  N   UNL     1      -0.970  14.142  21.166  0.00  0.00    +0.000 N 
ATOM      8  C   UNL     1      -1.429  13.209  20.255  0.00  0.00    +0.000 C 
ATOM      9  O   UNL     1      -2.568  12.757  20.216  0.00  0.00    +0.000 OA
ATOM     10  H   UNL     1      -0.052  14.537  21.002  0.00  0.00    +0.000 HD
BRANCH   7  14
ATOM     11  C   UNL     1      -3.151  15.816  24.293  0.00  0.00    +0.000 A 
ATOM     12  C   UNL     1      -2.254  14.813  24.617  0.00  0.00    +0.000 A 
ATOM     13  C   UNL     1      -1.503  14.228  23.594  0.00  0.00    +0.000 A 
ATOM     14  C   UNL     1      -1.673  14.656  22.280  0.00  0.00    +0.000 A 
ATOM     15  C   UNL     1      -2.597  15.681  22.069  0.00  0.00    +0.000 A 
ATOM     16  N   UNL     1      -3.337  16.270  23.037  0.00  0.00    +0.000 NA
BRANCH  11  18
ATOM     17  C   UNL     1      -4.954  17.178  24.890  0.00  0.00    +0.000 C 
ATOM     18  O   UNL     1      -3.885  16.348  25.334  0.00  0.00    +0.000 OA
ENDBRANCH  11  18
ENDBRANCH   7  14
ENDBRANCH   1   8
BRANCH   4  19
ATOM     19  S   UNL     1       0.870   8.892  21.281  0.00  0.00    +0.000 S 
ATOM     20  O   UNL     1       1.832   9.271  22.295  0.00  0.00    +0.000 OA
ATOM     21  O   UNL     1      -0.461   8.457  21.636  0.00  0.00    +0.000 OA
BRANCH  19  22
ATOM     22  C   UNL     1       1.636   7.620  20.306  0.00  0.00    +0.000 A 
ATOM     23  C   UNL     1       2.195   7.928  19.069  0.00  0.00    +0.000 A 
ATOM     24  C   UNL     1       2.747   6.903  18.300  0.00  0.00    +0.000 A 
ATOM     25  C   UNL     1       2.758   5.580  18.766  0.00  0.00    +0.000 A 
ATOM     26 CL   UNL     1       3.448   4.405  17.708  0.00  0.00    +0.000 Cl
ATOM     27  C   UNL     1       2.224   5.263  20.023  0.00  0.00    +0.000 A 
ATOM     28  C   UNL     1       1.640   6.305  20.781  0.00  0.00    +0.000 A 
BRANCH  27  29
ATOM     29  C   UNL     1       2.248   3.889  20.642  0.00  0.00    +0.000 C 
ATOM     30  F   UNL     1       2.018   3.816  21.977  0.00  0.00    +0.000 F 
ATOM     31  F   UNL     1       1.307   3.078  20.072  0.00  0.00    +0.000 F 
ATOM     32  F   UNL     1       3.438   3.256  20.438  0.00  0.00    +0.000 F 
ENDBRANCH  27  29
ENDBRANCH  19  22
ENDBRANCH   4  19
TORSDOF 6
ENDMDL
