MODEL 1
REMARK VINA RESULT:      -8.7      0.000      0.000
REMARK  Name = 
REMARK  5 active torsions:
REMARK  status: ('A' for Active; 'I' for Inactive)
REMARK    1  A    between atoms: N_1  and  C_2
REMARK    2  A    between atoms: C_8  and  C_9
REMARK    3  A    between atoms: C_12  and  N_13
REMARK    4  A    between atoms: N_13  and  C_14
REMARK    5  A    between atoms: C_14  and  C_15
REMARK                            x       y       z     vdW  Elec       q    Type
REMARK                         _______ _______ _______ _____ _____    ______ ____
ROOT
ATOM      1  C   UNL     1       5.742   5.888  18.092  0.00  0.00    +0.000 A 
ATOM      2  C   UNL     1       5.573   6.951  17.203  0.00  0.00    +0.000 A 
ATOM      3  C   UNL     1       6.574   7.912  17.067  0.00  0.00    +0.000 A 
ATOM      4  C   UNL     1       7.744   7.854  17.836  0.00  0.00    +0.000 A 
ATOM      5  C   UNL     1       7.941   6.730  18.648  0.00  0.00    +0.000 A 
ATOM      6  C   UNL     1       6.944   5.761  18.790  0.00  0.00    +0.000 A 
ENDROOT
BRANCH   1  13
ATOM      7  C   UNL     1       1.394   2.522  19.375  0.00  0.00    +0.000 A 
ATOM      8  C   UNL     1       1.015   2.518  20.725  0.00  0.00    +0.000 A 
ATOM      9  C   UNL     1       1.686   3.303  21.666  0.00  0.00    +0.000 A 
ATOM     10  C   UNL     1       2.776   4.075  21.276  0.00  0.00    +0.000 A 
ATOM     11  C   UNL     1       3.178   4.076  19.941  0.00  0.00    +0.000 A 
ATOM     12  O   UNL     1       4.260   4.862  19.635  0.00  0.00    +0.000 OA
ATOM     13  C   UNL     1       4.645   4.951  18.315  0.00  0.00    +0.000 A 
ATOM     14  C   UNL     1       4.072   4.299  17.297  0.00  0.00    +0.000 A 
ATOM     15  C   UNL     1       2.938   3.403  17.583  0.00  0.00    +0.000 A 
ATOM     16  O   UNL     1       2.374   2.819  16.663  0.00  0.00    +0.000 OA
ATOM     17  C   UNL     1       2.499   3.306  18.993  0.00  0.00    +0.000 A 
BRANCH   7  18
ATOM     18  N   UNL     1       0.806   1.582  18.511  0.00  0.00    +0.000 N 
ATOM     19  H   UNL     1      -0.197   1.670  18.395  0.00  0.00    +0.000 HD
ATOM     20  H   UNL     1       1.306   1.509  17.617  0.00  0.00    +0.000 HD
ENDBRANCH   7  18
ENDBRANCH   1  13
BRANCH   4  21
ATOM     21  N   UNL     1       8.746   8.822  17.748  0.00  0.00    +0.000 N 
ATOM     22  H   UNL     1       9.646   8.505  18.095  0.00  0.00    +0.000 HD
BRANCH  21  23
ATOM     23  C   UNL     1       8.441  10.183  18.190  0.00  0.00    +0.000 C 
BRANCH  23  24
ATOM     24  C   UNL     1       9.666  10.879  18.739  0.00  0.00    +0.000 A 
ATOM     25  C   UNL     1      10.719  11.296  17.910  0.00  0.00    +0.000 A 
ATOM     26  C   UNL     1      11.815  11.981  18.437  0.00  0.00    +0.000 A 
ATOM     27  C   UNL     1      11.866  12.267  19.798  0.00  0.00    +0.000 A 
ATOM     28  C   UNL     1      10.822  11.875  20.632  0.00  0.00    +0.000 A 
ATOM     29  C   UNL     1       9.726  11.190  20.106  0.00  0.00    +0.000 A 
ENDBRANCH  23  24
ENDBRANCH  21  23
ENDBRANCH   4  21
TORSDOF 5
ENDMDL
MODEL 2
REMARK VINA RESULT:      -8.6      5.169      7.292
REMARK  Name = 
REMARK  5 active torsions:
REMARK  status: ('A' for Active; 'I' for Inactive)
REMARK    1  A    between atoms: N_1  and  C_2
REMARK    2  A    between atoms: C_8  and  C_9
REMARK    3  A    between atoms: C_12  and  N_13
REMARK    4  A    between atoms: N_13  and  C_14
REMARK    5  A    between atoms: C_14  and  C_15
REMARK                            x       y       z     vdW  Elec       q    Type
REMARK                         _______ _______ _______ _____ _____    ______ ____
ROOT
ATOM      1  C   UNL     1       2.836   7.043  18.124  0.00  0.00    +0.000 A 
ATOM      2  C   UNL     1       4.049   7.436  17.557  0.00  0.00    +0.000 A 
ATOM      3  C   UNL     1       4.931   6.476  17.063  0.00  0.00    +0.000 A 
ATOM      4  C   UNL     1       4.641   5.109  17.155  0.00  0.00    +0.000 A 
ATOM      5  C   UNL     1       3.378   4.737  17.634  0.00  0.00    +0.000 A 
ATOM      6  C   UNL     1       2.487   5.692  18.131  0.00  0.00    +0.000 A 
ENDROOT
BRANCH   1  13
ATOM      7  C   UNL     1      -0.278  10.810  20.952  0.00  0.00    +0.000 A 
ATOM      8  C   UNL     1      -0.348  10.612  22.339  0.00  0.00    +0.000 A 
ATOM      9  C   UNL     1       0.318   9.547  22.952  0.00  0.00    +0.000 A 
ATOM     10  C   UNL     1       1.032   8.637  22.178  0.00  0.00    +0.000 A 
ATOM     11  C   UNL     1       1.095   8.808  20.795  0.00  0.00    +0.000 A 
ATOM     12  O   UNL     1       1.818   7.870  20.102  0.00  0.00    +0.000 OA
ATOM     13  C   UNL     1       1.969   8.043  18.743  0.00  0.00    +0.000 A 
ATOM     14  C   UNL     1       1.433   9.036  18.025  0.00  0.00    +0.000 A 
ATOM     15  C   UNL     1       0.606  10.039  18.717  0.00  0.00    +0.000 A 
ATOM     16  O   UNL     1       0.131  10.978  18.088  0.00  0.00    +0.000 OA
ATOM     17  C   UNL     1       0.445   9.881  20.180  0.00  0.00    +0.000 A 
BRANCH   7  18
ATOM     18  N   UNL     1      -1.111  11.782  20.372  0.00  0.00    +0.000 N 
ATOM     19  H   UNL     1      -1.956  11.992  20.890  0.00  0.00    +0.000 HD
ATOM     20  H   UNL     1      -0.592  12.625  20.098  0.00  0.00    +0.000 HD
ENDBRANCH   7  18
ENDBRANCH   1  13
BRANCH   4  21
ATOM     21  N   UNL     1       5.521   4.124  16.704  0.00  0.00    +0.000 N 
ATOM     22  H   UNL     1       5.610   3.338  17.340  0.00  0.00    +0.000 HD
BRANCH  21  23
ATOM     23  C   UNL     1       6.817   4.541  16.168  0.00  0.00    +0.000 C 
BRANCH  23  24
ATOM     24  C   UNL     1       6.841   4.484  14.657  0.00  0.00    +0.000 A 
ATOM     25  C   UNL     1       7.735   5.254  13.898  0.00  0.00    +0.000 A 
ATOM     26  C   UNL     1       7.769   5.145  12.506  0.00  0.00    +0.000 A 
ATOM     27  C   UNL     1       6.918   4.254  11.859  0.00  0.00    +0.000 A 
ATOM     28  C   UNL     1       6.035   3.471  12.599  0.00  0.00    +0.000 A 
ATOM     29  C   UNL     1       6.000   3.580  13.990  0.00  0.00    +0.000 A 
ENDBRANCH  23  24
ENDBRANCH  21  23
ENDBRANCH   4  21
TORSDOF 5
ENDMDL
MODEL 3
REMARK VINA RESULT:      -8.6      5.713      7.422
REMARK  Name = 
REMARK  5 active torsions:
REMARK  status: ('A' for Active; 'I' for Inactive)
REMARK    1  A    between atoms: N_1  and  C_2
REMARK    2  A    between atoms: C_8  and  C_9
REMARK    3  A    between atoms: C_12  and  N_13
REMARK    4  A    between atoms: N_13  and  C_14
REMARK    5  A    between atoms: C_14  and  C_15
REMARK                            x       y       z     vdW  Elec       q    Type
REMARK                         _______ _______ _______ _____ _____    ______ ____
ROOT
ATOM      1  C   UNL     1       1.898   7.808  19.706  0.00  0.00    +0.000 A 
ATOM      2  C   UNL     1       2.237   6.628  20.372  0.00  0.00    +0.000 A 
ATOM      3  C   UNL     1       2.897   5.607  19.689  0.00  0.00    +0.000 A 
ATOM      4  C   UNL     1       3.201   5.725  18.326  0.00  0.00    +0.000 A 
ATOM      5  C   UNL     1       2.945   6.952  17.700  0.00  0.00    +0.000 A 
ATOM      6  C   UNL     1       2.285   7.981  18.377  0.00  0.00    +0.000 A 
ENDROOT
BRANCH   1  13
ATOM      7  C   UNL     1      -1.449  11.762  21.951  0.00  0.00    +0.000 A 
ATOM      8  C   UNL     1      -2.163  12.539  21.029  0.00  0.00    +0.000 A 
ATOM      9  C   UNL     1      -2.037  12.326  19.653  0.00  0.00    +0.000 A 
ATOM     10  C   UNL     1      -1.158  11.358  19.178  0.00  0.00    +0.000 A 
ATOM     11  C   UNL     1      -0.424  10.590  20.082  0.00  0.00    +0.000 A 
ATOM     12  O   UNL     1       0.420   9.656  19.537  0.00  0.00    +0.000 OA
ATOM     13  C   UNL     1       1.107   8.824  20.395  0.00  0.00    +0.000 A 
ATOM     14  C   UNL     1       1.052   8.874  21.730  0.00  0.00    +0.000 A 
ATOM     15  C   UNL     1       0.198   9.894  22.362  0.00  0.00    +0.000 A 
ATOM     16  O   UNL     1       0.105   9.939  23.584  0.00  0.00    +0.000 OA
ATOM     17  C   UNL     1      -0.561  10.787  21.459  0.00  0.00    +0.000 A 
BRANCH   7  18
ATOM     18  N   UNL     1      -1.475  12.138  23.306  0.00  0.00    +0.000 N 
ATOM     19  H   UNL     1      -2.381  12.425  23.657  0.00  0.00    +0.000 HD
ATOM     20  H   UNL     1      -1.014  11.447  23.910  0.00  0.00    +0.000 HD
ENDBRANCH   7  18
ENDBRANCH   1  13
BRANCH   4  21
ATOM     21  N   UNL     1       3.827   4.705  17.608  0.00  0.00    +0.000 N 
ATOM     22  H   UNL     1       4.100   3.914  18.183  0.00  0.00    +0.000 HD
BRANCH  21  23
ATOM     23  C   UNL     1       4.870   5.067  16.648  0.00  0.00    +0.000 C 
BRANCH  23  24
ATOM     24  C   UNL     1       6.050   5.724  17.328  0.00  0.00    +0.000 A 
ATOM     25  C   UNL     1       6.570   6.952  16.892  0.00  0.00    +0.000 A 
ATOM     26  C   UNL     1       7.629   7.561  17.569  0.00  0.00    +0.000 A 
ATOM     27  C   UNL     1       8.171   6.954  18.698  0.00  0.00    +0.000 A 
ATOM     28  C   UNL     1       7.655   5.744  19.154  0.00  0.00    +0.000 A 
ATOM     29  C   UNL     1       6.597   5.134  18.478  0.00  0.00    +0.000 A 
ENDBRANCH  23  24
ENDBRANCH  21  23
ENDBRANCH   4  21
TORSDOF 5
ENDMDL
MODEL 4
REMARK VINA RESULT:      -8.6      5.317      7.488
REMARK  Name = 
REMARK  5 active torsions:
REMARK  status: ('A' for Active; 'I' for Inactive)
REMARK    1  A    between atoms: N_1  and  C_2
REMARK    2  A    between atoms: C_8  and  C_9
REMARK    3  A    between atoms: C_12  and  N_13
REMARK    4  A    between atoms: N_13  and  C_14
REMARK    5  A    between atoms: C_14  and  C_15
REMARK                            x       y       z     vdW  Elec       q    Type
REMARK                         _______ _______ _______ _____ _____    ______ ____
ROOT
ATOM      1  C   UNL     1       2.720   7.237  18.446  0.00  0.00    +0.000 A 
ATOM      2  C   UNL     1       2.555   5.896  18.797  0.00  0.00    +0.000 A 
ATOM      3  C   UNL     1       3.320   4.912  18.172  0.00  0.00    +0.000 A 
ATOM      4  C   UNL     1       4.236   5.238  17.163  0.00  0.00    +0.000 A 
ATOM      5  C   UNL     1       4.462   6.594  16.894  0.00  0.00    +0.000 A 
ATOM      6  C   UNL     1       3.700   7.588  17.516  0.00  0.00    +0.000 A 
ENDROOT
BRANCH   1  13
ATOM      7  C   UNL     1      -0.496  11.031  21.118  0.00  0.00    +0.000 A 
ATOM      8  C   UNL     1      -0.682  10.802  22.489  0.00  0.00    +0.000 A 
ATOM      9  C   UNL     1      -0.098   9.702  23.124  0.00  0.00    +0.000 A 
ATOM     10  C   UNL     1       0.648   8.789  22.385  0.00  0.00    +0.000 A 
ATOM     11  C   UNL     1       0.825   8.991  21.017  0.00  0.00    +0.000 A 
ATOM     12  O   UNL     1       1.573   8.048  20.358  0.00  0.00    +0.000 OA
ATOM     13  C   UNL     1       1.837   8.248  19.020  0.00  0.00    +0.000 A 
ATOM     14  C   UNL     1       1.390   9.275  18.290  0.00  0.00    +0.000 A 
ATOM     15  C   UNL     1       0.541  10.287  18.941  0.00  0.00    +0.000 A 
ATOM     16  O   UNL     1       0.146  11.256  18.301  0.00  0.00    +0.000 OA
ATOM     17  C   UNL     1       0.259  10.099  20.382  0.00  0.00    +0.000 A 
BRANCH   7  18
ATOM     18  N   UNL     1      -1.250  12.044  20.500  0.00  0.00    +0.000 N 
ATOM     19  H   UNL     1      -1.056  12.985  20.823  0.00  0.00    +0.000 HD
ATOM     20  H   UNL     1      -1.242  11.964  19.476  0.00  0.00    +0.000 HD
ENDBRANCH   7  18
ENDBRANCH   1  13
BRANCH   4  21
ATOM     21  N   UNL     1       4.988   4.272  16.493  0.00  0.00    +0.000 N 
ATOM     22  H   UNL     1       4.903   3.343  16.895  0.00  0.00    +0.000 HD
BRANCH  21  23
ATOM     23  C   UNL     1       6.371   4.587  16.138  0.00  0.00    +0.000 C 
BRANCH  23  24
ATOM     24  C   UNL     1       6.616   4.433  14.654  0.00  0.00    +0.000 A 
ATOM     25  C   UNL     1       5.859   3.555  13.863  0.00  0.00    +0.000 A 
ATOM     26  C   UNL     1       6.072   3.469  12.486  0.00  0.00    +0.000 A 
ATOM     27  C   UNL     1       7.037   4.271  11.882  0.00  0.00    +0.000 A 
ATOM     28  C   UNL     1       7.785   5.159  12.650  0.00  0.00    +0.000 A 
ATOM     29  C   UNL     1       7.573   5.245  14.027  0.00  0.00    +0.000 A 
ENDBRANCH  23  24
ENDBRANCH  21  23
ENDBRANCH   4  21
TORSDOF 5
ENDMDL
MODEL 5
REMARK VINA RESULT:      -8.5      6.118      8.205
REMARK  Name = 
REMARK  5 active torsions:
REMARK  status: ('A' for Active; 'I' for Inactive)
REMARK    1  A    between atoms: N_1  and  C_2
REMARK    2  A    between atoms: C_8  and  C_9
REMARK    3  A    between atoms: C_12  and  N_13
REMARK    4  A    between atoms: N_13  and  C_14
REMARK    5  A    between atoms: C_14  and  C_15
REMARK                            x       y       z     vdW  Elec       q    Type
REMARK                         _______ _______ _______ _____ _____    ______ ____
ROOT
ATOM      1  C   UNL     1       2.031   8.096  19.193  0.00  0.00    +0.000 A 
ATOM      2  C   UNL     1       2.107   8.733  17.953  0.00  0.00    +0.000 A 
ATOM      3  C   UNL     1       1.459   9.952  17.754  0.00  0.00    +0.000 A 
ATOM      4  C   UNL     1       0.696  10.542  18.770  0.00  0.00    +0.000 A 
ATOM      5  C   UNL     1       0.713   9.942  20.036  0.00  0.00    +0.000 A 
ATOM      6  C   UNL     1       1.360   8.721  20.245  0.00  0.00    +0.000 A 
ENDROOT
BRANCH   1  13
ATOM      7  C   UNL     1       3.837   2.812  20.026  0.00  0.00    +0.000 A 
ATOM      8  C   UNL     1       3.115   2.073  20.974  0.00  0.00    +0.000 A 
ATOM      9  C   UNL     1       2.027   2.631  21.651  0.00  0.00    +0.000 A 
ATOM     10  C   UNL     1       1.671   3.956  21.418  0.00  0.00    +0.000 A 
ATOM     11  C   UNL     1       2.391   4.712  20.493  0.00  0.00    +0.000 A 
ATOM     12  O   UNL     1       1.978   6.009  20.319  0.00  0.00    +0.000 OA
ATOM     13  C   UNL     1       2.613   6.768  19.360  0.00  0.00    +0.000 A 
ATOM     14  C   UNL     1       3.635   6.358  18.601  0.00  0.00    +0.000 A 
ATOM     15  C   UNL     1       4.147   4.989  18.788  0.00  0.00    +0.000 A 
ATOM     16  O   UNL     1       5.061   4.578  18.082  0.00  0.00    +0.000 OA
ATOM     17  C   UNL     1       3.468   4.152  19.802  0.00  0.00    +0.000 A 
BRANCH   7  18
ATOM     18  N   UNL     1       5.025   2.264  19.514  0.00  0.00    +0.000 N 
ATOM     19  H   UNL     1       5.597   1.767  20.186  0.00  0.00    +0.000 HD
ATOM     20  H   UNL     1       4.867   1.729  18.652  0.00  0.00    +0.000 HD
ENDBRANCH   7  18
ENDBRANCH   1  13
BRANCH   4  21
ATOM     21  N   UNL     1       0.007  11.741  18.588  0.00  0.00    +0.000 N 
ATOM     22  H   UNL     1       0.573  12.565  18.769  0.00  0.00    +0.000 HD
BRANCH  21  23
ATOM     23  C   UNL     1      -1.335  11.867  19.157  0.00  0.00    +0.000 C 
BRANCH  23  24
ATOM     24  C   UNL     1      -2.406  11.608  18.121  0.00  0.00    +0.000 A 
ATOM     25  C   UNL     1      -2.095  11.197  16.816  0.00  0.00    +0.000 A 
ATOM     26  C   UNL     1      -3.105  10.915  15.895  0.00  0.00    +0.000 A 
ATOM     27  C   UNL     1      -4.440  11.030  16.272  0.00  0.00    +0.000 A 
ATOM     28  C   UNL     1      -4.767  11.421  17.568  0.00  0.00    +0.000 A 
ATOM     29  C   UNL     1      -3.757  11.703  18.490  0.00  0.00    +0.000 A 
ENDBRANCH  23  24
ENDBRANCH  21  23
ENDBRANCH   4  21
TORSDOF 5
ENDMDL
MODEL 6
REMARK VINA RESULT:      -8.4      6.376      9.188
REMARK  Name = 
REMARK  5 active torsions:
REMARK  status: ('A' for Active; 'I' for Inactive)
REMARK    1  A    between atoms: N_1  and  C_2
REMARK    2  A    between atoms: C_8  and  C_9
REMARK    3  A    between atoms: C_12  and  N_13
REMARK    4  A    between atoms: N_13  and  C_14
REMARK    5  A    between atoms: C_14  and  C_15
REMARK                            x       y       z     vdW  Elec       q    Type
REMARK                         _______ _______ _______ _____ _____    ______ ____
ROOT
ATOM      1  C   UNL     1       1.444   8.854  19.108  0.00  0.00    +0.000 A 
ATOM      2  C   UNL     1       1.788   7.875  20.042  0.00  0.00    +0.000 A 
ATOM      3  C   UNL     1       2.677   6.859  19.693  0.00  0.00    +0.000 A 
ATOM      4  C   UNL     1       3.212   6.776  18.401  0.00  0.00    +0.000 A 
ATOM      5  C   UNL     1       2.937   7.820  17.508  0.00  0.00    +0.000 A 
ATOM      6  C   UNL     1       2.048   8.844  17.849  0.00  0.00    +0.000 A 
ENDROOT
BRANCH   1  13
ATOM      7  C   UNL     1      -2.271  12.730  20.856  0.00  0.00    +0.000 A 
ATOM      8  C   UNL     1      -2.405  12.850  22.246  0.00  0.00    +0.000 A 
ATOM      9  C   UNL     1      -1.657  12.052  23.116  0.00  0.00    +0.000 A 
ATOM     10  C   UNL     1      -0.791  11.089  22.605  0.00  0.00    +0.000 A 
ATOM     11  C   UNL     1      -0.661  10.943  21.224  0.00  0.00    +0.000 A 
ATOM     12  O   UNL     1       0.211   9.974  20.797  0.00  0.00    +0.000 OA
ATOM     13  C   UNL     1       0.427   9.847  19.442  0.00  0.00    +0.000 A 
ATOM     14  C   UNL     1      -0.176  10.569  18.492  0.00  0.00    +0.000 A 
ATOM     15  C   UNL     1      -1.160  11.588  18.898  0.00  0.00    +0.000 A 
ATOM     16  O   UNL     1      -1.702  12.286  18.049  0.00  0.00    +0.000 OA
ATOM     17  C   UNL     1      -1.394  11.751  20.351  0.00  0.00    +0.000 A 
BRANCH   7  18
ATOM     18  N   UNL     1      -3.174  13.425  20.033  0.00  0.00    +0.000 N 
ATOM     19  H   UNL     1      -2.880  13.542  19.071  0.00  0.00    +0.000 HD
ATOM     20  H   UNL     1      -4.132  13.064  20.116  0.00  0.00    +0.000 HD
ENDBRANCH   7  18
ENDBRANCH   1  13
BRANCH   4  21
ATOM     21  N   UNL     1       4.074   5.750  18.012  0.00  0.00    +0.000 N 
ATOM     22  H   UNL     1       4.810   6.056  17.383  0.00  0.00    +0.000 HD
BRANCH  21  23
ATOM     23  C   UNL     1       3.494   4.475  17.591  0.00  0.00    +0.000 C 
BRANCH  23  24
ATOM     24  C   UNL     1       2.792   3.776  18.734  0.00  0.00    +0.000 A 
ATOM     25  C   UNL     1       3.479   3.356  19.883  0.00  0.00    +0.000 A 
ATOM     26  C   UNL     1       2.798   2.758  20.944  0.00  0.00    +0.000 A 
ATOM     27  C   UNL     1       1.419   2.585  20.874  0.00  0.00    +0.000 A 
ATOM     28  C   UNL     1       0.719   3.011  19.748  0.00  0.00    +0.000 A 
ATOM     29  C   UNL     1       1.400   3.608  18.686  0.00  0.00    +0.000 A 
ENDBRANCH  23  24
ENDBRANCH  21  23
ENDBRANCH   4  21
TORSDOF 5
ENDMDL
MODEL 7
REMARK VINA RESULT:      -8.4      5.536      7.253
REMARK  Name = 
REMARK  5 active torsions:
REMARK  status: ('A' for Active; 'I' for Inactive)
REMARK    1  A    between atoms: N_1  and  C_2
REMARK    2  A    between atoms: C_8  and  C_9
REMARK    3  A    between atoms: C_12  and  N_13
REMARK    4  A    between atoms: N_13  and  C_14
REMARK    5  A    between atoms: C_14  and  C_15
REMARK                            x       y       z     vdW  Elec       q    Type
REMARK                         _______ _______ _______ _____ _____    ______ ____
ROOT
ATOM      1  C   UNL     1       1.894   7.435  19.775  0.00  0.00    +0.000 A 
ATOM      2  C   UNL     1       2.338   7.545  18.457  0.00  0.00    +0.000 A 
ATOM      3  C   UNL     1       3.096   6.521  17.889  0.00  0.00    +0.000 A 
ATOM      4  C   UNL     1       3.456   5.388  18.630  0.00  0.00    +0.000 A 
ATOM      5  C   UNL     1       2.918   5.247  19.916  0.00  0.00    +0.000 A 
ATOM      6  C   UNL     1       2.156   6.267  20.493  0.00  0.00    +0.000 A 
ENDROOT
BRANCH   1  13
ATOM      7  C   UNL     1      -1.055  11.820  21.763  0.00  0.00    +0.000 A 
ATOM      8  C   UNL     1      -1.636  12.645  20.789  0.00  0.00    +0.000 A 
ATOM      9  C   UNL     1      -1.480  12.375  19.426  0.00  0.00    +0.000 A 
ATOM     10  C   UNL     1      -0.702  11.296  19.017  0.00  0.00    +0.000 A 
ATOM     11  C   UNL     1      -0.100  10.478  19.972  0.00  0.00    +0.000 A 
ATOM     12  O   UNL     1       0.650   9.435  19.491  0.00  0.00    +0.000 OA
ATOM     13  C   UNL     1       1.200   8.557  20.400  0.00  0.00    +0.000 A 
ATOM     14  C   UNL     1       1.097   8.656  21.729  0.00  0.00    +0.000 A 
ATOM     15  C   UNL     1       0.344   9.788  22.296  0.00  0.00    +0.000 A 
ATOM     16  O   UNL     1       0.206   9.883  23.511  0.00  0.00    +0.000 OA
ATOM     17  C   UNL     1      -0.269  10.734  21.336  0.00  0.00    +0.000 A 
BRANCH   7  18
ATOM     18  N   UNL     1      -1.092  12.240  23.104  0.00  0.00    +0.000 N 
ATOM     19  H   UNL     1      -1.954  12.689  23.392  0.00  0.00    +0.000 HD
ATOM     20  H   UNL     1      -0.792  11.501  23.751  0.00  0.00    +0.000 HD
ENDBRANCH   7  18
ENDBRANCH   1  13
BRANCH   4  21
ATOM     21  N   UNL     1       4.245   4.366  18.100  0.00  0.00    +0.000 N 
ATOM     22  H   UNL     1       4.658   3.766  18.807  0.00  0.00    +0.000 HD
BRANCH  21  23
ATOM     23  C   UNL     1       5.199   4.699  17.042  0.00  0.00    +0.000 C 
BRANCH  23  24
ATOM     24  C   UNL     1       6.302   5.601  17.549  0.00  0.00    +0.000 A 
ATOM     25  C   UNL     1       6.566   6.851  16.969  0.00  0.00    +0.000 A 
ATOM     26  C   UNL     1       7.557   7.685  17.488  0.00  0.00    +0.000 A 
ATOM     27  C   UNL     1       8.288   7.284  18.603  0.00  0.00    +0.000 A 
ATOM     28  C   UNL     1       8.027   6.053  19.201  0.00  0.00    +0.000 A 
ATOM     29  C   UNL     1       7.036   5.219  18.681  0.00  0.00    +0.000 A 
ENDBRANCH  23  24
ENDBRANCH  21  23
ENDBRANCH   4  21
TORSDOF 5
ENDMDL
MODEL 8
REMARK VINA RESULT:      -8.4      5.762      8.146
REMARK  Name = 
REMARK  5 active torsions:
REMARK  status: ('A' for Active; 'I' for Inactive)
REMARK    1  A    between atoms: N_1  and  C_2
REMARK    2  A    between atoms: C_8  and  C_9
REMARK    3  A    between atoms: C_12  and  N_13
REMARK    4  A    between atoms: N_13  and  C_14
REMARK    5  A    between atoms: C_14  and  C_15
REMARK                            x       y       z     vdW  Elec       q    Type
REMARK                         _______ _______ _______ _____ _____    ______ ____
ROOT
ATOM      1  C   UNL     1       1.808   7.503  20.002  0.00  0.00    +0.000 A 
ATOM      2  C   UNL     1       1.839   6.289  20.689  0.00  0.00    +0.000 A 
ATOM      3  C   UNL     1       2.435   5.172  20.104  0.00  0.00    +0.000 A 
ATOM      4  C   UNL     1       2.978   5.233  18.813  0.00  0.00    +0.000 A 
ATOM      5  C   UNL     1       3.028   6.481  18.180  0.00  0.00    +0.000 A 
ATOM      6  C   UNL     1       2.434   7.606  18.759  0.00  0.00    +0.000 A 
ENDROOT
BRANCH   1  13
ATOM      7  C   UNL     1      -1.261  11.902  21.769  0.00  0.00    +0.000 A 
ATOM      8  C   UNL     1      -1.858  12.664  20.755  0.00  0.00    +0.000 A 
ATOM      9  C   UNL     1      -1.688  12.334  19.407  0.00  0.00    +0.000 A 
ATOM     10  C   UNL     1      -0.881  11.258  19.052  0.00  0.00    +0.000 A 
ATOM     11  C   UNL     1      -0.264  10.501  20.048  0.00  0.00    +0.000 A 
ATOM     12  O   UNL     1       0.515   9.456  19.619  0.00  0.00    +0.000 OA
ATOM     13  C   UNL     1       1.082   8.636  20.571  0.00  0.00    +0.000 A 
ATOM     14  C   UNL     1       0.970   8.795  21.893  0.00  0.00    +0.000 A 
ATOM     15  C   UNL     1       0.186   9.933  22.403  0.00  0.00    +0.000 A 
ATOM     16  O   UNL     1       0.040  10.082  23.612  0.00  0.00    +0.000 OA
ATOM     17  C   UNL     1      -0.445  10.816  21.397  0.00  0.00    +0.000 A 
BRANCH   7  18
ATOM     18  N   UNL     1      -1.315  12.383  23.088  0.00  0.00    +0.000 N 
ATOM     19  H   UNL     1      -1.142  11.690  23.808  0.00  0.00    +0.000 HD
ATOM     20  H   UNL     1      -0.759  13.237  23.215  0.00  0.00    +0.000 HD
ENDBRANCH   7  18
ENDBRANCH   1  13
BRANCH   4  21
ATOM     21  N   UNL     1       3.547   4.123  18.188  0.00  0.00    +0.000 N 
ATOM     22  H   UNL     1       3.063   3.252  18.389  0.00  0.00    +0.000 HD
BRANCH  21  23
ATOM     23  C   UNL     1       5.000   3.962  18.238  0.00  0.00    +0.000 C 
BRANCH  23  24
ATOM     24  C   UNL     1       5.637   4.221  16.891  0.00  0.00    +0.000 A 
ATOM     25  C   UNL     1       4.919   4.092  15.692  0.00  0.00    +0.000 A 
ATOM     26  C   UNL     1       5.518   4.385  14.466  0.00  0.00    +0.000 A 
ATOM     27  C   UNL     1       6.839   4.823  14.425  0.00  0.00    +0.000 A 
ATOM     28  C   UNL     1       7.560   4.972  15.607  0.00  0.00    +0.000 A 
ATOM     29  C   UNL     1       6.962   4.678  16.833  0.00  0.00    +0.000 A 
ENDBRANCH  23  24
ENDBRANCH  21  23
ENDBRANCH   4  21
TORSDOF 5
ENDMDL
MODEL 9
REMARK VINA RESULT:      -8.4      5.617      7.757
REMARK  Name = 
REMARK  5 active torsions:
REMARK  status: ('A' for Active; 'I' for Inactive)
REMARK    1  A    between atoms: N_1  and  C_2
REMARK    2  A    between atoms: C_8  and  C_9
REMARK    3  A    between atoms: C_12  and  N_13
REMARK    4  A    between atoms: N_13  and  C_14
REMARK    5  A    between atoms: C_14  and  C_15
REMARK                            x       y       z     vdW  Elec       q    Type
REMARK                         _______ _______ _______ _____ _____    ______ ____
ROOT
ATOM      1  C   UNL     1       1.787   7.456  20.043  0.00  0.00    +0.000 A 
ATOM      2  C   UNL     1       1.815   6.267  20.773  0.00  0.00    +0.000 A 
ATOM      3  C   UNL     1       2.364   5.116  20.210  0.00  0.00    +0.000 A 
ATOM      4  C   UNL     1       2.863   5.116  18.901  0.00  0.00    +0.000 A 
ATOM      5  C   UNL     1       2.920   6.339  18.220  0.00  0.00    +0.000 A 
ATOM      6  C   UNL     1       2.372   7.498  18.777  0.00  0.00    +0.000 A 
ENDROOT
BRANCH   1  13
ATOM      7  C   UNL     1      -1.079  12.021  21.726  0.00  0.00    +0.000 A 
ATOM      8  C   UNL     1      -1.575  12.833  20.695  0.00  0.00    +0.000 A 
ATOM      9  C   UNL     1      -1.359  12.509  19.353  0.00  0.00    +0.000 A 
ATOM     10  C   UNL     1      -0.606  11.387  19.021  0.00  0.00    +0.000 A 
ATOM     11  C   UNL     1      -0.088  10.580  20.034  0.00  0.00    +0.000 A 
ATOM     12  O   UNL     1       0.643   9.493  19.627  0.00  0.00    +0.000 OA
ATOM     13  C   UNL     1       1.108   8.626  20.593  0.00  0.00    +0.000 A 
ATOM     14  C   UNL     1       0.941   8.776  21.911  0.00  0.00    +0.000 A 
ATOM     15  C   UNL     1       0.206   9.956  22.399  0.00  0.00    +0.000 A 
ATOM     16  O   UNL     1       0.011  10.098  23.601  0.00  0.00    +0.000 OA
ATOM     17  C   UNL     1      -0.317  10.890  21.377  0.00  0.00    +0.000 A 
BRANCH   7  18
ATOM     18  N   UNL     1      -1.168  12.488  23.048  0.00  0.00    +0.000 N 
ATOM     19  H   UNL     1      -0.641  13.332  23.245  0.00  0.00    +0.000 HD
ATOM     20  H   UNL     1      -2.139  12.538  23.378  0.00  0.00    +0.000 HD
ENDBRANCH   7  18
ENDBRANCH   1  13
BRANCH   4  21
ATOM     21  N   UNL     1       3.384   3.970  18.299  0.00  0.00    +0.000 N 
ATOM     22  H   UNL     1       2.740   3.185  18.297  0.00  0.00    +0.000 HD
BRANCH  21  23
ATOM     23  C   UNL     1       4.744   3.557  18.645  0.00  0.00    +0.000 C 
BRANCH  23  24
ATOM     24  C   UNL     1       5.771   4.557  18.164  0.00  0.00    +0.000 A 
ATOM     25  C   UNL     1       5.968   4.823  16.800  0.00  0.00    +0.000 A 
ATOM     26  C   UNL     1       6.888   5.788  16.385  0.00  0.00    +0.000 A 
ATOM     27  C   UNL     1       7.612   6.508  17.330  0.00  0.00    +0.000 A 
ATOM     28  C   UNL     1       7.416   6.269  18.688  0.00  0.00    +0.000 A 
ATOM     29  C   UNL     1       6.498   5.304  19.104  0.00  0.00    +0.000 A 
ENDBRANCH  23  24
ENDBRANCH  21  23
ENDBRANCH   4  21
TORSDOF 5
ENDMDL
