MODEL 1
REMARK VINA RESULT:      -6.2      0.000      0.000
REMARK  Name = 
REMARK  18 active torsions:
REMARK  status: ('A' for Active; 'I' for Inactive)
REMARK    1  A    between atoms: C_1  and  O_2
REMARK    2  A    between atoms: O_2  and  C_3
REMARK    3  A    between atoms: C_3  and  C_5
REMARK    4  A    between atoms: C_6  and  C_7
REMARK    5  A    between atoms: N_9  and  C_10
REMARK    6  A    between atoms: C_10  and  C_11
REMARK    7  A    between atoms: C_11  and  N_12
REMARK    8  A    between atoms: C_11  and  C_13
REMARK    9  A    between atoms: N_15  and  CA_16
REMARK   10  A    between atoms: CA_16  and  CB_17
REMARK   11  A    between atoms: CA_16  and  C_18
REMARK   12  A    between atoms: N_20  and  CA_21
REMARK   13  A    between atoms: CA_21  and  CB_22
REMARK   14  A    between atoms: CA_21  and  C_26
REMARK   15  A    between atoms: CB_22  and  CG_23
REMARK   16  A    between atoms: CG_23  and  SD_24
REMARK   17  A    between atoms: SD_24  and  CE_25
REMARK   18  A    between atoms: C_26  and  OXT_28
REMARK                            x       y       z     vdW  Elec       q    Type
REMARK                         _______ _______ _______ _____ _____    ______ ____
ROOT
ATOM      1  C   UNK A   1       2.910   4.899  20.207  0.00  0.00    +0.000 C 
ATOM      2  O   UNK A   1       4.099   5.193  20.051  0.00  0.00    +0.000 OA
ATOM      3  N   ALA A   2       1.897   5.840  20.016  0.00  0.00    +0.000 N 
ATOM      4  H   ALA A   2       1.047   5.715  20.565  0.00  0.00    +0.000 HD
ENDROOT
BRANCH   3   5
ATOM      5  CA  ALA A   2       2.268   7.241  19.698  0.00  0.00    +0.000 C 
ATOM      6  CB  ALA A   2       2.271   7.505  18.194  0.00  0.00    +0.000 C 
BRANCH   5   7
ATOM      7  C   ALA A   2       1.415   8.341  20.443  0.00  0.00    +0.000 C 
ATOM      8  O   ALA A   2       1.405   8.432  21.653  0.00  0.00    +0.000 OA
ATOM      9  N   MET A   3       0.871   9.347  19.657  0.00  0.00    +0.000 N 
ATOM     10  H   MET A   3       0.982   9.242  18.650  0.00  0.00    +0.000 HD
BRANCH   9  11
ATOM     11  CA  MET A   3       0.049  10.554  20.074  0.00  0.00    +0.000 C 
BRANCH  11  12
ATOM     12  C   MET A   3       0.831  11.882  20.114  0.00  0.00    +0.000 C 
ATOM     13  O   MET A   3       0.771  12.740  19.244  0.00  0.00    +0.000 OA
BRANCH  12  14
ATOM     14  OXT MET A   3       1.556  12.079  21.243  0.00  0.00    +0.000 OA
ATOM     15  HXT MET A   3       1.904  12.998  21.298  0.00  0.00    +0.000 HD
ENDBRANCH  12  14
ENDBRANCH  11  12
BRANCH  11  16
ATOM     16  CB  MET A   3      -1.263  10.797  19.233  0.00  0.00    +0.000 C 
BRANCH  16  17
ATOM     17  CG  MET A   3      -1.299  10.201  17.811  0.00  0.00    +0.000 C 
BRANCH  17  18
ATOM     18  SD  MET A   3      -2.549  11.079  16.812  0.00  0.00    +0.000 S 
ATOM     19  CE  MET A   3      -2.850   9.864  15.512  0.00  0.00    +0.000 C 
ENDBRANCH  17  18
ENDBRANCH  16  17
ENDBRANCH  11  16
ENDBRANCH   9  11
ENDBRANCH   5   7
ENDBRANCH   3   5
BRANCH   1  20
ATOM     20  C   UNK A   1       2.484   3.437  20.480  0.00  0.00    +0.000 C 
BRANCH  20  21
ATOM     21  N   UNK A   1       1.031   3.433  20.788  0.00  0.00    +0.000 NA
ATOM     22  H   UNK A   1       0.595   4.261  20.374  0.00  0.00    +0.000 HD
ATOM     23  H   UNK A   1       0.932   3.548  21.797  0.00  0.00    +0.000 HD
ENDBRANCH  20  21
BRANCH  20  24
ATOM     24  C   UNK A   1       2.751   2.517  19.263  0.00  0.00    +0.000 C 
BRANCH  24  27
ATOM     25  C   UNK A   1       3.851   3.417  17.262  0.00  0.00    +0.000 C 
ATOM     26  O   UNK A   1       2.797   3.594  16.662  0.00  0.00    +0.000 OA
ATOM     27  N   UNK A   1       3.943   2.882  18.517  0.00  0.00    +0.000 N 
ATOM     28  H   UNK A   1       4.831   2.501  18.832  0.00  0.00    +0.000 HD
BRANCH  25  30
ATOM     29  C   UNK A   1       5.345   4.867  16.013  0.00  0.00    +0.000 C 
ATOM     30  C   UNK A   1       5.168   3.718  16.652  0.00  0.00    +0.000 C 
BRANCH  29  31
ATOM     31  C   UNK A   1       6.676   5.182  15.458  0.00  0.00    +0.000 C 
ATOM     32  O   UNK A   1       6.939   5.219  14.268  0.00  0.00    +0.000 OA
BRANCH  31  34
ATOM     33  C   UNK A   1       7.254   6.609  17.206  0.00  0.00    +0.000 C 
ATOM     34  O   UNK A   1       7.522   5.403  16.489  0.00  0.00    +0.000 OA
ENDBRANCH  31  34
ENDBRANCH  29  31
ENDBRANCH  25  30
ENDBRANCH  24  27
ENDBRANCH  20  24
ENDBRANCH   1  20
TORSDOF 15
ENDMDL
MODEL 2
REMARK VINA RESULT:      -6.1      1.268      1.530
REMARK  Name = 
REMARK  18 active torsions:
REMARK  status: ('A' for Active; 'I' for Inactive)
REMARK    1  A    between atoms: C_1  and  O_2
REMARK    2  A    between atoms: O_2  and  C_3
REMARK    3  A    between atoms: C_3  and  C_5
REMARK    4  A    between atoms: C_6  and  C_7
REMARK    5  A    between atoms: N_9  and  C_10
REMARK    6  A    between atoms: C_10  and  C_11
REMARK    7  A    between atoms: C_11  and  N_12
REMARK    8  A    between atoms: C_11  and  C_13
REMARK    9  A    between atoms: N_15  and  CA_16
REMARK   10  A    between atoms: CA_16  and  CB_17
REMARK   11  A    between atoms: CA_16  and  C_18
REMARK   12  A    between atoms: N_20  and  CA_21
REMARK   13  A    between atoms: CA_21  and  CB_22
REMARK   14  A    between atoms: CA_21  and  C_26
REMARK   15  A    between atoms: CB_22  and  CG_23
REMARK   16  A    between atoms: CG_23  and  SD_24
REMARK   17  A    between atoms: SD_24  and  CE_25
REMARK   18  A    between atoms: C_26  and  OXT_28
REMARK                            x       y       z     vdW  Elec       q    Type
REMARK                         _______ _______ _______ _____ _____    ______ ____
ROOT
ATOM      1  C   UNK A   1       2.056   4.406  20.426  0.00  0.00    +0.000 C 
ATOM      2  O   UNK A   1       2.832   4.620  21.361  0.00  0.00    +0.000 OA
ATOM      3  N   ALA A   2       1.849   5.352  19.421  0.00  0.00    +0.000 N 
ATOM      4  H   ALA A   2       0.935   5.347  18.969  0.00  0.00    +0.000 HD
ENDROOT
BRANCH   3   5
ATOM      5  CA  ALA A   2       2.518   6.672  19.529  0.00  0.00    +0.000 C 
ATOM      6  CB  ALA A   2       3.296   7.025  18.262  0.00  0.00    +0.000 C 
BRANCH   5   7
ATOM      7  C   ALA A   2       1.570   7.867  19.937  0.00  0.00    +0.000 C 
ATOM      8  O   ALA A   2       1.121   7.972  21.059  0.00  0.00    +0.000 OA
ATOM      9  N   MET A   3       1.466   8.916  19.036  0.00  0.00    +0.000 N 
ATOM     10  H   MET A   3       1.931   8.788  18.138  0.00  0.00    +0.000 HD
BRANCH   9  11
ATOM     11  CA  MET A   3       0.680  10.211  19.154  0.00  0.00    +0.000 C 
BRANCH  11  12
ATOM     12  C   MET A   3       1.512  11.490  18.937  0.00  0.00    +0.000 C 
ATOM     13  O   MET A   3       1.680  12.351  19.789  0.00  0.00    +0.000 OA
BRANCH  12  14
ATOM     14  OXT MET A   3       2.127  11.569  17.731  0.00  0.00    +0.000 OA
ATOM     15  HXT MET A   3       2.864  12.221  17.738  0.00  0.00    +0.000 HD
ENDBRANCH  12  14
ENDBRANCH  11  12
BRANCH  11  16
ATOM     16  CB  MET A   3      -0.597  10.308  18.234  0.00  0.00    +0.000 C 
BRANCH  16  17
ATOM     17  CG  MET A   3      -1.487  11.555  18.409  0.00  0.00    +0.000 C 
BRANCH  17  18
ATOM     18  SD  MET A   3      -3.152  11.216  17.743  0.00  0.00    +0.000 S 
ATOM     19  CE  MET A   3      -2.755  10.855  16.020  0.00  0.00    +0.000 C 
ENDBRANCH  17  18
ENDBRANCH  16  17
ENDBRANCH  11  16
ENDBRANCH   9  11
ENDBRANCH   5   7
ENDBRANCH   3   5
BRANCH   1  20
ATOM     20  C   UNK A   1       1.389   3.021  20.251  0.00  0.00    +0.000 C 
BRANCH  20  21
ATOM     21  N   UNK A   1       0.087   3.222  19.565  0.00  0.00    +0.000 NA
ATOM     22  H   UNK A   1      -0.430   2.339  19.555  0.00  0.00    +0.000 HD
ATOM     23  H   UNK A   1       0.285   3.432  18.586  0.00  0.00    +0.000 HD
ENDBRANCH  20  21
BRANCH  20  24
ATOM     24  C   UNK A   1       2.263   2.056  19.412  0.00  0.00    +0.000 C 
BRANCH  24  27
ATOM     25  C   UNK A   1       3.474   3.114  17.558  0.00  0.00    +0.000 C 
ATOM     26  O   UNK A   1       2.551   2.971  16.765  0.00  0.00    +0.000 OA
ATOM     27  N   UNK A   1       3.447   2.689  18.857  0.00  0.00    +0.000 N 
ATOM     28  H   UNK A   1       4.322   2.576  19.362  0.00  0.00    +0.000 HD
BRANCH  25  30
ATOM     29  C   UNK A   1       5.503   4.339  18.081  0.00  0.00    +0.000 C 
ATOM     30  C   UNK A   1       4.766   3.726  17.165  0.00  0.00    +0.000 C 
BRANCH  29  31
ATOM     31  C   UNK A   1       6.814   4.896  17.692  0.00  0.00    +0.000 C 
ATOM     32  O   UNK A   1       7.886   4.356  17.901  0.00  0.00    +0.000 OA
BRANCH  31  34
ATOM     33  C   UNK A   1       7.444   7.136  17.579  0.00  0.00    +0.000 C 
ATOM     34  O   UNK A   1       6.604   6.089  17.091  0.00  0.00    +0.000 OA
ENDBRANCH  31  34
ENDBRANCH  29  31
ENDBRANCH  25  30
ENDBRANCH  24  27
ENDBRANCH  20  24
ENDBRANCH   1  20
TORSDOF 15
ENDMDL
MODEL 3
REMARK VINA RESULT:      -6.0      3.469      4.722
REMARK  Name = 
REMARK  18 active torsions:
REMARK  status: ('A' for Active; 'I' for Inactive)
REMARK    1  A    between atoms: C_1  and  O_2
REMARK    2  A    between atoms: O_2  and  C_3
REMARK    3  A    between atoms: C_3  and  C_5
REMARK    4  A    between atoms: C_6  and  C_7
REMARK    5  A    between atoms: N_9  and  C_10
REMARK    6  A    between atoms: C_10  and  C_11
REMARK    7  A    between atoms: C_11  and  N_12
REMARK    8  A    between atoms: C_11  and  C_13
REMARK    9  A    between atoms: N_15  and  CA_16
REMARK   10  A    between atoms: CA_16  and  CB_17
REMARK   11  A    between atoms: CA_16  and  C_18
REMARK   12  A    between atoms: N_20  and  CA_21
REMARK   13  A    between atoms: CA_21  and  CB_22
REMARK   14  A    between atoms: CA_21  and  C_26
REMARK   15  A    between atoms: CB_22  and  CG_23
REMARK   16  A    between atoms: CG_23  and  SD_24
REMARK   17  A    between atoms: SD_24  and  CE_25
REMARK   18  A    between atoms: C_26  and  OXT_28
REMARK                            x       y       z     vdW  Elec       q    Type
REMARK                         _______ _______ _______ _____ _____    ______ ____
ROOT
ATOM      1  C   UNK A   1       5.022   5.868  18.141  0.00  0.00    +0.000 C 
ATOM      2  O   UNK A   1       5.004   5.998  16.914  0.00  0.00    +0.000 OA
ATOM      3  N   ALA A   2       3.906   6.178  18.921  0.00  0.00    +0.000 N 
ATOM      4  H   ALA A   2       4.087   6.490  19.874  0.00  0.00    +0.000 HD
ENDROOT
BRANCH   3   5
ATOM      5  CA  ALA A   2       2.706   6.750  18.263  0.00  0.00    +0.000 C 
ATOM      6  CB  ALA A   2       1.688   5.674  17.891  0.00  0.00    +0.000 C 
BRANCH   5   7
ATOM      7  C   ALA A   2       2.000   7.914  19.063  0.00  0.00    +0.000 C 
ATOM      8  O   ALA A   2       1.799   7.839  20.257  0.00  0.00    +0.000 OA
ATOM      9  N   MET A   3       1.839   9.120  18.397  0.00  0.00    +0.000 N 
ATOM     10  H   MET A   3       2.098   9.130  17.412  0.00  0.00    +0.000 HD
BRANCH   9  11
ATOM     11  CA  MET A   3       1.244  10.424  18.900  0.00  0.00    +0.000 C 
BRANCH  11  12
ATOM     12  C   MET A   3       2.006  11.690  18.461  0.00  0.00    +0.000 C 
ATOM     13  O   MET A   3       2.165  12.675  19.168  0.00  0.00    +0.000 OA
BRANCH  12  14
ATOM     14  OXT MET A   3       2.571  11.613  17.230  0.00  0.00    +0.000 OA
ATOM     15  HXT MET A   3       1.918  11.800  16.517  0.00  0.00    +0.000 HD
ENDBRANCH  12  14
ENDBRANCH  11  12
BRANCH  11  16
ATOM     16  CB  MET A   3      -0.281  10.643  18.564  0.00  0.00    +0.000 C 
BRANCH  16  17
ATOM     17  CG  MET A   3      -1.208  11.006  19.741  0.00  0.00    +0.000 C 
BRANCH  17  18
ATOM     18  SD  MET A   3      -2.574  12.057  19.141  0.00  0.00    +0.000 S 
ATOM     19  CE  MET A   3      -3.212  11.039  17.794  0.00  0.00    +0.000 C 
ENDBRANCH  17  18
ENDBRANCH  16  17
ENDBRANCH  11  16
ENDBRANCH   9  11
ENDBRANCH   5   7
ENDBRANCH   3   5
BRANCH   1  20
ATOM     20  C   UNK A   1       6.232   5.220  18.853  0.00  0.00    +0.000 C 
BRANCH  20  21
ATOM     21  N   UNK A   1       6.066   3.745  18.788  0.00  0.00    +0.000 NA
ATOM     22  H   UNK A   1       6.853   3.338  18.277  0.00  0.00    +0.000 HD
ATOM     23  H   UNK A   1       5.242   3.555  18.216  0.00  0.00    +0.000 HD
ENDBRANCH  20  21
BRANCH  20  24
ATOM     24  C   UNK A   1       7.576   5.611  18.189  0.00  0.00    +0.000 C 
BRANCH  24  27
ATOM     25  C   UNK A   1       8.062   8.014  18.086  0.00  0.00    +0.000 C 
ATOM     26  O   UNK A   1       7.526   8.160  16.994  0.00  0.00    +0.000 OA
ATOM     27  N   UNK A   1       8.160   6.820  18.743  0.00  0.00    +0.000 N 
ATOM     28  H   UNK A   1       8.850   6.713  19.481  0.00  0.00    +0.000 HD
BRANCH  25  30
ATOM     29  C   UNK A   1       8.955  10.270  18.154  0.00  0.00    +0.000 C 
ATOM     30  C   UNK A   1       8.725   9.134  18.797  0.00  0.00    +0.000 C 
BRANCH  29  31
ATOM     31  C   UNK A   1       9.565  11.398  18.885  0.00  0.00    +0.000 C 
ATOM     32  O   UNK A   1      10.128  11.303  19.962  0.00  0.00    +0.000 OA
BRANCH  31  34
ATOM     33  C   UNK A   1      10.532  12.949  17.441  0.00  0.00    +0.000 C 
ATOM     34  O   UNK A   1       9.374  12.524  18.161  0.00  0.00    +0.000 OA
ENDBRANCH  31  34
ENDBRANCH  29  31
ENDBRANCH  25  30
ENDBRANCH  24  27
ENDBRANCH  20  24
ENDBRANCH   1  20
TORSDOF 15
ENDMDL
MODEL 4
REMARK VINA RESULT:      -6.0      2.739      4.929
REMARK  Name = 
REMARK  18 active torsions:
REMARK  status: ('A' for Active; 'I' for Inactive)
REMARK    1  A    between atoms: C_1  and  O_2
REMARK    2  A    between atoms: O_2  and  C_3
REMARK    3  A    between atoms: C_3  and  C_5
REMARK    4  A    between atoms: C_6  and  C_7
REMARK    5  A    between atoms: N_9  and  C_10
REMARK    6  A    between atoms: C_10  and  C_11
REMARK    7  A    between atoms: C_11  and  N_12
REMARK    8  A    between atoms: C_11  and  C_13
REMARK    9  A    between atoms: N_15  and  CA_16
REMARK   10  A    between atoms: CA_16  and  CB_17
REMARK   11  A    between atoms: CA_16  and  C_18
REMARK   12  A    between atoms: N_20  and  CA_21
REMARK   13  A    between atoms: CA_21  and  CB_22
REMARK   14  A    between atoms: CA_21  and  C_26
REMARK   15  A    between atoms: CB_22  and  CG_23
REMARK   16  A    between atoms: CG_23  and  SD_24
REMARK   17  A    between atoms: SD_24  and  CE_25
REMARK   18  A    between atoms: C_26  and  OXT_28
REMARK                            x       y       z     vdW  Elec       q    Type
REMARK                         _______ _______ _______ _____ _____    ______ ____
ROOT
ATOM      1  C   UNK A   1       6.156   4.804  18.705  0.00  0.00    +0.000 C 
ATOM      2  O   UNK A   1       5.667   5.286  19.731  0.00  0.00    +0.000 OA
ATOM      3  N   ALA A   2       5.443   3.902  17.914  0.00  0.00    +0.000 N 
ATOM      4  H   ALA A   2       5.991   3.219  17.392  0.00  0.00    +0.000 HD
ENDROOT
BRANCH   3   5
ATOM      5  CA  ALA A   2       4.101   3.456  18.365  0.00  0.00    +0.000 C 
ATOM      6  CB  ALA A   2       4.132   2.892  19.784  0.00  0.00    +0.000 C 
BRANCH   5   7
ATOM      7  C   ALA A   2       2.961   4.541  18.234  0.00  0.00    +0.000 C 
ATOM      8  O   ALA A   2       1.902   4.294  17.695  0.00  0.00    +0.000 OA
ATOM      9  N   MET A   3       3.122   5.706  18.970  0.00  0.00    +0.000 N 
ATOM     10  H   MET A   3       4.010   5.813  19.459  0.00  0.00    +0.000 HD
BRANCH   9  11
ATOM     11  CA  MET A   3       2.195   6.903  19.090  0.00  0.00    +0.000 C 
BRANCH  11  12
ATOM     12  C   MET A   3       1.760   7.239  20.530  0.00  0.00    +0.000 C 
ATOM     13  O   MET A   3       1.499   8.367  20.923  0.00  0.00    +0.000 OA
BRANCH  12  14
ATOM     14  OXT MET A   3       1.609   6.163  21.341  0.00  0.00    +0.000 OA
ATOM     15  HXT MET A   3       0.862   5.590  21.053  0.00  0.00    +0.000 HD
ENDBRANCH  12  14
ENDBRANCH  11  12
BRANCH  11  16
ATOM     16  CB  MET A   3       2.724   8.233  18.427  0.00  0.00    +0.000 C 
BRANCH  16  17
ATOM     17  CG  MET A   3       1.713   9.047  17.595  0.00  0.00    +0.000 C 
BRANCH  17  18
ATOM     18  SD  MET A   3       1.144  10.486  18.562  0.00  0.00    +0.000 S 
ATOM     19  CE  MET A   3       2.329  11.738  18.026  0.00  0.00    +0.000 C 
ENDBRANCH  17  18
ENDBRANCH  16  17
ENDBRANCH  11  16
ENDBRANCH   9  11
ENDBRANCH   5   7
ENDBRANCH   3   5
BRANCH   1  20
ATOM     20  C   UNK A   1       7.525   5.290  18.175  0.00  0.00    +0.000 C 
BRANCH  20  21
ATOM     21  N   UNK A   1       8.338   4.094  17.838  0.00  0.00    +0.000 NA
ATOM     22  H   UNK A   1       8.308   3.939  16.826  0.00  0.00    +0.000 HD
ATOM     23  H   UNK A   1       7.876   3.284  18.251  0.00  0.00    +0.000 HD
ENDBRANCH  20  21
BRANCH  20  24
ATOM     24  C   UNK A   1       7.379   6.180  16.916  0.00  0.00    +0.000 C 
BRANCH  24  27
ATOM     25  C   UNK A   1       6.192   5.198  15.005  0.00  0.00    +0.000 C 
ATOM     26  O   UNK A   1       5.091   5.568  15.394  0.00  0.00    +0.000 OA
ATOM     27  N   UNK A   1       7.362   5.423  15.676  0.00  0.00    +0.000 N 
ATOM     28  H   UNK A   1       8.177   4.856  15.459  0.00  0.00    +0.000 HD
BRANCH  25  30
ATOM     29  C   UNK A   1       5.318   3.796  13.227  0.00  0.00    +0.000 C 
ATOM     30  C   UNK A   1       6.367   4.400  13.768  0.00  0.00    +0.000 C 
BRANCH  29  31
ATOM     31  C   UNK A   1       5.491   3.050  11.965  0.00  0.00    +0.000 C 
ATOM     32  O   UNK A   1       4.577   2.672  11.253  0.00  0.00    +0.000 OA
BRANCH  31  34
ATOM     33  C   UNK A   1       7.127   1.650  11.077  0.00  0.00    +0.000 C 
ATOM     34  O   UNK A   1       6.815   2.863  11.762  0.00  0.00    +0.000 OA
ENDBRANCH  31  34
ENDBRANCH  29  31
ENDBRANCH  25  30
ENDBRANCH  24  27
ENDBRANCH  20  24
ENDBRANCH   1  20
TORSDOF 15
ENDMDL
MODEL 5
REMARK VINA RESULT:      -6.0      3.333      4.626
REMARK  Name = 
REMARK  18 active torsions:
REMARK  status: ('A' for Active; 'I' for Inactive)
REMARK    1  A    between atoms: C_1  and  O_2
REMARK    2  A    between atoms: O_2  and  C_3
REMARK    3  A    between atoms: C_3  and  C_5
REMARK    4  A    between atoms: C_6  and  C_7
REMARK    5  A    between atoms: N_9  and  C_10
REMARK    6  A    between atoms: C_10  and  C_11
REMARK    7  A    between atoms: C_11  and  N_12
REMARK    8  A    between atoms: C_11  and  C_13
REMARK    9  A    between atoms: N_15  and  CA_16
REMARK   10  A    between atoms: CA_16  and  CB_17
REMARK   11  A    between atoms: CA_16  and  C_18
REMARK   12  A    between atoms: N_20  and  CA_21
REMARK   13  A    between atoms: CA_21  and  CB_22
REMARK   14  A    between atoms: CA_21  and  C_26
REMARK   15  A    between atoms: CB_22  and  CG_23
REMARK   16  A    between atoms: CG_23  and  SD_24
REMARK   17  A    between atoms: SD_24  and  CE_25
REMARK   18  A    between atoms: C_26  and  OXT_28
REMARK                            x       y       z     vdW  Elec       q    Type
REMARK                         _______ _______ _______ _____ _____    ______ ____
ROOT
ATOM      1  C   UNK A   1       4.006   5.207  18.928  0.00  0.00    +0.000 C 
ATOM      2  O   UNK A   1       3.237   4.669  18.127  0.00  0.00    +0.000 OA
ATOM      3  N   ALA A   2       3.591   6.268  19.735  0.00  0.00    +0.000 N 
ATOM      4  H   ALA A   2       4.306   6.940  20.010  0.00  0.00    +0.000 HD
ENDROOT
BRANCH   3   5
ATOM      5  CA  ALA A   2       2.219   6.807  19.562  0.00  0.00    +0.000 C 
ATOM      6  CB  ALA A   2       1.497   6.972  20.897  0.00  0.00    +0.000 C 
BRANCH   5   7
ATOM      7  C   ALA A   2       2.130   8.143  18.725  0.00  0.00    +0.000 C 
ATOM      8  O   ALA A   2       2.675   8.259  17.647  0.00  0.00    +0.000 OA
ATOM      9  N   MET A   3       1.211   9.088  19.155  0.00  0.00    +0.000 N 
ATOM     10  H   MET A   3       0.735   8.888  20.034  0.00  0.00    +0.000 HD
BRANCH   9  11
ATOM     11  CA  MET A   3       0.862  10.436  18.548  0.00  0.00    +0.000 C 
BRANCH  11  12
ATOM     12  C   MET A   3      -0.647  10.744  18.489  0.00  0.00    +0.000 C 
ATOM     13  O   MET A   3      -1.356  10.891  19.474  0.00  0.00    +0.000 OA
BRANCH  12  14
ATOM     14  OXT MET A   3      -1.141  10.920  17.238  0.00  0.00    +0.000 OA
ATOM     15  HXT MET A   3      -2.065  11.259  17.255  0.00  0.00    +0.000 HD
ENDBRANCH  12  14
ENDBRANCH  11  12
BRANCH  11  16
ATOM     16  CB  MET A   3       1.578  11.676  19.209  0.00  0.00    +0.000 C 
BRANCH  16  17
ATOM     17  CG  MET A   3       1.446  13.027  18.477  0.00  0.00    +0.000 C 
BRANCH  17  18
ATOM     18  SD  MET A   3       1.513  14.389  19.691  0.00  0.00    +0.000 S 
ATOM     19  CE  MET A   3       0.474  15.617  18.872  0.00  0.00    +0.000 C 
ENDBRANCH  17  18
ENDBRANCH  16  17
ENDBRANCH  11  16
ENDBRANCH   9  11
ENDBRANCH   5   7
ENDBRANCH   3   5
BRANCH   1  20
ATOM     20  C   UNK A   1       5.421   4.634  19.176  0.00  0.00    +0.000 C 
BRANCH  20  21
ATOM     21  N   UNK A   1       5.324   3.152  19.165  0.00  0.00    +0.000 NA
ATOM     22  H   UNK A   1       5.970   2.765  19.858  0.00  0.00    +0.000 HD
ATOM     23  H   UNK A   1       5.670   2.828  18.261  0.00  0.00    +0.000 HD
ENDBRANCH  20  21
BRANCH  20  24
ATOM     24  C   UNK A   1       6.431   5.087  18.092  0.00  0.00    +0.000 C 
BRANCH  24  27
ATOM     25  C   UNK A   1       7.531   7.259  17.781  0.00  0.00    +0.000 C 
ATOM     26  O   UNK A   1       7.033   7.445  16.676  0.00  0.00    +0.000 OA
ATOM     27  N   UNK A   1       7.322   6.142  18.541  0.00  0.00    +0.000 N 
ATOM     28  H   UNK A   1       7.972   5.921  19.291  0.00  0.00    +0.000 HD
BRANCH  25  30
ATOM     29  C   UNK A   1       8.336   9.517  18.155  0.00  0.00    +0.000 C 
ATOM     30  C   UNK A   1       8.477   8.221  18.394  0.00  0.00    +0.000 C 
BRANCH  29  31
ATOM     31  C   UNK A   1       9.248  10.473  18.815  0.00  0.00    +0.000 C 
ATOM     32  O   UNK A   1       9.452  10.520  20.015  0.00  0.00    +0.000 OA
BRANCH  31  34
ATOM     33  C   UNK A   1       9.123  12.524  17.718  0.00  0.00    +0.000 C 
ATOM     34  O   UNK A   1       9.787  11.268  17.864  0.00  0.00    +0.000 OA
ENDBRANCH  31  34
ENDBRANCH  29  31
ENDBRANCH  25  30
ENDBRANCH  24  27
ENDBRANCH  20  24
ENDBRANCH   1  20
TORSDOF 15
ENDMDL
MODEL 6
REMARK VINA RESULT:      -6.0      1.653      2.259
REMARK  Name = 
REMARK  18 active torsions:
REMARK  status: ('A' for Active; 'I' for Inactive)
REMARK    1  A    between atoms: C_1  and  O_2
REMARK    2  A    between atoms: O_2  and  C_3
REMARK    3  A    between atoms: C_3  and  C_5
REMARK    4  A    between atoms: C_6  and  C_7
REMARK    5  A    between atoms: N_9  and  C_10
REMARK    6  A    between atoms: C_10  and  C_11
REMARK    7  A    between atoms: C_11  and  N_12
REMARK    8  A    between atoms: C_11  and  C_13
REMARK    9  A    between atoms: N_15  and  CA_16
REMARK   10  A    between atoms: CA_16  and  CB_17
REMARK   11  A    between atoms: CA_16  and  C_18
REMARK   12  A    between atoms: N_20  and  CA_21
REMARK   13  A    between atoms: CA_21  and  CB_22
REMARK   14  A    between atoms: CA_21  and  C_26
REMARK   15  A    between atoms: CB_22  and  CG_23
REMARK   16  A    between atoms: CG_23  and  SD_24
REMARK   17  A    between atoms: SD_24  and  CE_25
REMARK   18  A    between atoms: C_26  and  OXT_28
REMARK                            x       y       z     vdW  Elec       q    Type
REMARK                         _______ _______ _______ _____ _____    ______ ____
ROOT
ATOM      1  C   UNK A   1       2.817   5.335  20.068  0.00  0.00    +0.000 C 
ATOM      2  O   UNK A   1       4.038   5.512  20.026  0.00  0.00    +0.000 OA
ATOM      3  N   ALA A   2       1.927   6.287  19.569  0.00  0.00    +0.000 N 
ATOM      4  H   ALA A   2       1.008   6.327  20.008  0.00  0.00    +0.000 HD
ENDROOT
BRANCH   3   5
ATOM      5  CA  ALA A   2       2.462   7.571  19.053  0.00  0.00    +0.000 C 
ATOM      6  CB  ALA A   2       2.938   7.453  17.607  0.00  0.00    +0.000 C 
BRANCH   5   7
ATOM      7  C   ALA A   2       1.492   8.806  19.209  0.00  0.00    +0.000 C 
ATOM      8  O   ALA A   2       0.955   9.323  18.250  0.00  0.00    +0.000 OA
ATOM      9  N   MET A   3       1.088   9.124  20.497  0.00  0.00    +0.000 N 
ATOM     10  H   MET A   3       1.527   8.597  21.251  0.00  0.00    +0.000 HD
BRANCH   9  11
ATOM     11  CA  MET A   3       0.138  10.213  20.966  0.00  0.00    +0.000 C 
BRANCH  11  12
ATOM     12  C   MET A   3      -0.381  10.037  22.406  0.00  0.00    +0.000 C 
ATOM     13  O   MET A   3      -0.660   8.957  22.908  0.00  0.00    +0.000 OA
BRANCH  12  14
ATOM     14  OXT MET A   3      -0.442  11.181  23.131  0.00  0.00    +0.000 OA
ATOM     15  HXT MET A   3      -0.462  11.979  22.554  0.00  0.00    +0.000 HD
ENDBRANCH  12  14
ENDBRANCH  11  12
BRANCH  11  16
ATOM     16  CB  MET A   3       0.685  11.686  20.831  0.00  0.00    +0.000 C 
BRANCH  16  17
ATOM     17  CG  MET A   3       0.083  12.552  19.706  0.00  0.00    +0.000 C 
BRANCH  17  18
ATOM     18  SD  MET A   3      -1.706  12.218  19.569  0.00  0.00    +0.000 S 
ATOM     19  CE  MET A   3      -1.835  11.807  17.816  0.00  0.00    +0.000 C 
ENDBRANCH  17  18
ENDBRANCH  16  17
ENDBRANCH  11  16
ENDBRANCH   9  11
ENDBRANCH   5   7
ENDBRANCH   3   5
BRANCH   1  20
ATOM     20  C   UNK A   1       2.228   3.986  20.543  0.00  0.00    +0.000 C 
BRANCH  20  21
ATOM     21  N   UNK A   1       0.761   4.020  20.315  0.00  0.00    +0.000 NA
ATOM     22  H   UNK A   1       0.574   4.364  19.369  0.00  0.00    +0.000 HD
ATOM     23  H   UNK A   1       0.370   4.724  20.942  0.00  0.00    +0.000 HD
ENDBRANCH  20  21
BRANCH  20  24
ATOM     24  C   UNK A   1       2.836   2.784  19.778  0.00  0.00    +0.000 C 
BRANCH  24  27
ATOM     25  C   UNK A   1       2.980   3.495  17.433  0.00  0.00    +0.000 C 
ATOM     26  O   UNK A   1       1.768   3.444  17.258  0.00  0.00    +0.000 OA
ATOM     27  N   UNK A   1       3.603   3.176  18.608  0.00  0.00    +0.000 N 
ATOM     28  H   UNK A   1       4.596   2.962  18.603  0.00  0.00    +0.000 HD
BRANCH  25  30
ATOM     29  C   UNK A   1       5.086   4.416  16.654  0.00  0.00    +0.000 C 
ATOM     30  C   UNK A   1       3.922   3.860  16.348  0.00  0.00    +0.000 C 
BRANCH  29  31
ATOM     31  C   UNK A   1       6.041   4.725  15.571  0.00  0.00    +0.000 C 
ATOM     32  O   UNK A   1       6.589   5.803  15.418  0.00  0.00    +0.000 OA
BRANCH  31  34
ATOM     33  C   UNK A   1       6.450   3.910  13.428  0.00  0.00    +0.000 C 
ATOM     34  O   UNK A   1       6.176   3.623  14.799  0.00  0.00    +0.000 OA
ENDBRANCH  31  34
ENDBRANCH  29  31
ENDBRANCH  25  30
ENDBRANCH  24  27
ENDBRANCH  20  24
ENDBRANCH   1  20
TORSDOF 15
ENDMDL
MODEL 7
REMARK VINA RESULT:      -6.0      2.736      3.906
REMARK  Name = 
REMARK  18 active torsions:
REMARK  status: ('A' for Active; 'I' for Inactive)
REMARK    1  A    between atoms: C_1  and  O_2
REMARK    2  A    between atoms: O_2  and  C_3
REMARK    3  A    between atoms: C_3  and  C_5
REMARK    4  A    between atoms: C_6  and  C_7
REMARK    5  A    between atoms: N_9  and  C_10
REMARK    6  A    between atoms: C_10  and  C_11
REMARK    7  A    between atoms: C_11  and  N_12
REMARK    8  A    between atoms: C_11  and  C_13
REMARK    9  A    between atoms: N_15  and  CA_16
REMARK   10  A    between atoms: CA_16  and  CB_17
REMARK   11  A    between atoms: CA_16  and  C_18
REMARK   12  A    between atoms: N_20  and  CA_21
REMARK   13  A    between atoms: CA_21  and  CB_22
REMARK   14  A    between atoms: CA_21  and  C_26
REMARK   15  A    between atoms: CB_22  and  CG_23
REMARK   16  A    between atoms: CG_23  and  SD_24
REMARK   17  A    between atoms: SD_24  and  CE_25
REMARK   18  A    between atoms: C_26  and  OXT_28
REMARK                            x       y       z     vdW  Elec       q    Type
REMARK                         _______ _______ _______ _____ _____    ______ ____
ROOT
ATOM      1  C   UNK A   1       4.099   5.039  18.844  0.00  0.00    +0.000 C 
ATOM      2  O   UNK A   1       3.399   4.662  17.899  0.00  0.00    +0.000 OA
ATOM      3  N   ALA A   2       3.591   5.884  19.832  0.00  0.00    +0.000 N 
ATOM      4  H   ALA A   2       4.258   6.504  20.290  0.00  0.00    +0.000 HD
ENDROOT
BRANCH   3   5
ATOM      5  CA  ALA A   2       2.207   6.400  19.694  0.00  0.00    +0.000 C 
ATOM      6  CB  ALA A   2       1.321   5.985  20.868  0.00  0.00    +0.000 C 
BRANCH   5   7
ATOM      7  C   ALA A   2       2.099   7.957  19.454  0.00  0.00    +0.000 C 
ATOM      8  O   ALA A   2       2.608   8.492  18.491  0.00  0.00    +0.000 OA
ATOM      9  N   MET A   3       1.199   8.650  20.250  0.00  0.00    +0.000 N 
ATOM     10  H   MET A   3       0.752   8.118  20.995  0.00  0.00    +0.000 HD
BRANCH   9  11
ATOM     11  CA  MET A   3       0.839  10.126  20.234  0.00  0.00    +0.000 C 
BRANCH  11  12
ATOM     12  C   MET A   3       0.255  10.631  18.901  0.00  0.00    +0.000 C 
ATOM     13  O   MET A   3      -0.941  10.683  18.652  0.00  0.00    +0.000 OA
BRANCH  12  14
ATOM     14  OXT MET A   3       1.174  11.097  18.019  0.00  0.00    +0.000 OA
ATOM     15  HXT MET A   3       1.743  11.793  18.420  0.00  0.00    +0.000 HD
ENDBRANCH  12  14
ENDBRANCH  11  12
BRANCH  11  16
ATOM     16  CB  MET A   3      -0.127  10.595  21.389  0.00  0.00    +0.000 C 
BRANCH  16  17
ATOM     17  CG  MET A   3      -0.141  12.102  21.715  0.00  0.00    +0.000 C 
BRANCH  17  18
ATOM     18  SD  MET A   3      -1.852  12.731  21.627  0.00  0.00    +0.000 S 
ATOM     19  CE  MET A   3      -2.517  12.109  23.185  0.00  0.00    +0.000 C 
ENDBRANCH  17  18
ENDBRANCH  16  17
ENDBRANCH  11  16
ENDBRANCH   9  11
ENDBRANCH   5   7
ENDBRANCH   3   5
BRANCH   1  20
ATOM     20  C   UNK A   1       5.524   4.474  19.050  0.00  0.00    +0.000 C 
BRANCH  20  21
ATOM     21  N   UNK A   1       5.409   3.010  19.271  0.00  0.00    +0.000 NA
ATOM     22  H   UNK A   1       5.528   2.523  18.378  0.00  0.00    +0.000 HD
ATOM     23  H   UNK A   1       4.449   2.818  19.559  0.00  0.00    +0.000 HD
ENDBRANCH  20  21
BRANCH  20  24
ATOM     24  C   UNK A   1       6.437   4.737  17.827  0.00  0.00    +0.000 C 
BRANCH  24  27
ATOM     25  C   UNK A   1       6.320   4.513  15.386  0.00  0.00    +0.000 C 
ATOM     26  O   UNK A   1       6.936   5.552  15.179  0.00  0.00    +0.000 OA
ATOM     27  N   UNK A   1       6.006   4.037  16.628  0.00  0.00    +0.000 N 
ATOM     28  H   UNK A   1       5.266   3.349  16.726  0.00  0.00    +0.000 HD
BRANCH  25  30
ATOM     29  C   UNK A   1       6.237   3.861  13.049  0.00  0.00    +0.000 C 
ATOM     30  C   UNK A   1       5.790   3.675  14.284  0.00  0.00    +0.000 C 
BRANCH  29  31
ATOM     31  C   UNK A   1       5.745   2.984  11.968  0.00  0.00    +0.000 C 
ATOM     32  O   UNK A   1       6.037   1.808  11.843  0.00  0.00    +0.000 OA
BRANCH  31  34
ATOM     33  C   UNK A   1       3.609   3.218  11.070  0.00  0.00    +0.000 C 
ATOM     34  O   UNK A   1       4.944   3.717  11.162  0.00  0.00    +0.000 OA
ENDBRANCH  31  34
ENDBRANCH  29  31
ENDBRANCH  25  30
ENDBRANCH  24  27
ENDBRANCH  20  24
ENDBRANCH   1  20
TORSDOF 15
ENDMDL
MODEL 8
REMARK VINA RESULT:      -6.0      2.734      3.914
REMARK  Name = 
REMARK  18 active torsions:
REMARK  status: ('A' for Active; 'I' for Inactive)
REMARK    1  A    between atoms: C_1  and  O_2
REMARK    2  A    between atoms: O_2  and  C_3
REMARK    3  A    between atoms: C_3  and  C_5
REMARK    4  A    between atoms: C_6  and  C_7
REMARK    5  A    between atoms: N_9  and  C_10
REMARK    6  A    between atoms: C_10  and  C_11
REMARK    7  A    between atoms: C_11  and  N_12
REMARK    8  A    between atoms: C_11  and  C_13
REMARK    9  A    between atoms: N_15  and  CA_16
REMARK   10  A    between atoms: CA_16  and  CB_17
REMARK   11  A    between atoms: CA_16  and  C_18
REMARK   12  A    between atoms: N_20  and  CA_21
REMARK   13  A    between atoms: CA_21  and  CB_22
REMARK   14  A    between atoms: CA_21  and  C_26
REMARK   15  A    between atoms: CB_22  and  CG_23
REMARK   16  A    between atoms: CG_23  and  SD_24
REMARK   17  A    between atoms: SD_24  and  CE_25
REMARK   18  A    between atoms: C_26  and  OXT_28
REMARK                            x       y       z     vdW  Elec       q    Type
REMARK                         _______ _______ _______ _____ _____    ______ ____
ROOT
ATOM      1  C   UNK A   1       3.798   5.187  19.148  0.00  0.00    +0.000 C 
ATOM      2  O   UNK A   1       2.865   4.386  19.258  0.00  0.00    +0.000 OA
ATOM      3  N   ALA A   2       3.579   6.565  19.163  0.00  0.00    +0.000 N 
ATOM      4  H   ALA A   2       4.239   7.139  18.640  0.00  0.00    +0.000 HD
ENDROOT
BRANCH   3   5
ATOM      5  CA  ALA A   2       2.185   7.070  19.232  0.00  0.00    +0.000 C 
ATOM      6  CB  ALA A   2       1.629   7.025  20.654  0.00  0.00    +0.000 C 
BRANCH   5   7
ATOM      7  C   ALA A   2       1.965   8.503  18.606  0.00  0.00    +0.000 C 
ATOM      8  O   ALA A   2       2.211   8.736  17.441  0.00  0.00    +0.000 OA
ATOM      9  N   MET A   3       1.256   9.416  19.372  0.00  0.00    +0.000 N 
ATOM     10  H   MET A   3       1.018   9.123  20.319  0.00  0.00    +0.000 HD
BRANCH   9  11
ATOM     11  CA  MET A   3       0.848  10.840  19.037  0.00  0.00    +0.000 C 
BRANCH  11  12
ATOM     12  C   MET A   3      -0.488  10.965  18.279  0.00  0.00    +0.000 C 
ATOM     13  O   MET A   3      -1.230  11.935  18.352  0.00  0.00    +0.000 OA
BRANCH  12  14
ATOM     14  OXT MET A   3      -0.764   9.933  17.443  0.00  0.00    +0.000 OA
ATOM     15  HXT MET A   3       0.031   9.379  17.273  0.00  0.00    +0.000 HD
ENDBRANCH  12  14
ENDBRANCH  11  12
BRANCH  11  16
ATOM     16  CB  MET A   3       0.797  11.831  20.263  0.00  0.00    +0.000 C 
BRANCH  16  17
ATOM     17  CG  MET A   3       0.160  11.298  21.563  0.00  0.00    +0.000 C 
BRANCH  17  18
ATOM     18  SD  MET A   3      -1.177  12.421  22.093  0.00  0.00    +0.000 S 
ATOM     19  CE  MET A   3      -0.690  13.941  21.249  0.00  0.00    +0.000 C 
ENDBRANCH  17  18
ENDBRANCH  16  17
ENDBRANCH  11  16
ENDBRANCH   9  11
ENDBRANCH   5   7
ENDBRANCH   3   5
BRANCH   1  20
ATOM     20  C   UNK A   1       5.265   4.697  19.134  0.00  0.00    +0.000 C 
BRANCH  20  21
ATOM     21  N   UNK A   1       5.253   3.212  19.147  0.00  0.00    +0.000 NA
ATOM     22  H   UNK A   1       5.754   2.877  19.975  0.00  0.00    +0.000 HD
ATOM     23  H   UNK A   1       5.805   2.894  18.349  0.00  0.00    +0.000 HD
ENDBRANCH  20  21
BRANCH  20  24
ATOM     24  C   UNK A   1       6.032   5.191  17.882  0.00  0.00    +0.000 C 
BRANCH  24  27
ATOM     25  C   UNK A   1       6.580   4.394  15.626  0.00  0.00    +0.000 C 
ATOM     26  O   UNK A   1       7.653   4.986  15.589  0.00  0.00    +0.000 OA
ATOM     27  N   UNK A   1       5.710   4.442  16.679  0.00  0.00    +0.000 N 
ATOM     28  H   UNK A   1       4.739   4.178  16.535  0.00  0.00    +0.000 HD
BRANCH  25  30
ATOM     29  C   UNK A   1       6.209   4.062  13.251  0.00  0.00    +0.000 C 
ATOM     30  C   UNK A   1       6.079   3.593  14.484  0.00  0.00    +0.000 C 
BRANCH  29  31
ATOM     31  C   UNK A   1       5.758   3.232  12.116  0.00  0.00    +0.000 C 
ATOM     32  O   UNK A   1       4.630   3.242  11.655  0.00  0.00    +0.000 OA
BRANCH  31  34
ATOM     33  C   UNK A   1       6.411   1.250  11.081  0.00  0.00    +0.000 C 
ATOM     34  O   UNK A   1       6.800   2.474  11.706  0.00  0.00    +0.000 OA
ENDBRANCH  31  34
ENDBRANCH  29  31
ENDBRANCH  25  30
ENDBRANCH  24  27
ENDBRANCH  20  24
ENDBRANCH   1  20
TORSDOF 15
ENDMDL
MODEL 9
REMARK VINA RESULT:      -5.9      2.948      4.161
REMARK  Name = 
REMARK  18 active torsions:
REMARK  status: ('A' for Active; 'I' for Inactive)
REMARK    1  A    between atoms: C_1  and  O_2
REMARK    2  A    between atoms: O_2  and  C_3
REMARK    3  A    between atoms: C_3  and  C_5
REMARK    4  A    between atoms: C_6  and  C_7
REMARK    5  A    between atoms: N_9  and  C_10
REMARK    6  A    between atoms: C_10  and  C_11
REMARK    7  A    between atoms: C_11  and  N_12
REMARK    8  A    between atoms: C_11  and  C_13
REMARK    9  A    between atoms: N_15  and  CA_16
REMARK   10  A    between atoms: CA_16  and  CB_17
REMARK   11  A    between atoms: CA_16  and  C_18
REMARK   12  A    between atoms: N_20  and  CA_21
REMARK   13  A    between atoms: CA_21  and  CB_22
REMARK   14  A    between atoms: CA_21  and  C_26
REMARK   15  A    between atoms: CB_22  and  CG_23
REMARK   16  A    between atoms: CG_23  and  SD_24
REMARK   17  A    between atoms: SD_24  and  CE_25
REMARK   18  A    between atoms: C_26  and  OXT_28
REMARK                            x       y       z     vdW  Elec       q    Type
REMARK                         _______ _______ _______ _____ _____    ______ ____
ROOT
ATOM      1  C   UNK A   1       4.265   5.600  18.514  0.00  0.00    +0.000 C 
ATOM      2  O   UNK A   1       3.496   4.866  17.888  0.00  0.00    +0.000 OA
ATOM      3  N   ALA A   2       3.787   6.589  19.376  0.00  0.00    +0.000 N 
ATOM      4  H   ALA A   2       4.375   7.413  19.496  0.00  0.00    +0.000 HD
ENDROOT
BRANCH   3   5
ATOM      5  CA  ALA A   2       2.323   6.809  19.474  0.00  0.00    +0.000 C 
ATOM      6  CB  ALA A   2       1.737   6.203  20.747  0.00  0.00    +0.000 C 
BRANCH   5   7
ATOM      7  C   ALA A   2       1.866   8.314  19.326  0.00  0.00    +0.000 C 
ATOM      8  O   ALA A   2       1.901   8.891  18.259  0.00  0.00    +0.000 OA
ATOM      9  N   MET A   3       1.199   8.872  20.406  0.00  0.00    +0.000 N 
ATOM     10  H   MET A   3       1.144   8.299  21.248  0.00  0.00    +0.000 HD
BRANCH   9  11
ATOM     11  CA  MET A   3       0.604  10.261  20.555  0.00  0.00    +0.000 C 
BRANCH  11  12
ATOM     12  C   MET A   3      -0.069  10.813  19.283  0.00  0.00    +0.000 C 
ATOM     13  O   MET A   3       0.291  11.826  18.701  0.00  0.00    +0.000 OA
BRANCH  12  14
ATOM     14  OXT MET A   3      -1.069  10.040  18.790  0.00  0.00    +0.000 OA
ATOM     15  HXT MET A   3      -0.720   9.253  18.313  0.00  0.00    +0.000 HD
ENDBRANCH  12  14
ENDBRANCH  11  12
BRANCH  11  16
ATOM     16  CB  MET A   3      -0.415  10.432  21.747  0.00  0.00    +0.000 C 
BRANCH  16  17
ATOM     17  CG  MET A   3      -0.579  11.853  22.324  0.00  0.00    +0.000 C 
BRANCH  17  18
ATOM     18  SD  MET A   3      -2.227  12.504  21.886  0.00  0.00    +0.000 S 
ATOM     19  CE  MET A   3      -3.110  12.248  23.439  0.00  0.00    +0.000 C 
ENDBRANCH  17  18
ENDBRANCH  16  17
ENDBRANCH  11  16
ENDBRANCH   9  11
ENDBRANCH   5   7
ENDBRANCH   3   5
BRANCH   1  20
ATOM     20  C   UNK A   1       5.793   5.360  18.481  0.00  0.00    +0.000 C 
BRANCH  20  21
ATOM     21  N   UNK A   1       6.042   3.940  18.843  0.00  0.00    +0.000 NA
ATOM     22  H   UNK A   1       5.365   3.345  18.358  0.00  0.00    +0.000 HD
ATOM     23  H   UNK A   1       5.833   3.837  19.836  0.00  0.00    +0.000 HD
ENDBRANCH  20  21
BRANCH  20  24
ATOM     24  C   UNK A   1       6.397   5.644  17.083  0.00  0.00    +0.000 C 
BRANCH  24  27
ATOM     25  C   UNK A   1       6.366   4.674  14.829  0.00  0.00    +0.000 C 
ATOM     26  O   UNK A   1       7.502   5.049  14.563  0.00  0.00    +0.000 OA
ATOM     27  N   UNK A   1       5.728   4.926  16.012  0.00  0.00    +0.000 N 
ATOM     28  H   UNK A   1       4.717   4.845  16.059  0.00  0.00    +0.000 HD
BRANCH  25  30
ATOM     29  C   UNK A   1       6.039   3.599  12.678  0.00  0.00    +0.000 C 
ATOM     30  C   UNK A   1       5.527   3.939  13.852  0.00  0.00    +0.000 C 
BRANCH  29  31
ATOM     31  C   UNK A   1       5.213   2.819  11.734  0.00  0.00    +0.000 C 
ATOM     32  O   UNK A   1       4.140   3.185  11.286  0.00  0.00    +0.000 OA
BRANCH  31  34
ATOM     33  C   UNK A   1       7.211   1.817  11.076  0.00  0.00    +0.000 C 
ATOM     34  O   UNK A   1       5.850   1.654  11.478  0.00  0.00    +0.000 OA
ENDBRANCH  31  34
ENDBRANCH  29  31
ENDBRANCH  25  30
ENDBRANCH  24  27
ENDBRANCH  20  24
ENDBRANCH   1  20
TORSDOF 15
ENDMDL
