MODEL 1
REMARK VINA RESULT:      -7.7      0.000      0.000
REMARK  Name = 
REMARK  4 active torsions:
REMARK  status: ('A' for Active; 'I' for Inactive)
REMARK    1  A    between atoms: C_1  and  C_2
REMARK    2  A    between atoms: C_2  and  N_3
REMARK    3  A    between atoms: C_4  and  C_5
REMARK    4  A    between atoms: C_8  and  N_9
REMARK                            x       y       z     vdW  Elec       q    Type
REMARK                         _______ _______ _______ _____ _____    ______ ____
ROOT
ATOM      1  N   UNL     1       2.955   5.651  17.787  0.00  0.00    +0.000 N 
ATOM      2  C   UNL     1       3.175   6.912  18.330  0.00  0.00    +0.000 A 
ATOM      3  N   UNL     1       4.373   7.346  17.976  0.00  0.00    +0.000 NA
ATOM      4  C   UNL     1       4.978   6.329  17.277  0.00  0.00    +0.000 A 
ATOM      5  C   UNL     1       6.257   6.245  16.695  0.00  0.00    +0.000 A 
ATOM      6  F   UNL     1       7.114   7.275  16.753  0.00  0.00    +0.000 F 
ATOM      7  C   UNL     1       6.657   5.075  16.049  0.00  0.00    +0.000 A 
ATOM      8  C   UNL     1       5.783   3.999  15.982  0.00  0.00    +0.000 A 
ATOM      9  F   UNL     1       6.182   2.874  15.365  0.00  0.00    +0.000 F 
ATOM     10  C   UNL     1       4.500   4.048  16.528  0.00  0.00    +0.000 A 
ATOM     11  C   UNL     1       4.121   5.239  17.168  0.00  0.00    +0.000 A 
ENDROOT
BRANCH   2  12
ATOM     12  C   UNL     1       2.208   7.711  19.107  0.00  0.00    +0.000 A 
ATOM     13  C   UNL     1       1.594   8.852  18.580  0.00  0.00    +0.000 A 
ATOM     14  C   UNL     1       0.810   9.691  19.376  0.00  0.00    +0.000 A 
ATOM     15  C   UNL     1       0.563   9.359  20.711  0.00  0.00    +0.000 A 
ATOM     16  C   UNL     1       1.080   8.162  21.225  0.00  0.00    +0.000 A 
ATOM     17  C   UNL     1       1.897   7.348  20.426  0.00  0.00    +0.000 A 
BRANCH  15  18
ATOM     18  N   UNL     1      -0.190  10.230  21.540  0.00  0.00    +0.000 N 
ATOM     19  C   UNL     1      -0.439  10.126  22.889  0.00  0.00    +0.000 A 
ATOM     20  N   UNL     1      -1.217  11.104  23.293  0.00  0.00    +0.000 NA
ATOM     21  C   UNL     1      -1.430  11.805  22.146  0.00  0.00    +0.000 A 
ATOM     22  N   UNL     1      -0.831  11.326  21.057  0.00  0.00    +0.000 NA
ENDBRANCH  15  18
ENDBRANCH   2  12
BRANCH   1  24
ATOM     23  C   UNL     1       1.627   3.906  18.990  0.00  0.00    +0.000 C 
ATOM     24  C   UNL     1       1.734   4.866  17.816  0.00  0.00    +0.000 C 
ENDBRANCH   1  24
TORSDOF 3
ENDMDL
MODEL 2
REMARK VINA RESULT:      -7.3      3.679      8.475
REMARK  Name = 
REMARK  4 active torsions:
REMARK  status: ('A' for Active; 'I' for Inactive)
REMARK    1  A    between atoms: C_1  and  C_2
REMARK    2  A    between atoms: C_2  and  N_3
REMARK    3  A    between atoms: C_4  and  C_5
REMARK    4  A    between atoms: C_8  and  N_9
REMARK                            x       y       z     vdW  Elec       q    Type
REMARK                         _______ _______ _______ _____ _____    ______ ____
ROOT
ATOM      1  N   UNL     1       0.503   9.682  19.525  0.00  0.00    +0.000 N 
ATOM      2  C   UNL     1       1.295   8.655  20.025  0.00  0.00    +0.000 A 
ATOM      3  N   UNL     1       1.106   8.541  21.329  0.00  0.00    +0.000 NA
ATOM      4  C   UNL     1       0.259   9.558  21.701  0.00  0.00    +0.000 A 
ATOM      5  C   UNL     1      -0.250   9.918  22.964  0.00  0.00    +0.000 A 
ATOM      6  F   UNL     1       0.061   9.213  24.062  0.00  0.00    +0.000 F 
ATOM      7  C   UNL     1      -1.087  11.026  23.091  0.00  0.00    +0.000 A 
ATOM      8  C   UNL     1      -1.416  11.767  21.965  0.00  0.00    +0.000 A 
ATOM      9  F   UNL     1      -2.216  12.838  22.100  0.00  0.00    +0.000 F 
ATOM     10  C   UNL     1      -0.949  11.433  20.693  0.00  0.00    +0.000 A 
ATOM     11  C   UNL     1      -0.112  10.310  20.591  0.00  0.00    +0.000 A 
ENDROOT
BRANCH   2  12
ATOM     12  C   UNL     1       2.153   7.748  19.238  0.00  0.00    +0.000 A 
ATOM     13  C   UNL     1       2.417   6.436  19.643  0.00  0.00    +0.000 A 
ATOM     14  C   UNL     1       3.359   5.644  18.980  0.00  0.00    +0.000 A 
ATOM     15  C   UNL     1       4.006   6.132  17.842  0.00  0.00    +0.000 A 
ATOM     16  C   UNL     1       3.672   7.404  17.357  0.00  0.00    +0.000 A 
ATOM     17  C   UNL     1       2.753   8.204  18.054  0.00  0.00    +0.000 A 
BRANCH  15  18
ATOM     18  N   UNL     1       4.999   5.354  17.192  0.00  0.00    +0.000 N 
ATOM     19  C   UNL     1       4.831   4.267  16.365  0.00  0.00    +0.000 A 
ATOM     20  N   UNL     1       5.994   3.785  15.991  0.00  0.00    +0.000 NA
ATOM     21  C   UNL     1       6.872   4.616  16.616  0.00  0.00    +0.000 A 
ATOM     22  N   UNL     1       6.328   5.585  17.352  0.00  0.00    +0.000 NA
ENDBRANCH  15  18
ENDBRANCH   2  12
BRANCH   1  24
ATOM     23  C   UNL     1      -1.103   9.823  17.612  0.00  0.00    +0.000 C 
ATOM     24  C   UNL     1       0.304  10.062  18.137  0.00  0.00    +0.000 C 
ENDBRANCH   1  24
TORSDOF 3
ENDMDL
MODEL 3
REMARK VINA RESULT:      -7.2      3.023      4.186
REMARK  Name = 
REMARK  4 active torsions:
REMARK  status: ('A' for Active; 'I' for Inactive)
REMARK    1  A    between atoms: C_1  and  C_2
REMARK    2  A    between atoms: C_2  and  N_3
REMARK    3  A    between atoms: C_4  and  C_5
REMARK    4  A    between atoms: C_8  and  N_9
REMARK                            x       y       z     vdW  Elec       q    Type
REMARK                         _______ _______ _______ _____ _____    ______ ____
ROOT
ATOM      1  N   UNL     1       3.543   5.810  19.167  0.00  0.00    +0.000 N 
ATOM      2  C   UNL     1       2.395   6.404  19.677  0.00  0.00    +0.000 A 
ATOM      3  N   UNL     1       1.821   5.589  20.547  0.00  0.00    +0.000 NA
ATOM      4  C   UNL     1       2.542   4.420  20.537  0.00  0.00    +0.000 A 
ATOM      5  C   UNL     1       2.359   3.218  21.247  0.00  0.00    +0.000 A 
ATOM      6  F   UNL     1       1.353   3.078  22.124  0.00  0.00    +0.000 F 
ATOM      7  C   UNL     1       3.225   2.144  21.042  0.00  0.00    +0.000 A 
ATOM      8  C   UNL     1       4.268   2.271  20.136  0.00  0.00    +0.000 A 
ATOM      9  F   UNL     1       5.091   1.227  19.940  0.00  0.00    +0.000 F 
ATOM     10  C   UNL     1       4.497   3.450  19.427  0.00  0.00    +0.000 A 
ATOM     11  C   UNL     1       3.614   4.518  19.656  0.00  0.00    +0.000 A 
ENDROOT
BRANCH   2  12
ATOM     12  C   UNL     1       1.914   7.769  19.389  0.00  0.00    +0.000 A 
ATOM     13  C   UNL     1       2.079   8.365  18.134  0.00  0.00    +0.000 A 
ATOM     14  C   UNL     1       1.769   9.711  17.921  0.00  0.00    +0.000 A 
ATOM     15  C   UNL     1       1.215  10.473  18.952  0.00  0.00    +0.000 A 
ATOM     16  C   UNL     1       0.941   9.863  20.184  0.00  0.00    +0.000 A 
ATOM     17  C   UNL     1       1.291   8.520  20.397  0.00  0.00    +0.000 A 
BRANCH  15  18
ATOM     18  N   UNL     1       0.944  11.853  18.759  0.00  0.00    +0.000 N 
ATOM     19  C   UNL     1       1.837  12.896  18.663  0.00  0.00    +0.000 A 
ATOM     20  N   UNL     1       1.202  14.038  18.531  0.00  0.00    +0.000 NA
ATOM     21  C   UNL     1      -0.103  13.653  18.549  0.00  0.00    +0.000 A 
ATOM     22  N   UNL     1      -0.319  12.345  18.681  0.00  0.00    +0.000 NA
ENDBRANCH  15  18
ENDBRANCH   2  12
BRANCH   1  24
ATOM     23  C   UNL     1       4.505   5.879  16.859  0.00  0.00    +0.000 C 
ATOM     24  C   UNL     1       4.539   6.397  18.288  0.00  0.00    +0.000 C 
ENDBRANCH   1  24
TORSDOF 3
ENDMDL
MODEL 4
REMARK VINA RESULT:      -7.0      2.949      4.200
REMARK  Name = 
REMARK  4 active torsions:
REMARK  status: ('A' for Active; 'I' for Inactive)
REMARK    1  A    between atoms: C_1  and  C_2
REMARK    2  A    between atoms: C_2  and  N_3
REMARK    3  A    between atoms: C_4  and  C_5
REMARK    4  A    between atoms: C_8  and  N_9
REMARK                            x       y       z     vdW  Elec       q    Type
REMARK                         _______ _______ _______ _____ _____    ______ ____
ROOT
ATOM      1  N   UNL     1       3.606   5.736  19.261  0.00  0.00    +0.000 N 
ATOM      2  C   UNL     1       2.466   6.327  19.792  0.00  0.00    +0.000 A 
ATOM      3  N   UNL     1       1.877   5.488  20.628  0.00  0.00    +0.000 NA
ATOM      4  C   UNL     1       2.581   4.309  20.573  0.00  0.00    +0.000 A 
ATOM      5  C   UNL     1       2.377   3.083  21.236  0.00  0.00    +0.000 A 
ATOM      6  F   UNL     1       1.367   2.925  22.105  0.00  0.00    +0.000 F 
ATOM      7  C   UNL     1       3.227   2.005  20.990  0.00  0.00    +0.000 A 
ATOM      8  C   UNL     1       4.274   2.151  20.092  0.00  0.00    +0.000 A 
ATOM      9  F   UNL     1       5.082   1.104  19.856  0.00  0.00    +0.000 F 
ATOM     10  C   UNL     1       4.523   3.354  19.430  0.00  0.00    +0.000 A 
ATOM     11  C   UNL     1       3.656   4.425  19.698  0.00  0.00    +0.000 A 
ENDROOT
BRANCH   2  12
ATOM     12  C   UNL     1       2.006   7.709  19.556  0.00  0.00    +0.000 A 
ATOM     13  C   UNL     1       1.471   8.500  20.579  0.00  0.00    +0.000 A 
ATOM     14  C   UNL     1       0.889   9.742  20.311  0.00  0.00    +0.000 A 
ATOM     15  C   UNL     1       0.899  10.253  19.011  0.00  0.00    +0.000 A 
ATOM     16  C   UNL     1       1.529   9.524  17.993  0.00  0.00    +0.000 A 
ATOM     17  C   UNL     1       2.076   8.261  18.267  0.00  0.00    +0.000 A 
BRANCH  15  18
ATOM     18  N   UNL     1       0.267  11.490  18.721  0.00  0.00    +0.000 N 
ATOM     19  C   UNL     1       0.833  12.741  18.629  0.00  0.00    +0.000 A 
ATOM     20  N   UNL     1      -0.084  13.649  18.388  0.00  0.00    +0.000 NA
ATOM     21  C   UNL     1      -1.224  12.908  18.334  0.00  0.00    +0.000 A 
ATOM     22  N   UNL     1      -1.073  11.598  18.524  0.00  0.00    +0.000 NA
ENDBRANCH  15  18
ENDBRANCH   2  12
BRANCH   1  24
ATOM     23  C   UNL     1       4.515   5.953  16.940  0.00  0.00    +0.000 C 
ATOM     24  C   UNL     1       4.613   6.342  18.407  0.00  0.00    +0.000 C 
ENDBRANCH   1  24
TORSDOF 3
ENDMDL
MODEL 5
REMARK VINA RESULT:      -7.0      1.211      1.675
REMARK  Name = 
REMARK  4 active torsions:
REMARK  status: ('A' for Active; 'I' for Inactive)
REMARK    1  A    between atoms: C_1  and  C_2
REMARK    2  A    between atoms: C_2  and  N_3
REMARK    3  A    between atoms: C_4  and  C_5
REMARK    4  A    between atoms: C_8  and  N_9
REMARK                            x       y       z     vdW  Elec       q    Type
REMARK                         _______ _______ _______ _____ _____    ______ ____
ROOT
ATOM      1  N   UNL     1       2.405   5.835  19.054  0.00  0.00    +0.000 N 
ATOM      2  C   UNL     1       2.502   7.216  18.922  0.00  0.00    +0.000 A 
ATOM      3  N   UNL     1       3.325   7.512  17.930  0.00  0.00    +0.000 NA
ATOM      4  C   UNL     1       3.841   6.324  17.470  0.00  0.00    +0.000 A 
ATOM      5  C   UNL     1       4.776   6.059  16.450  0.00  0.00    +0.000 A 
ATOM      6  F   UNL     1       5.308   7.053  15.723  0.00  0.00    +0.000 F 
ATOM      7  C   UNL     1       5.168   4.747  16.183  0.00  0.00    +0.000 A 
ATOM      8  C   UNL     1       4.629   3.708  16.928  0.00  0.00    +0.000 A 
ATOM      9  F   UNL     1       5.020   2.449  16.669  0.00  0.00    +0.000 F 
ATOM     10  C   UNL     1       3.686   3.926  17.933  0.00  0.00    +0.000 A 
ATOM     11  C   UNL     1       3.304   5.255  18.178  0.00  0.00    +0.000 A 
ENDROOT
BRANCH   2  12
ATOM     12  C   UNL     1       1.746   8.223  19.690  0.00  0.00    +0.000 A 
ATOM     13  C   UNL     1       1.506   8.086  21.062  0.00  0.00    +0.000 A 
ATOM     14  C   UNL     1       0.652   8.958  21.743  0.00  0.00    +0.000 A 
ATOM     15  C   UNL     1       0.074  10.037  21.071  0.00  0.00    +0.000 A 
ATOM     16  C   UNL     1       0.390  10.254  19.723  0.00  0.00    +0.000 A 
ATOM     17  C   UNL     1       1.219   9.350  19.041  0.00  0.00    +0.000 A 
BRANCH  15  18
ATOM     18  N   UNL     1      -0.834  10.898  21.742  0.00  0.00    +0.000 N 
ATOM     19  C   UNL     1      -1.204  10.887  23.067  0.00  0.00    +0.000 A 
ATOM     20  N   UNL     1      -2.103  11.814  23.305  0.00  0.00    +0.000 NA
ATOM     21  C   UNL     1      -2.264  12.388  22.081  0.00  0.00    +0.000 A 
ATOM     22  N   UNL     1      -1.520  11.879  21.100  0.00  0.00    +0.000 NA
ENDBRANCH  15  18
ENDBRANCH   2  12
BRANCH   1  24
ATOM     23  C   UNL     1       2.196   4.499  21.158  0.00  0.00    +0.000 C 
ATOM     24  C   UNL     1       1.522   5.080  19.925  0.00  0.00    +0.000 C 
ENDBRANCH   1  24
TORSDOF 3
ENDMDL
MODEL 6
REMARK VINA RESULT:      -7.0      2.720      4.058
REMARK  Name = 
REMARK  4 active torsions:
REMARK  status: ('A' for Active; 'I' for Inactive)
REMARK    1  A    between atoms: C_1  and  C_2
REMARK    2  A    between atoms: C_2  and  N_3
REMARK    3  A    between atoms: C_4  and  C_5
REMARK    4  A    between atoms: C_8  and  N_9
REMARK                            x       y       z     vdW  Elec       q    Type
REMARK                         _______ _______ _______ _____ _____    ______ ____
ROOT
ATOM      1  N   UNL     1       3.194   5.599  18.326  0.00  0.00    +0.000 N 
ATOM      2  C   UNL     1       2.279   6.287  19.114  0.00  0.00    +0.000 A 
ATOM      3  N   UNL     1       1.710   5.453  19.968  0.00  0.00    +0.000 NA
ATOM      4  C   UNL     1       2.185   4.196  19.677  0.00  0.00    +0.000 A 
ATOM      5  C   UNL     1       1.895   2.945  20.254  0.00  0.00    +0.000 A 
ATOM      6  F   UNL     1       1.038   2.838  21.281  0.00  0.00    +0.000 F 
ATOM      7  C   UNL     1       2.496   1.788  19.758  0.00  0.00    +0.000 A 
ATOM      8  C   UNL     1       3.383   1.882  18.694  0.00  0.00    +0.000 A 
ATOM      9  F   UNL     1       3.950   0.760  18.218  0.00  0.00    +0.000 F 
ATOM     10  C   UNL     1       3.712   3.104  18.107  0.00  0.00    +0.000 A 
ATOM     11  C   UNL     1       3.097   4.253  18.629  0.00  0.00    +0.000 A 
ENDROOT
BRANCH   2  12
ATOM     12  C   UNL     1       2.025   7.740  19.092  0.00  0.00    +0.000 A 
ATOM     13  C   UNL     1       1.520   8.423  20.204  0.00  0.00    +0.000 A 
ATOM     14  C   UNL     1       1.129   9.762  20.120  0.00  0.00    +0.000 A 
ATOM     15  C   UNL     1       1.308  10.471  18.930  0.00  0.00    +0.000 A 
ATOM     16  C   UNL     1       1.915   9.833  17.839  0.00  0.00    +0.000 A 
ATOM     17  C   UNL     1       2.268   8.478  17.923  0.00  0.00    +0.000 A 
BRANCH  15  18
ATOM     18  N   UNL     1       0.869  11.816  18.821  0.00  0.00    +0.000 N 
ATOM     19  C   UNL     1       1.588  12.971  19.026  0.00  0.00    +0.000 A 
ATOM     20  N   UNL     1       0.822  14.027  18.873  0.00  0.00    +0.000 NA
ATOM     21  C   UNL     1      -0.383  13.474  18.568  0.00  0.00    +0.000 A 
ATOM     22  N   UNL     1      -0.414  12.143  18.519  0.00  0.00    +0.000 NA
ENDBRANCH  15  18
ENDBRANCH   2  12
BRANCH   1  24
ATOM     23  C   UNL     1       5.561   6.253  17.848  0.00  0.00    +0.000 C 
ATOM     24  C   UNL     1       4.127   6.144  17.355  0.00  0.00    +0.000 C 
ENDBRANCH   1  24
TORSDOF 3
ENDMDL
MODEL 7
REMARK VINA RESULT:      -7.0      1.110      1.196
REMARK  Name = 
REMARK  4 active torsions:
REMARK  status: ('A' for Active; 'I' for Inactive)
REMARK    1  A    between atoms: C_1  and  C_2
REMARK    2  A    between atoms: C_2  and  N_3
REMARK    3  A    between atoms: C_4  and  C_5
REMARK    4  A    between atoms: C_8  and  N_9
REMARK                            x       y       z     vdW  Elec       q    Type
REMARK                         _______ _______ _______ _____ _____    ______ ____
ROOT
ATOM      1  N   UNL     1       2.503   5.726  18.801  0.00  0.00    +0.000 N 
ATOM      2  C   UNL     1       2.572   7.113  18.744  0.00  0.00    +0.000 A 
ATOM      3  N   UNL     1       3.423   7.478  17.799  0.00  0.00    +0.000 NA
ATOM      4  C   UNL     1       3.983   6.328  17.298  0.00  0.00    +0.000 A 
ATOM      5  C   UNL     1       4.960   6.136  16.302  0.00  0.00    +0.000 A 
ATOM      6  F   UNL     1       5.494   7.178  15.647  0.00  0.00    +0.000 F 
ATOM      7  C   UNL     1       5.392   4.849  15.983  0.00  0.00    +0.000 A 
ATOM      8  C   UNL     1       4.850   3.761  16.653  0.00  0.00    +0.000 A 
ATOM      9  F   UNL     1       5.280   2.526  16.344  0.00  0.00    +0.000 F 
ATOM     10  C   UNL     1       3.867   3.906  17.632  0.00  0.00    +0.000 A 
ATOM     11  C   UNL     1       3.446   5.211  17.931  0.00  0.00    +0.000 A 
ENDROOT
BRANCH   2  12
ATOM     12  C   UNL     1       1.765   8.062  19.534  0.00  0.00    +0.000 A 
ATOM     13  C   UNL     1       1.151   9.178  18.955  0.00  0.00    +0.000 A 
ATOM     14  C   UNL     1       0.530  10.155  19.737  0.00  0.00    +0.000 A 
ATOM     15  C   UNL     1       0.448   9.996  21.123  0.00  0.00    +0.000 A 
ATOM     16  C   UNL     1       0.961   8.830  21.709  0.00  0.00    +0.000 A 
ATOM     17  C   UNL     1       1.616   7.874  20.917  0.00  0.00    +0.000 A 
BRANCH  15  18
ATOM     18  N   UNL     1      -0.136  11.007  21.929  0.00  0.00    +0.000 N 
ATOM     19  C   UNL     1      -0.987  10.863  23.001  0.00  0.00    +0.000 A 
ATOM     20  N   UNL     1      -1.351  12.036  23.464  0.00  0.00    +0.000 NA
ATOM     21  C   UNL     1      -0.692  12.895  22.640  0.00  0.00    +0.000 A 
ATOM     22  N   UNL     1       0.060  12.331  21.697  0.00  0.00    +0.000 NA
ENDBRANCH  15  18
ENDBRANCH   2  12
BRANCH   1  24
ATOM     23  C   UNL     1       2.221   4.361  20.878  0.00  0.00    +0.000 C 
ATOM     24  C   UNL     1       1.607   4.907  19.599  0.00  0.00    +0.000 C 
ENDBRANCH   1  24
TORSDOF 3
ENDMDL
MODEL 8
REMARK VINA RESULT:      -7.0      1.464      2.165
REMARK  Name = 
REMARK  4 active torsions:
REMARK  status: ('A' for Active; 'I' for Inactive)
REMARK    1  A    between atoms: C_1  and  C_2
REMARK    2  A    between atoms: C_2  and  N_3
REMARK    3  A    between atoms: C_4  and  C_5
REMARK    4  A    between atoms: C_8  and  N_9
REMARK                            x       y       z     vdW  Elec       q    Type
REMARK                         _______ _______ _______ _____ _____    ______ ____
ROOT
ATOM      1  N   UNL     1       2.135   5.427  19.480  0.00  0.00    +0.000 N 
ATOM      2  C   UNL     1       2.369   6.768  19.198  0.00  0.00    +0.000 A 
ATOM      3  N   UNL     1       3.186   6.870  18.163  0.00  0.00    +0.000 NA
ATOM      4  C   UNL     1       3.563   5.592  17.824  0.00  0.00    +0.000 A 
ATOM      5  C   UNL     1       4.434   5.125  16.820  0.00  0.00    +0.000 A 
ATOM      6  F   UNL     1       5.042   5.975  15.980  0.00  0.00    +0.000 F 
ATOM      7  C   UNL     1       4.681   3.758  16.689  0.00  0.00    +0.000 A 
ATOM      8  C   UNL     1       4.062   2.866  17.552  0.00  0.00    +0.000 A 
ATOM      9  F   UNL     1       4.314   1.552  17.422  0.00  0.00    +0.000 F 
ATOM     10  C   UNL     1       3.178   3.286  18.546  0.00  0.00    +0.000 A 
ATOM     11  C   UNL     1       2.942   4.666  18.654  0.00  0.00    +0.000 A 
ENDROOT
BRANCH   2  12
ATOM     12  C   UNL     1       1.743   7.924  19.868  0.00  0.00    +0.000 A 
ATOM     13  C   UNL     1       1.445   7.920  21.235  0.00  0.00    +0.000 A 
ATOM     14  C   UNL     1       0.706   8.950  21.822  0.00  0.00    +0.000 A 
ATOM     15  C   UNL     1       0.312  10.052  21.059  0.00  0.00    +0.000 A 
ATOM     16  C   UNL     1       0.697  10.126  19.713  0.00  0.00    +0.000 A 
ATOM     17  C   UNL     1       1.406   9.067  19.126  0.00  0.00    +0.000 A 
BRANCH  15  18
ATOM     18  N   UNL     1      -0.481  11.078  21.635  0.00  0.00    +0.000 N 
ATOM     19  C   UNL     1      -1.293  11.991  21.002  0.00  0.00    +0.000 A 
ATOM     20  N   UNL     1      -1.831  12.814  21.872  0.00  0.00    +0.000 NA
ATOM     21  C   UNL     1      -1.321  12.369  23.053  0.00  0.00    +0.000 A 
ATOM     22  N   UNL     1      -0.503  11.321  22.971  0.00  0.00    +0.000 NA
ENDBRANCH  15  18
ENDBRANCH   2  12
BRANCH   1  24
ATOM     23  C   UNL     1       1.833   3.894  21.434  0.00  0.00    +0.000 C 
ATOM     24  C   UNL     1       1.206   4.864  20.445  0.00  0.00    +0.000 C 
ENDBRANCH   1  24
TORSDOF 3
ENDMDL
MODEL 9
REMARK VINA RESULT:      -6.9      3.728      8.481
REMARK  Name = 
REMARK  4 active torsions:
REMARK  status: ('A' for Active; 'I' for Inactive)
REMARK    1  A    between atoms: C_1  and  C_2
REMARK    2  A    between atoms: C_2  and  N_3
REMARK    3  A    between atoms: C_4  and  C_5
REMARK    4  A    between atoms: C_8  and  N_9
REMARK                            x       y       z     vdW  Elec       q    Type
REMARK                         _______ _______ _______ _____ _____    ______ ____
ROOT
ATOM      1  N   UNL     1       0.188  10.009  19.520  0.00  0.00    +0.000 N 
ATOM      2  C   UNL     1       1.048   9.061  20.063  0.00  0.00    +0.000 A 
ATOM      3  N   UNL     1       0.848   8.974  21.368  0.00  0.00    +0.000 NA
ATOM      4  C   UNL     1      -0.079   9.934  21.696  0.00  0.00    +0.000 A 
ATOM      5  C   UNL     1      -0.632  10.294  22.940  0.00  0.00    +0.000 A 
ATOM      6  F   UNL     1      -0.285   9.649  24.064  0.00  0.00    +0.000 F 
ATOM      7  C   UNL     1      -1.553  11.338  23.021  0.00  0.00    +0.000 A 
ATOM      8  C   UNL     1      -1.920  12.017  21.867  0.00  0.00    +0.000 A 
ATOM      9  F   UNL     1      -2.802  13.027  21.958  0.00  0.00    +0.000 F 
ATOM     10  C   UNL     1      -1.411  11.679  20.613  0.00  0.00    +0.000 A 
ATOM     11  C   UNL     1      -0.490  10.621  20.558  0.00  0.00    +0.000 A 
ENDROOT
BRANCH   2  12
ATOM     12  C   UNL     1       1.983   8.199  19.316  0.00  0.00    +0.000 A 
ATOM     13  C   UNL     1       2.546   8.593  18.097  0.00  0.00    +0.000 A 
ATOM     14  C   UNL     1       3.297   7.706  17.321  0.00  0.00    +0.000 A 
ATOM     15  C   UNL     1       3.563   6.418  17.790  0.00  0.00    +0.000 A 
ATOM     16  C   UNL     1       3.100   6.042  19.059  0.00  0.00    +0.000 A 
ATOM     17  C   UNL     1       2.315   6.928  19.812  0.00  0.00    +0.000 A 
BRANCH  15  18
ATOM     18  N   UNL     1       4.282   5.495  16.987  0.00  0.00    +0.000 N 
ATOM     19  C   UNL     1       4.351   4.126  17.108  0.00  0.00    +0.000 A 
ATOM     20  N   UNL     1       5.156   3.621  16.202  0.00  0.00    +0.000 NA
ATOM     21  C   UNL     1       5.571   4.727  15.528  0.00  0.00    +0.000 A 
ATOM     22  N   UNL     1       5.073   5.886  15.955  0.00  0.00    +0.000 NA
ENDBRANCH  15  18
ENDBRANCH   2  12
BRANCH   1  24
ATOM     23  C   UNL     1      -1.326   9.811  17.538  0.00  0.00    +0.000 C 
ATOM     24  C   UNL     1      -0.019  10.329  18.119  0.00  0.00    +0.000 C 
ENDBRANCH   1  24
TORSDOF 3
ENDMDL
