MODEL 1
REMARK VINA RESULT:      -8.9      0.000      0.000
REMARK  Name = 
REMARK  4 active torsions:
REMARK  status: ('A' for Active; 'I' for Inactive)
REMARK    1  A    between atoms: C_1  and  C_2
REMARK    2  A    between atoms: C_4  and  N_5
REMARK    3  A    between atoms: C_21  and  N_22
REMARK    4  A    between atoms: C_23  and  C_25
REMARK                            x       y       z     vdW  Elec       q    Type
REMARK                         _______ _______ _______ _____ _____    ______ ____
ROOT
ATOM      1  C   UNL     1      -2.503   9.933  16.621  0.00  0.00    +0.000 C 
ATOM      2  C   UNL     1      -2.033  10.603  17.877  0.00  0.00    +0.000 A 
ATOM      3  C   UNL     1      -2.862  11.560  18.469  0.00  0.00    +0.000 A 
ATOM      4  C   UNL     1      -2.489  12.230  19.626  0.00  0.00    +0.000 A 
ATOM      5  N   UNL     1      -1.313  11.934  20.213  0.00  0.00    +0.000 NA
ATOM      6  C   UNL     1      -0.491  11.012  19.666  0.00  0.00    +0.000 A 
ATOM      7  C   UNL     1       0.711  10.737  20.287  0.00  0.00    +0.000 A 
ATOM      8  C   UNL     1       1.606   9.786  19.774  0.00  0.00    +0.000 A 
ATOM      9  C   UNL     1       1.321   9.079  18.610  0.00  0.00    +0.000 A 
ATOM     10  C   UNL     1       0.107   9.342  17.975  0.00  0.00    +0.000 A 
ATOM     11  C   UNL     1      -0.803  10.307  18.486  0.00  0.00    +0.000 A 
ENDROOT
BRANCH   4  12
ATOM     12  N   UNL     1      -3.343  13.143  20.205  0.00  0.00    +0.000 N 
ATOM     13  C   UNL     1      -4.808  13.109  20.048  0.00  0.00    +0.000 C 
ATOM     14  C   UNL     1      -5.489  13.344  21.414  0.00  0.00    +0.000 C 
ATOM     15  N   UNL     1      -4.964  14.561  22.028  0.00  0.00    +0.000 N 
ATOM     16  C   UNL     1      -5.793  15.514  22.550  0.00  0.00    +0.000 A 
ATOM     17  N   UNL     1      -7.123  15.347  22.452  0.00  0.00    +0.000 NA
ATOM     18  C   UNL     1      -7.916  16.316  22.945  0.00  0.00    +0.000 A 
ATOM     19  C   UNL     1      -7.440  17.457  23.536  0.00  0.00    +0.000 A 
ATOM     20  C   UNL     1      -6.075  17.548  23.597  0.00  0.00    +0.000 A 
ATOM     21  N   UNL     1      -5.247  16.602  23.119  0.00  0.00    +0.000 NA
ATOM     22  C   UNL     1      -3.505  14.667  22.136  0.00  0.00    +0.000 C 
ATOM     23  C   UNL     1      -2.836  14.410  20.759  0.00  0.00    +0.000 C 
ENDBRANCH   4  12
BRANCH   9  24
ATOM     24  N   UNL     1       2.175   8.103  18.038  0.00  0.00    +0.000 N 
ATOM     25  C   UNL     1       2.528   6.901  18.629  0.00  0.00    +0.000 C 
ATOM     26  O   UNL     1       2.136   6.501  19.721  0.00  0.00    +0.000 OA
ATOM     27  H   UNL     1       2.520   8.299  17.109  0.00  0.00    +0.000 HD
BRANCH  25  28
ATOM     28  C   UNL     1       3.450   5.993  17.887  0.00  0.00    +0.000 A 
ATOM     29  C   UNL     1       3.237   4.606  17.738  0.00  0.00    +0.000 A 
ATOM     30  C   UNL     1       4.100   3.839  16.936  0.00  0.00    +0.000 A 
ATOM     31  C   UNL     1       5.152   4.479  16.313  0.00  0.00    +0.000 A 
ATOM     32  C   UNL     1       5.364   5.827  16.461  0.00  0.00    +0.000 A 
ATOM     33  C   UNL     1       4.537   6.606  17.235  0.00  0.00    +0.000 A 
ATOM     34  O   UNL     1       6.437   6.271  15.757  0.00  0.00    +0.000 OA
ATOM     35  C   UNL     1       6.909   5.038  15.181  0.00  0.00    +0.000 C 
ATOM     36  O   UNL     1       6.069   3.904  15.490  0.00  0.00    +0.000 OA
ENDBRANCH  25  28
ENDBRANCH   9  24
TORSDOF 3
ENDMDL
MODEL 2
REMARK VINA RESULT:      -8.8      2.059      2.517
REMARK  Name = 
REMARK  4 active torsions:
REMARK  status: ('A' for Active; 'I' for Inactive)
REMARK    1  A    between atoms: C_1  and  C_2
REMARK    2  A    between atoms: C_4  and  N_5
REMARK    3  A    between atoms: C_21  and  N_22
REMARK    4  A    between atoms: C_23  and  C_25
REMARK                            x       y       z     vdW  Elec       q    Type
REMARK                         _______ _______ _______ _____ _____    ______ ____
ROOT
ATOM      1  C   UNL     1      -0.376   8.645  22.157  0.00  0.00    +0.000 C 
ATOM      2  C   UNL     1      -0.250   9.983  21.492  0.00  0.00    +0.000 A 
ATOM      3  C   UNL     1      -0.913  11.072  22.064  0.00  0.00    +0.000 A 
ATOM      4  C   UNL     1      -0.852  12.340  21.499  0.00  0.00    +0.000 A 
ATOM      5  N   UNL     1      -0.114  12.535  20.388  0.00  0.00    +0.000 NA
ATOM      6  C   UNL     1       0.539  11.501  19.814  0.00  0.00    +0.000 A 
ATOM      7  C   UNL     1       1.280  11.732  18.672  0.00  0.00    +0.000 A 
ATOM      8  C   UNL     1       1.988  10.704  18.032  0.00  0.00    +0.000 A 
ATOM      9  C   UNL     1       1.970   9.401  18.519  0.00  0.00    +0.000 A 
ATOM     10  C   UNL     1       1.230   9.154  19.675  0.00  0.00    +0.000 A 
ATOM     11  C   UNL     1       0.507  10.189  20.328  0.00  0.00    +0.000 A 
ENDROOT
BRANCH   4  12
ATOM     12  N   UNL     1      -1.488  13.401  22.105  0.00  0.00    +0.000 N 
ATOM     13  C   UNL     1      -2.945  13.616  22.060  0.00  0.00    +0.000 C 
ATOM     14  C   UNL     1      -3.464  13.999  23.463  0.00  0.00    +0.000 C 
ATOM     15  N   UNL     1      -2.692  15.122  23.989  0.00  0.00    +0.000 N 
ATOM     16  C   UNL     1      -3.301  16.216  24.535  0.00  0.00    +0.000 A 
ATOM     17  N   UNL     1      -4.644  16.280  24.544  0.00  0.00    +0.000 NA
ATOM     18  C   UNL     1      -5.218  17.383  25.058  0.00  0.00    +0.000 A 
ATOM     19  C   UNL     1      -4.509  18.438  25.567  0.00  0.00    +0.000 A 
ATOM     20  C   UNL     1      -3.148  18.294  25.521  0.00  0.00    +0.000 A 
ATOM     21  N   UNL     1      -2.535  17.208  25.019  0.00  0.00    +0.000 NA
ATOM     22  C   UNL     1      -1.232  14.977  23.982  0.00  0.00    +0.000 C 
ATOM     23  C   UNL     1      -0.730  14.575  22.570  0.00  0.00    +0.000 C 
ENDBRANCH   4  12
BRANCH   9  24
ATOM     24  N   UNL     1       2.662   8.316  17.926  0.00  0.00    +0.000 N 
ATOM     25  C   UNL     1       2.909   7.095  18.533  0.00  0.00    +0.000 C 
ATOM     26  O   UNL     1       2.545   6.772  19.659  0.00  0.00    +0.000 OA
ATOM     27  H   UNL     1       2.966   8.445  16.972  0.00  0.00    +0.000 HD
BRANCH  25  28
ATOM     28  C   UNL     1       3.666   6.064  17.765  0.00  0.00    +0.000 A 
ATOM     29  C   UNL     1       3.337   4.691  17.754  0.00  0.00    +0.000 A 
ATOM     30  C   UNL     1       4.038   3.801  16.922  0.00  0.00    +0.000 A 
ATOM     31  C   UNL     1       5.049   4.308  16.131  0.00  0.00    +0.000 A 
ATOM     32  C   UNL     1       5.374   5.642  16.144  0.00  0.00    +0.000 A 
ATOM     33  C   UNL     1       4.706   6.539  16.944  0.00  0.00    +0.000 A 
ATOM     34  O   UNL     1       6.382   5.946  15.286  0.00  0.00    +0.000 OA
ATOM     35  C   UNL     1       6.691   4.640  14.761  0.00  0.00    +0.000 C 
ATOM     36  O   UNL     1       5.815   3.603  15.257  0.00  0.00    +0.000 OA
ENDBRANCH  25  28
ENDBRANCH   9  24
TORSDOF 3
ENDMDL
MODEL 3
REMARK VINA RESULT:      -8.7      1.332      2.489
REMARK  Name = 
REMARK  4 active torsions:
REMARK  status: ('A' for Active; 'I' for Inactive)
REMARK    1  A    between atoms: C_1  and  C_2
REMARK    2  A    between atoms: C_4  and  N_5
REMARK    3  A    between atoms: C_21  and  N_22
REMARK    4  A    between atoms: C_23  and  C_25
REMARK                            x       y       z     vdW  Elec       q    Type
REMARK                         _______ _______ _______ _____ _____    ______ ____
ROOT
ATOM      1  C   UNL     1       1.221   9.193  22.955  0.00  0.00    +0.000 C 
ATOM      2  C   UNL     1       0.414  10.004  21.985  0.00  0.00    +0.000 A 
ATOM      3  C   UNL     1      -0.471  10.959  22.493  0.00  0.00    +0.000 A 
ATOM      4  C   UNL     1      -1.259  11.739  21.657  0.00  0.00    +0.000 A 
ATOM      5  N   UNL     1      -1.151  11.596  20.322  0.00  0.00    +0.000 NA
ATOM      6  C   UNL     1      -0.303  10.682  19.801  0.00  0.00    +0.000 A 
ATOM      7  C   UNL     1      -0.221  10.554  18.429  0.00  0.00    +0.000 A 
ATOM      8  C   UNL     1       0.644   9.631  17.824  0.00  0.00    +0.000 A 
ATOM      9  C   UNL     1       1.458   8.797  18.585  0.00  0.00    +0.000 A 
ATOM     10  C   UNL     1       1.391   8.919  19.973  0.00  0.00    +0.000 A 
ATOM     11  C   UNL     1       0.513   9.850  20.593  0.00  0.00    +0.000 A 
ENDROOT
BRANCH   4  12
ATOM     12  N   UNL     1      -2.096  12.696  22.187  0.00  0.00    +0.000 N 
ATOM     13  C   UNL     1      -1.855  13.374  23.473  0.00  0.00    +0.000 C 
ATOM     14  C   UNL     1      -2.112  14.890  23.325  0.00  0.00    +0.000 C 
ATOM     15  N   UNL     1      -3.435  15.116  22.748  0.00  0.00    +0.000 N 
ATOM     16  C   UNL     1      -4.310  16.012  23.294  0.00  0.00    +0.000 A 
ATOM     17  N   UNL     1      -3.962  16.664  24.416  0.00  0.00    +0.000 NA
ATOM     18  C   UNL     1      -4.855  17.517  24.952  0.00  0.00    +0.000 A 
ATOM     19  C   UNL     1      -6.094  17.750  24.416  0.00  0.00    +0.000 A 
ATOM     20  C   UNL     1      -6.369  17.047  23.274  0.00  0.00    +0.000 A 
ATOM     21  N   UNL     1      -5.505  16.188  22.705  0.00  0.00    +0.000 NA
ATOM     22  C   UNL     1      -3.742  14.400  21.505  0.00  0.00    +0.000 C 
ATOM     23  C   UNL     1      -3.461  12.882  21.666  0.00  0.00    +0.000 C 
ENDBRANCH   4  12
BRANCH   9  24
ATOM     24  N   UNL     1       2.357   7.845  18.043  0.00  0.00    +0.000 N 
ATOM     25  C   UNL     1       2.584   6.576  18.551  0.00  0.00    +0.000 C 
ATOM     26  O   UNL     1       2.024   6.089  19.528  0.00  0.00    +0.000 OA
ATOM     27  H   UNL     1       2.840   8.115  17.198  0.00  0.00    +0.000 HD
BRANCH  25  28
ATOM     28  C   UNL     1       3.578   5.705  17.859  0.00  0.00    +0.000 A 
ATOM     29  C   UNL     1       3.519   4.295  17.854  0.00  0.00    +0.000 A 
ATOM     30  C   UNL     1       4.436   3.550  17.091  0.00  0.00    +0.000 A 
ATOM     31  C   UNL     1       5.385   4.236  16.362  0.00  0.00    +0.000 A 
ATOM     32  C   UNL     1       5.447   5.607  16.369  0.00  0.00    +0.000 A 
ATOM     33  C   UNL     1       4.564   6.365  17.102  0.00  0.00    +0.000 A 
ATOM     34  O   UNL     1       6.438   6.094  15.577  0.00  0.00    +0.000 OA
ATOM     35  C   UNL     1       7.027   4.868  15.102  0.00  0.00    +0.000 C 
ATOM     36  O   UNL     1       6.333   3.685  15.558  0.00  0.00    +0.000 OA
ENDBRANCH  25  28
ENDBRANCH   9  24
TORSDOF 3
ENDMDL
MODEL 4
REMARK VINA RESULT:      -8.5      1.413      1.863
REMARK  Name = 
REMARK  4 active torsions:
REMARK  status: ('A' for Active; 'I' for Inactive)
REMARK    1  A    between atoms: C_1  and  C_2
REMARK    2  A    between atoms: C_4  and  N_5
REMARK    3  A    between atoms: C_21  and  N_22
REMARK    4  A    between atoms: C_23  and  C_25
REMARK                            x       y       z     vdW  Elec       q    Type
REMARK                         _______ _______ _______ _____ _____    ______ ____
ROOT
ATOM      1  C   UNL     1      -1.598  10.730  17.660  0.00  0.00    +0.000 C 
ATOM      2  C   UNL     1      -1.315  11.004  19.106  0.00  0.00    +0.000 A 
ATOM      3  C   UNL     1      -2.050  12.003  19.750  0.00  0.00    +0.000 A 
ATOM      4  C   UNL     1      -1.836  12.320  21.085  0.00  0.00    +0.000 A 
ATOM      5  N   UNL     1      -0.917  11.631  21.790  0.00  0.00    +0.000 NA
ATOM      6  C   UNL     1      -0.192  10.658  21.196  0.00  0.00    +0.000 A 
ATOM      7  C   UNL     1       0.748   9.976  21.943  0.00  0.00    +0.000 A 
ATOM      8  C   UNL     1       1.528   8.951  21.389  0.00  0.00    +0.000 A 
ATOM      9  C   UNL     1       1.392   8.578  20.055  0.00  0.00    +0.000 A 
ATOM     10  C   UNL     1       0.442   9.254  19.289  0.00  0.00    +0.000 A 
ATOM     11  C   UNL     1      -0.350  10.297  19.842  0.00  0.00    +0.000 A 
ENDROOT
BRANCH   4  12
ATOM     12  N   UNL     1      -2.600  13.286  21.700  0.00  0.00    +0.000 N 
ATOM     13  C   UNL     1      -2.674  13.466  23.161  0.00  0.00    +0.000 C 
ATOM     14  C   UNL     1      -2.568  14.966  23.513  0.00  0.00    +0.000 C 
ATOM     15  N   UNL     1      -3.555  15.726  22.749  0.00  0.00    +0.000 N 
ATOM     16  C   UNL     1      -4.372  16.643  23.348  0.00  0.00    +0.000 A 
ATOM     17  N   UNL     1      -4.296  16.814  24.678  0.00  0.00    +0.000 NA
ATOM     18  C   UNL     1      -5.134  17.701  25.247  0.00  0.00    +0.000 A 
ATOM     19  C   UNL     1      -6.055  18.431  24.544  0.00  0.00    +0.000 A 
ATOM     20  C   UNL     1      -6.067  18.198  23.195  0.00  0.00    +0.000 A 
ATOM     21  N   UNL     1      -5.246  17.324  22.587  0.00  0.00    +0.000 NA
ATOM     22  C   UNL     1      -3.565  15.519  21.296  0.00  0.00    +0.000 C 
ATOM     23  C   UNL     1      -3.652  14.006  20.962  0.00  0.00    +0.000 C 
ENDBRANCH   4  12
BRANCH   9  24
ATOM     24  N   UNL     1       2.142   7.551  19.431  0.00  0.00    +0.000 N 
ATOM     25  C   UNL     1       2.761   7.647  18.195  0.00  0.00    +0.000 C 
ATOM     26  O   UNL     1       2.765   8.642  17.476  0.00  0.00    +0.000 OA
ATOM     27  H   UNL     1       2.255   6.695  19.956  0.00  0.00    +0.000 HD
BRANCH  25  28
ATOM     28  C   UNL     1       3.504   6.460  17.681  0.00  0.00    +0.000 A 
ATOM     29  C   UNL     1       3.063   5.128  17.835  0.00  0.00    +0.000 A 
ATOM     30  C   UNL     1       3.770   4.074  17.232  0.00  0.00    +0.000 A 
ATOM     31  C   UNL     1       4.897   4.382  16.497  0.00  0.00    +0.000 A 
ATOM     32  C   UNL     1       5.330   5.675  16.350  0.00  0.00    +0.000 A 
ATOM     33  C   UNL     1       4.661   6.729  16.925  0.00  0.00    +0.000 A 
ATOM     34  O   UNL     1       6.445   5.773  15.580  0.00  0.00    +0.000 OA
ATOM     35  C   UNL     1       6.695   4.383  15.293  0.00  0.00    +0.000 C 
ATOM     36  O   UNL     1       5.688   3.498  15.832  0.00  0.00    +0.000 OA
ENDBRANCH  25  28
ENDBRANCH   9  24
TORSDOF 3
ENDMDL
MODEL 5
REMARK VINA RESULT:      -8.5      1.523      2.523
REMARK  Name = 
REMARK  4 active torsions:
REMARK  status: ('A' for Active; 'I' for Inactive)
REMARK    1  A    between atoms: C_1  and  C_2
REMARK    2  A    between atoms: C_4  and  N_5
REMARK    3  A    between atoms: C_21  and  N_22
REMARK    4  A    between atoms: C_23  and  C_25
REMARK                            x       y       z     vdW  Elec       q    Type
REMARK                         _______ _______ _______ _____ _____    ______ ____
ROOT
ATOM      1  C   UNL     1       0.109   9.501  23.641  0.00  0.00    +0.000 C 
ATOM      2  C   UNL     1      -0.467  10.342  22.541  0.00  0.00    +0.000 A 
ATOM      3  C   UNL     1      -1.366  11.356  22.883  0.00  0.00    +0.000 A 
ATOM      4  C   UNL     1      -1.949  12.168  21.919  0.00  0.00    +0.000 A 
ATOM      5  N   UNL     1      -1.621  11.997  20.623  0.00  0.00    +0.000 NA
ATOM      6  C   UNL     1      -0.753  11.027  20.262  0.00  0.00    +0.000 A 
ATOM      7  C   UNL     1      -0.444  10.872  18.925  0.00  0.00    +0.000 A 
ATOM      8  C   UNL     1       0.454   9.889  18.485  0.00  0.00    +0.000 A 
ATOM      9  C   UNL     1       1.073   9.021  19.380  0.00  0.00    +0.000 A 
ATOM     10  C   UNL     1       0.774   9.170  20.734  0.00  0.00    +0.000 A 
ATOM     11  C   UNL     1      -0.138  10.161  21.188  0.00  0.00    +0.000 A 
ENDROOT
BRANCH   4  12
ATOM     12  N   UNL     1      -2.805  13.181  22.291  0.00  0.00    +0.000 N 
ATOM     13  C   UNL     1      -2.357  14.471  22.845  0.00  0.00    +0.000 C 
ATOM     14  C   UNL     1      -3.130  15.628  22.176  0.00  0.00    +0.000 C 
ATOM     15  N   UNL     1      -4.567  15.385  22.268  0.00  0.00    +0.000 N 
ATOM     16  C   UNL     1      -5.431  16.353  22.697  0.00  0.00    +0.000 A 
ATOM     17  N   UNL     1      -4.939  17.540  23.088  0.00  0.00    +0.000 NA
ATOM     18  C   UNL     1      -5.808  18.465  23.537  0.00  0.00    +0.000 A 
ATOM     19  C   UNL     1      -7.159  18.257  23.617  0.00  0.00    +0.000 A 
ATOM     20  C   UNL     1      -7.578  17.023  23.199  0.00  0.00    +0.000 A 
ATOM     21  N   UNL     1      -6.745  16.072  22.742  0.00  0.00    +0.000 NA
ATOM     22  C   UNL     1      -5.046  14.081  21.795  0.00  0.00    +0.000 C 
ATOM     23  C   UNL     1      -4.246  12.931  22.463  0.00  0.00    +0.000 C 
ENDBRANCH   4  12
BRANCH   9  24
ATOM     24  N   UNL     1       1.992   8.009  19.007  0.00  0.00    +0.000 N 
ATOM     25  C   UNL     1       2.767   8.013  17.859  0.00  0.00    +0.000 C 
ATOM     26  O   UNL     1       2.784   8.902  17.013  0.00  0.00    +0.000 OA
ATOM     27  H   UNL     1       2.105   7.244  19.657  0.00  0.00    +0.000 HD
BRANCH  25  28
ATOM     28  C   UNL     1       3.677   6.856  17.616  0.00  0.00    +0.000 A 
ATOM     29  C   UNL     1       3.559   5.611  18.270  0.00  0.00    +0.000 A 
ATOM     30  C   UNL     1       4.394   4.539  17.909  0.00  0.00    +0.000 A 
ATOM     31  C   UNL     1       5.323   4.745  16.910  0.00  0.00    +0.000 A 
ATOM     32  C   UNL     1       5.444   5.957  16.277  0.00  0.00    +0.000 A 
ATOM     33  C   UNL     1       4.641   7.024  16.605  0.00  0.00    +0.000 A 
ATOM     34  O   UNL     1       6.402   5.955  15.315  0.00  0.00    +0.000 OA
ATOM     35  C   UNL     1       6.909   4.612  15.443  0.00  0.00    +0.000 C 
ATOM     36  O   UNL     1       6.195   3.823  16.421  0.00  0.00    +0.000 OA
ENDBRANCH  25  28
ENDBRANCH   9  24
TORSDOF 3
ENDMDL
MODEL 6
REMARK VINA RESULT:      -8.4      1.027      1.074
REMARK  Name = 
REMARK  4 active torsions:
REMARK  status: ('A' for Active; 'I' for Inactive)
REMARK    1  A    between atoms: C_1  and  C_2
REMARK    2  A    between atoms: C_4  and  N_5
REMARK    3  A    between atoms: C_21  and  N_22
REMARK    4  A    between atoms: C_23  and  C_25
REMARK                            x       y       z     vdW  Elec       q    Type
REMARK                         _______ _______ _______ _____ _____    ______ ____
ROOT
ATOM      1  C   UNL     1      -2.096  10.590  17.234  0.00  0.00    +0.000 C 
ATOM      2  C   UNL     1      -1.840  11.069  18.631  0.00  0.00    +0.000 A 
ATOM      3  C   UNL     1      -2.647  12.091  19.140  0.00  0.00    +0.000 A 
ATOM      4  C   UNL     1      -2.463  12.594  20.422  0.00  0.00    +0.000 A 
ATOM      5  N   UNL     1      -1.503  12.069  21.208  0.00  0.00    +0.000 NA
ATOM      6  C   UNL     1      -0.709  11.079  20.744  0.00  0.00    +0.000 A 
ATOM      7  C   UNL     1       0.271  10.567  21.571  0.00  0.00    +0.000 A 
ATOM      8  C   UNL     1       1.123   9.534  21.154  0.00  0.00    +0.000 A 
ATOM      9  C   UNL     1       1.021   8.982  19.882  0.00  0.00    +0.000 A 
ATOM     10  C   UNL     1       0.032   9.485  19.037  0.00  0.00    +0.000 A 
ATOM     11  C   UNL     1      -0.834  10.534  19.451  0.00  0.00    +0.000 A 
ENDROOT
BRANCH   4  12
ATOM     12  N   UNL     1      -3.296  13.578  20.907  0.00  0.00    +0.000 N 
ATOM     13  C   UNL     1      -4.717  13.704  20.538  0.00  0.00    +0.000 C 
ATOM     14  C   UNL     1      -5.566  13.974  21.798  0.00  0.00    +0.000 C 
ATOM     15  N   UNL     1      -5.018  15.112  22.532  0.00  0.00    +0.000 N 
ATOM     16  C   UNL     1      -5.814  16.135  22.967  0.00  0.00    +0.000 A 
ATOM     17  N   UNL     1      -7.124  16.113  22.670  0.00  0.00    +0.000 NA
ATOM     18  C   UNL     1      -7.880  17.148  23.083  0.00  0.00    +0.000 A 
ATOM     19  C   UNL     1      -7.384  18.216  23.783  0.00  0.00    +0.000 A 
ATOM     20  C   UNL     1      -6.041  18.159  24.045  0.00  0.00    +0.000 A 
ATOM     21  N   UNL     1      -5.252  17.144  23.653  0.00  0.00    +0.000 NA
ATOM     22  C   UNL     1      -3.587  15.060  22.855  0.00  0.00    +0.000 C 
ATOM     23  C   UNL     1      -2.751  14.769  21.580  0.00  0.00    +0.000 C 
ENDBRANCH   4  12
BRANCH   9  24
ATOM     24  N   UNL     1       1.844   7.936  19.395  0.00  0.00    +0.000 N 
ATOM     25  C   UNL     1       2.549   7.959  18.202  0.00  0.00    +0.000 C 
ATOM     26  O   UNL     1       2.578   8.895  17.410  0.00  0.00    +0.000 OA
ATOM     27  H   UNL     1       1.942   7.127  19.992  0.00  0.00    +0.000 HD
BRANCH  25  28
ATOM     28  C   UNL     1       3.361   6.762  17.838  0.00  0.00    +0.000 A 
ATOM     29  C   UNL     1       2.982   5.434  18.131  0.00  0.00    +0.000 A 
ATOM     30  C   UNL     1       3.754   4.357  17.662  0.00  0.00    +0.000 A 
ATOM     31  C   UNL     1       4.881   4.639  16.919  0.00  0.00    +0.000 A 
ATOM     32  C   UNL     1       5.255   5.929  16.636  0.00  0.00    +0.000 A 
ATOM     33  C   UNL     1       4.521   7.004  17.078  0.00  0.00    +0.000 A 
ATOM     34  O   UNL     1       6.381   5.998  15.880  0.00  0.00    +0.000 OA
ATOM     35  C   UNL     1       6.706   4.600  15.755  0.00  0.00    +0.000 C 
ATOM     36  O   UNL     1       5.730   3.729  16.370  0.00  0.00    +0.000 OA
ENDBRANCH  25  28
ENDBRANCH   9  24
TORSDOF 3
ENDMDL
MODEL 7
REMARK VINA RESULT:      -8.4      2.044      2.628
REMARK  Name = 
REMARK  4 active torsions:
REMARK  status: ('A' for Active; 'I' for Inactive)
REMARK    1  A    between atoms: C_1  and  C_2
REMARK    2  A    between atoms: C_4  and  N_5
REMARK    3  A    between atoms: C_21  and  N_22
REMARK    4  A    between atoms: C_23  and  C_25
REMARK                            x       y       z     vdW  Elec       q    Type
REMARK                         _______ _______ _______ _____ _____    ______ ____
ROOT
ATOM      1  C   UNL     1       1.504  12.338  18.695  0.00  0.00    +0.000 C 
ATOM      2  C   UNL     1       0.755  11.857  19.902  0.00  0.00    +0.000 A 
ATOM      3  C   UNL     1      -0.028  12.776  20.607  0.00  0.00    +0.000 A 
ATOM      4  C   UNL     1      -0.741  12.407  21.740  0.00  0.00    +0.000 A 
ATOM      5  N   UNL     1      -0.703  11.127  22.159  0.00  0.00    +0.000 NA
ATOM      6  C   UNL     1       0.044  10.216  21.497  0.00  0.00    +0.000 A 
ATOM      7  C   UNL     1       0.068   8.913  21.956  0.00  0.00    +0.000 A 
ATOM      8  C   UNL     1       0.817   7.918  21.311  0.00  0.00    +0.000 A 
ATOM      9  C   UNL     1       1.573   8.202  20.178  0.00  0.00    +0.000 A 
ATOM     10  C   UNL     1       1.554   9.512  19.700  0.00  0.00    +0.000 A 
ATOM     11  C   UNL     1       0.801  10.528  20.350  0.00  0.00    +0.000 A 
ENDROOT
BRANCH   4  12
ATOM     12  N   UNL     1      -1.531  13.327  22.393  0.00  0.00    +0.000 N 
ATOM     13  C   UNL     1      -1.040  14.216  23.461  0.00  0.00    +0.000 C 
ATOM     14  C   UNL     1      -1.564  15.651  23.234  0.00  0.00    +0.000 C 
ATOM     15  N   UNL     1      -3.015  15.629  23.069  0.00  0.00    +0.000 N 
ATOM     16  C   UNL     1      -3.827  16.488  23.756  0.00  0.00    +0.000 A 
ATOM     17  N   UNL     1      -3.278  17.339  24.639  0.00  0.00    +0.000 NA
ATOM     18  C   UNL     1      -4.102  18.152  25.326  0.00  0.00    +0.000 A 
ATOM     19  C   UNL     1      -5.463  18.153  25.174  0.00  0.00    +0.000 A 
ATOM     20  C   UNL     1      -5.941  17.258  24.255  0.00  0.00    +0.000 A 
ATOM     21  N   UNL     1      -5.153  16.431  23.547  0.00  0.00    +0.000 NA
ATOM     22  C   UNL     1      -3.550  14.702  22.066  0.00  0.00    +0.000 C 
ATOM     23  C   UNL     1      -2.999  13.270  22.299  0.00  0.00    +0.000 C 
ENDBRANCH   4  12
BRANCH   9  24
ATOM     24  N   UNL     1       2.349   7.247  19.474  0.00  0.00    +0.000 N 
ATOM     25  C   UNL     1       2.800   7.383  18.172  0.00  0.00    +0.000 C 
ATOM     26  O   UNL     1       2.612   8.358  17.450  0.00  0.00    +0.000 OA
ATOM     27  H   UNL     1       2.616   6.419  19.988  0.00  0.00    +0.000 HD
BRANCH  25  28
ATOM     28  C   UNL     1       3.599   6.271  17.580  0.00  0.00    +0.000 A 
ATOM     29  C   UNL     1       3.265   4.906  17.710  0.00  0.00    +0.000 A 
ATOM     30  C   UNL     1       4.013   3.926  17.036  0.00  0.00    +0.000 A 
ATOM     31  C   UNL     1       5.074   4.339  16.256  0.00  0.00    +0.000 A 
ATOM     32  C   UNL     1       5.404   5.665  16.131  0.00  0.00    +0.000 A 
ATOM     33  C   UNL     1       4.692   6.648  16.776  0.00  0.00    +0.000 A 
ATOM     34  O   UNL     1       6.466   5.869  15.309  0.00  0.00    +0.000 OA
ATOM     35  C   UNL     1       6.801   4.511  14.962  0.00  0.00    +0.000 C 
ATOM     36  O   UNL     1       5.891   3.537  15.521  0.00  0.00    +0.000 OA
ENDBRANCH  25  28
ENDBRANCH   9  24
TORSDOF 3
ENDMDL
MODEL 8
REMARK VINA RESULT:      -8.2      1.905      2.184
REMARK  Name = 
REMARK  4 active torsions:
REMARK  status: ('A' for Active; 'I' for Inactive)
REMARK    1  A    between atoms: C_1  and  C_2
REMARK    2  A    between atoms: C_4  and  N_5
REMARK    3  A    between atoms: C_21  and  N_22
REMARK    4  A    between atoms: C_23  and  C_25
REMARK                            x       y       z     vdW  Elec       q    Type
REMARK                         _______ _______ _______ _____ _____    ______ ____
ROOT
ATOM      1  C   UNL     1       1.473  12.736  18.358  0.00  0.00    +0.000 C 
ATOM      2  C   UNL     1       0.656  12.354  19.555  0.00  0.00    +0.000 A 
ATOM      3  C   UNL     1      -0.136  13.335  20.158  0.00  0.00    +0.000 A 
ATOM      4  C   UNL     1      -0.911  13.059  21.277  0.00  0.00    +0.000 A 
ATOM      5  N   UNL     1      -0.926  11.808  21.781  0.00  0.00    +0.000 NA
ATOM      6  C   UNL     1      -0.172  10.839  21.218  0.00  0.00    +0.000 A 
ATOM      7  C   UNL     1      -0.202   9.570  21.762  0.00  0.00    +0.000 A 
ATOM      8  C   UNL     1       0.551   8.518  21.221  0.00  0.00    +0.000 A 
ATOM      9  C   UNL     1       1.367   8.708  20.111  0.00  0.00    +0.000 A 
ATOM     10  C   UNL     1       1.403   9.983  19.547  0.00  0.00    +0.000 A 
ATOM     11  C   UNL     1       0.647  11.057  20.091  0.00  0.00    +0.000 A 
ENDROOT
BRANCH   4  12
ATOM     12  N   UNL     1      -1.708  14.038  21.829  0.00  0.00    +0.000 N 
ATOM     13  C   UNL     1      -2.709  14.805  21.067  0.00  0.00    +0.000 C 
ATOM     14  C   UNL     1      -4.023  14.902  21.872  0.00  0.00    +0.000 C 
ATOM     15  N   UNL     1      -3.747  15.412  23.213  0.00  0.00    +0.000 N 
ATOM     16  C   UNL     1      -4.480  16.428  23.758  0.00  0.00    +0.000 A 
ATOM     17  N   UNL     1      -5.447  17.003  23.022  0.00  0.00    +0.000 NA
ATOM     18  C   UNL     1      -6.133  18.023  23.570  0.00  0.00    +0.000 A 
ATOM     19  C   UNL     1      -5.895  18.504  24.830  0.00  0.00    +0.000 A 
ATOM     20  C   UNL     1      -4.896  17.863  25.513  0.00  0.00    +0.000 A 
ATOM     21  N   UNL     1      -4.189  16.839  25.004  0.00  0.00    +0.000 NA
ATOM     22  C   UNL     1      -2.703  14.720  23.978  0.00  0.00    +0.000 C 
ATOM     23  C   UNL     1      -1.396  14.616  23.147  0.00  0.00    +0.000 C 
ENDBRANCH   4  12
BRANCH   9  24
ATOM     24  N   UNL     1       2.151   7.692  19.510  0.00  0.00    +0.000 N 
ATOM     25  C   UNL     1       2.585   7.685  18.195  0.00  0.00    +0.000 C 
ATOM     26  O   UNL     1       2.372   8.568  17.369  0.00  0.00    +0.000 OA
ATOM     27  H   UNL     1       2.438   6.932  20.111  0.00  0.00    +0.000 HD
BRANCH  25  28
ATOM     28  C   UNL     1       3.396   6.525  17.723  0.00  0.00    +0.000 A 
ATOM     29  C   UNL     1       2.993   5.179  17.851  0.00  0.00    +0.000 A 
ATOM     30  C   UNL     1       3.768   4.150  17.288  0.00  0.00    +0.000 A 
ATOM     31  C   UNL     1       4.924   4.498  16.619  0.00  0.00    +0.000 A 
ATOM     32  C   UNL     1       5.321   5.806  16.498  0.00  0.00    +0.000 A 
ATOM     33  C   UNL     1       4.584   6.835  17.035  0.00  0.00    +0.000 A 
ATOM     34  O   UNL     1       6.473   5.943  15.792  0.00  0.00    +0.000 OA
ATOM     35  C   UNL     1       6.787   4.563  15.519  0.00  0.00    +0.000 C 
ATOM     36  O   UNL     1       5.781   3.643  15.999  0.00  0.00    +0.000 OA
ENDBRANCH  25  28
ENDBRANCH   9  24
TORSDOF 3
ENDMDL
MODEL 9
REMARK VINA RESULT:      -8.1      1.319      2.219
REMARK  Name = 
REMARK  4 active torsions:
REMARK  status: ('A' for Active; 'I' for Inactive)
REMARK    1  A    between atoms: C_1  and  C_2
REMARK    2  A    between atoms: C_4  and  N_5
REMARK    3  A    between atoms: C_21  and  N_22
REMARK    4  A    between atoms: C_23  and  C_25
REMARK                            x       y       z     vdW  Elec       q    Type
REMARK                         _______ _______ _______ _____ _____    ______ ____
ROOT
ATOM      1  C   UNL     1       0.805   9.614  22.976  0.00  0.00    +0.000 C 
ATOM      2  C   UNL     1       0.031  10.234  21.851  0.00  0.00    +0.000 A 
ATOM      3  C   UNL     1      -1.047  11.065  22.167  0.00  0.00    +0.000 A 
ATOM      4  C   UNL     1      -1.817  11.667  21.180  0.00  0.00    +0.000 A 
ATOM      5  N   UNL     1      -1.504  11.469  19.884  0.00  0.00    +0.000 NA
ATOM      6  C   UNL     1      -0.466  10.673  19.548  0.00  0.00    +0.000 A 
ATOM      7  C   UNL     1      -0.176  10.484  18.211  0.00  0.00    +0.000 A 
ATOM      8  C   UNL     1       0.892   9.676  17.795  0.00  0.00    +0.000 A 
ATOM      9  C   UNL     1       1.706   9.022  18.715  0.00  0.00    +0.000 A 
ATOM     10  C   UNL     1       1.428   9.208  20.070  0.00  0.00    +0.000 A 
ATOM     11  C   UNL     1       0.345  10.023  20.500  0.00  0.00    +0.000 A 
ENDROOT
BRANCH   4  12
ATOM     12  N   UNL     1      -2.852  12.508  21.523  0.00  0.00    +0.000 N 
ATOM     13  C   UNL     1      -3.381  12.640  22.893  0.00  0.00    +0.000 C 
ATOM     14  C   UNL     1      -3.587  14.131  23.236  0.00  0.00    +0.000 C 
ATOM     15  N   UNL     1      -4.394  14.772  22.200  0.00  0.00    +0.000 N 
ATOM     16  C   UNL     1      -5.467  15.559  22.513  0.00  0.00    +0.000 A 
ATOM     17  N   UNL     1      -5.815  15.705  23.803  0.00  0.00    +0.000 NA
ATOM     18  C   UNL     1      -6.895  16.459  24.081  0.00  0.00    +0.000 A 
ATOM     19  C   UNL     1      -7.654  17.077  23.123  0.00  0.00    +0.000 A 
ATOM     20  C   UNL     1      -7.231  16.878  21.836  0.00  0.00    +0.000 A 
ATOM     21  N   UNL     1      -6.157  16.136  21.515  0.00  0.00    +0.000 NA
ATOM     22  C   UNL     1      -3.942  14.602  20.815  0.00  0.00    +0.000 C 
ATOM     23  C   UNL     1      -3.723  13.099  20.493  0.00  0.00    +0.000 C 
ENDBRANCH   4  12
BRANCH   9  24
ATOM     24  N   UNL     1       2.802   8.194  18.368  0.00  0.00    +0.000 N 
ATOM     25  C   UNL     1       2.859   6.822  18.545  0.00  0.00    +0.000 C 
ATOM     26  O   UNL     1       1.960   6.125  19.007  0.00  0.00    +0.000 OA
ATOM     27  H   UNL     1       3.587   8.651  17.925  0.00  0.00    +0.000 HD
BRANCH  25  28
ATOM     28  C   UNL     1       4.100   6.105  18.131  0.00  0.00    +0.000 A 
ATOM     29  C   UNL     1       4.801   5.202  18.959  0.00  0.00    +0.000 A 
ATOM     30  C   UNL     1       5.904   4.491  18.457  0.00  0.00    +0.000 A 
ATOM     31  C   UNL     1       6.276   4.707  17.146  0.00  0.00    +0.000 A 
ATOM     32  C   UNL     1       5.600   5.588  16.340  0.00  0.00    +0.000 A 
ATOM     33  C   UNL     1       4.515   6.298  16.800  0.00  0.00    +0.000 A 
ATOM     34  O   UNL     1       6.107   5.648  15.082  0.00  0.00    +0.000 OA
ATOM     35  C   UNL     1       7.216   4.735  15.196  0.00  0.00    +0.000 C 
ATOM     36  O   UNL     1       7.299   4.096  16.490  0.00  0.00    +0.000 OA
ENDBRANCH  25  28
ENDBRANCH   9  24
TORSDOF 3
ENDMDL
