MODEL 1
REMARK VINA RESULT:      -6.7      0.000      0.000
REMARK  Name = 
REMARK  4 active torsions:
REMARK  status: ('A' for Active; 'I' for Inactive)
REMARK    1  A    between atoms: N_1  and  C_2
REMARK    2  A    between atoms: C_13  and  C_14
REMARK    3  A    between atoms: C_14  and  O_16
REMARK    4  A    between atoms: N_18  and  C_19
REMARK                            x       y       z     vdW  Elec       q    Type
REMARK                         _______ _______ _______ _____ _____    ______ ____
ROOT
ATOM      1  C   UNL     1       0.572   8.995  21.077  0.00  0.00    +0.000 C 
ATOM      2  C   UNL     1      -0.400   8.923  22.274  0.00  0.00    +0.000 C 
ATOM      3  C   UNL     1      -0.442  10.343  22.828  0.00  0.00    +0.000 C 
ATOM      4  N   UNL     1      -0.224  11.178  21.625  0.00  0.00    +0.000 N 
ATOM      5  C   UNL     1      -1.403  11.568  20.961  0.00  0.00    +0.000 A 
ATOM      6  C   UNL     1      -2.300  12.357  21.727  0.00  0.00    +0.000 A 
ATOM      7  F   UNL     1      -1.974  12.717  22.982  0.00  0.00    +0.000 F 
ATOM      8  C   UNL     1      -3.510  12.811  21.249  0.00  0.00    +0.000 A 
ATOM      9  C   UNL     1      -3.887  12.494  19.951  0.00  0.00    +0.000 A 
ATOM     10  C   UNL     1      -5.183  13.046  19.499  0.00  0.00    +0.000 A 
ATOM     11  O   UNL     1      -5.903  13.707  20.245  0.00  0.00    +0.000 OA
ATOM     12  C   UNL     1      -5.602  12.806  18.116  0.00  0.00    +0.000 A 
ATOM     13  C   UNL     1      -4.818  12.008  17.390  0.00  0.00    +0.000 A 
ATOM     14  N   UNL     1      -3.625  11.407  17.772  0.00  0.00    +0.000 N 
ATOM     15  C   UNL     1      -3.070  11.705  19.095  0.00  0.00    +0.000 A 
ATOM     16  C   UNL     1      -1.766  11.287  19.600  0.00  0.00    +0.000 A 
ATOM     17  C   UNL     1      -0.877  10.512  18.643  0.00  0.00    +0.000 C 
ATOM     18  O   UNL     1       0.539  10.438  18.599  0.00  0.00    +0.000 OA
ATOM     19  C   UNL     1       1.227  11.118  19.610  0.00  0.00    +0.000 C 
ATOM     20  C   UNL     1       0.908  10.521  20.960  0.00  0.00    +0.000 C 
ENDROOT
BRANCH   1  21
ATOM     21  N   UNL     1       1.703   8.079  21.241  0.00  0.00    +0.000 NA
ATOM     22  H   UNL     1       1.553   7.516  22.079  0.00  0.00    +0.000 HD
ATOM     23  H   UNL     1       1.746   7.422  20.464  0.00  0.00    +0.000 HD
ENDBRANCH   1  21
BRANCH  14  24
ATOM     24  C   UNL     1      -3.116  10.343  16.850  0.00  0.00    +0.000 C 
ATOM     25  C   UNL     1      -2.665  10.725  15.448  0.00  0.00    +0.000 C 
ATOM     26  C   UNL     1      -3.798   9.778  15.617  0.00  0.00    +0.000 C 
ENDBRANCH  14  24
BRANCH  12  27
ATOM     27  C   UNL     1      -6.820  13.384  17.513  0.00  0.00    +0.000 C 
ATOM     28  O   UNL     1      -6.833  13.893  16.401  0.00  0.00    +0.000 OA
BRANCH  27  29
ATOM     29  O   UNL     1      -7.916  13.322  18.288  0.00  0.00    +0.000 OA
ATOM     30  H   UNL     1      -8.553  12.611  18.035  0.00  0.00    +0.000 HD
ENDBRANCH  27  29
ENDBRANCH  12  27
TORSDOF 4
ENDMDL
MODEL 2
REMARK VINA RESULT:      -6.4     10.044     12.733
REMARK  Name = 
REMARK  4 active torsions:
REMARK  status: ('A' for Active; 'I' for Inactive)
REMARK    1  A    between atoms: N_1  and  C_2
REMARK    2  A    between atoms: C_13  and  C_14
REMARK    3  A    between atoms: C_14  and  O_16
REMARK    4  A    between atoms: N_18  and  C_19
REMARK                            x       y       z     vdW  Elec       q    Type
REMARK                         _______ _______ _______ _____ _____    ______ ____
ROOT
ATOM      1  C   UNL     1      10.632  15.089  17.176  0.00  0.00    +0.000 C 
ATOM      2  C   UNL     1      10.638  13.557  16.983  0.00  0.00    +0.000 C 
ATOM      3  C   UNL     1      11.593  13.034  18.051  0.00  0.00    +0.000 C 
ATOM      4  N   UNL     1      11.433  14.013  19.151  0.00  0.00    +0.000 N 
ATOM      5  C   UNL     1      10.441  13.678  20.093  0.00  0.00    +0.000 A 
ATOM      6  C   UNL     1      10.651  12.460  20.791  0.00  0.00    +0.000 A 
ATOM      7  F   UNL     1      11.762  11.737  20.560  0.00  0.00    +0.000 F 
ATOM      8  C   UNL     1       9.776  11.965  21.733  0.00  0.00    +0.000 A 
ATOM      9  C   UNL     1       8.625  12.682  22.031  0.00  0.00    +0.000 A 
ATOM     10  C   UNL     1       7.754  12.103  23.077  0.00  0.00    +0.000 A 
ATOM     11  O   UNL     1       8.010  11.027  23.614  0.00  0.00    +0.000 OA
ATOM     12  C   UNL     1       6.561  12.850  23.487  0.00  0.00    +0.000 A 
ATOM     13  C   UNL     1       6.295  13.963  22.802  0.00  0.00    +0.000 A 
ATOM     14  N   UNL     1       7.035  14.526  21.770  0.00  0.00    +0.000 N 
ATOM     15  C   UNL     1       8.310  13.912  21.391  0.00  0.00    +0.000 A 
ATOM     16  C   UNL     1       9.281  14.449  20.442  0.00  0.00    +0.000 A 
ATOM     17  C   UNL     1       8.962  15.801  19.827  0.00  0.00    +0.000 C 
ATOM     18  O   UNL     1       9.851  16.795  19.344  0.00  0.00    +0.000 OA
ATOM     19  C   UNL     1      11.213  16.476  19.372  0.00  0.00    +0.000 C 
ATOM     20  C   UNL     1      11.501  15.307  18.461  0.00  0.00    +0.000 C 
ENDROOT
BRANCH   1  21
ATOM     21  N   UNL     1      11.057  15.790  15.963  0.00  0.00    +0.000 NA
ATOM     22  H   UNL     1      10.275  15.820  15.308  0.00  0.00    +0.000 HD
ATOM     23  H   UNL     1      11.286  16.760  16.172  0.00  0.00    +0.000 HD
ENDBRANCH   1  21
BRANCH  14  24
ATOM     24  C   UNL     1       6.347  15.614  21.004  0.00  0.00    +0.000 C 
ATOM     25  C   UNL     1       4.900  15.953  21.329  0.00  0.00    +0.000 C 
ATOM     26  C   UNL     1       5.248  15.466  19.968  0.00  0.00    +0.000 C 
ENDBRANCH  14  24
BRANCH  12  27
ATOM     27  C   UNL     1       5.667  12.433  24.585  0.00  0.00    +0.000 C 
ATOM     28  O   UNL     1       5.186  13.222  25.387  0.00  0.00    +0.000 OA
BRANCH  27  29
ATOM     29  O   UNL     1       5.430  11.111  24.649  0.00  0.00    +0.000 OA
ATOM     30  H   UNL     1       4.515  10.876  24.936  0.00  0.00    +0.000 HD
ENDBRANCH  27  29
ENDBRANCH  12  27
TORSDOF 4
ENDMDL
MODEL 3
REMARK VINA RESULT:      -6.4      3.114      5.205
REMARK  Name = 
REMARK  4 active torsions:
REMARK  status: ('A' for Active; 'I' for Inactive)
REMARK    1  A    between atoms: N_1  and  C_2
REMARK    2  A    between atoms: C_13  and  C_14
REMARK    3  A    between atoms: C_14  and  O_16
REMARK    4  A    between atoms: N_18  and  C_19
REMARK                            x       y       z     vdW  Elec       q    Type
REMARK                         _______ _______ _______ _____ _____    ______ ____
ROOT
ATOM      1  C   UNL     1      -3.491  13.827  24.636  0.00  0.00    +0.000 C 
ATOM      2  C   UNL     1      -4.469  12.635  24.694  0.00  0.00    +0.000 C 
ATOM      3  C   UNL     1      -5.694  13.097  23.911  0.00  0.00    +0.000 C 
ATOM      4  N   UNL     1      -5.117  14.011  22.898  0.00  0.00    +0.000 N 
ATOM      5  C   UNL     1      -4.765  13.392  21.683  0.00  0.00    +0.000 A 
ATOM      6  C   UNL     1      -5.836  12.784  20.977  0.00  0.00    +0.000 A 
ATOM      7  F   UNL     1      -7.089  12.863  21.461  0.00  0.00    +0.000 F 
ATOM      8  C   UNL     1      -5.676  12.116  19.783  0.00  0.00    +0.000 A 
ATOM      9  C   UNL     1      -4.409  12.024  19.223  0.00  0.00    +0.000 A 
ATOM     10  C   UNL     1      -4.323  11.322  17.924  0.00  0.00    +0.000 A 
ATOM     11  O   UNL     1      -5.308  10.808  17.397  0.00  0.00    +0.000 OA
ATOM     12  C   UNL     1      -3.025  11.255  17.248  0.00  0.00    +0.000 A 
ATOM     13  C   UNL     1      -1.984  11.753  17.917  0.00  0.00    +0.000 A 
ATOM     14  N   UNL     1      -1.984  12.367  19.163  0.00  0.00    +0.000 N 
ATOM     15  C   UNL     1      -3.262  12.591  19.845  0.00  0.00    +0.000 A 
ATOM     16  C   UNL     1      -3.464  13.347  21.077  0.00  0.00    +0.000 A 
ATOM     17  C   UNL     1      -2.239  14.009  21.683  0.00  0.00    +0.000 C 
ATOM     18  O   UNL     1      -2.158  15.176  22.485  0.00  0.00    +0.000 OA
ATOM     19  C   UNL     1      -3.374  15.778  22.829  0.00  0.00    +0.000 C 
ATOM     20  C   UNL     1      -4.201  14.847  23.684  0.00  0.00    +0.000 C 
ENDROOT
BRANCH   1  21
ATOM     21  N   UNL     1      -3.140  14.305  25.975  0.00  0.00    +0.000 NA
ATOM     22  H   UNL     1      -3.283  13.548  26.644  0.00  0.00    +0.000 HD
ATOM     23  H   UNL     1      -2.150  14.540  26.023  0.00  0.00    +0.000 HD
ENDBRANCH   1  21
BRANCH  14  24
ATOM     24  C   UNL     1      -0.636  12.567  19.784  0.00  0.00    +0.000 C 
ATOM     25  C   UNL     1       0.305  13.610  19.200  0.00  0.00    +0.000 C 
ATOM     26  C   UNL     1       0.715  12.181  19.211  0.00  0.00    +0.000 C 
ENDBRANCH  14  24
BRANCH  12  27
ATOM     27  C   UNL     1      -2.825  10.673  15.906  0.00  0.00    +0.000 C 
ATOM     28  O   UNL     1      -2.228   9.622  15.720  0.00  0.00    +0.000 OA
BRANCH  27  29
ATOM     29  O   UNL     1      -3.338  11.396  14.896  0.00  0.00    +0.000 OA
ATOM     30  H   UNL     1      -3.882  10.875  14.258  0.00  0.00    +0.000 HD
ENDBRANCH  27  29
ENDBRANCH  12  27
TORSDOF 4
ENDMDL
MODEL 4
REMARK VINA RESULT:      -6.4      2.695      5.259
REMARK  Name = 
REMARK  4 active torsions:
REMARK  status: ('A' for Active; 'I' for Inactive)
REMARK    1  A    between atoms: N_1  and  C_2
REMARK    2  A    between atoms: C_13  and  C_14
REMARK    3  A    between atoms: C_14  and  O_16
REMARK    4  A    between atoms: N_18  and  C_19
REMARK                            x       y       z     vdW  Elec       q    Type
REMARK                         _______ _______ _______ _____ _____    ______ ____
ROOT
ATOM      1  C   UNL     1      -4.034  15.199  23.917  0.00  0.00    +0.000 C 
ATOM      2  C   UNL     1      -2.635  15.672  23.470  0.00  0.00    +0.000 C 
ATOM      3  C   UNL     1      -1.725  14.470  23.700  0.00  0.00    +0.000 C 
ATOM      4  N   UNL     1      -2.630  13.319  23.478  0.00  0.00    +0.000 N 
ATOM      5  C   UNL     1      -2.662  12.847  22.152  0.00  0.00    +0.000 A 
ATOM      6  C   UNL     1      -1.425  12.370  21.645  0.00  0.00    +0.000 A 
ATOM      7  F   UNL     1      -0.337  12.352  22.437  0.00  0.00    +0.000 F 
ATOM      8  C   UNL     1      -1.264  11.890  20.364  0.00  0.00    +0.000 A 
ATOM      9  C   UNL     1      -2.358  11.860  19.509  0.00  0.00    +0.000 A 
ATOM     10  C   UNL     1      -2.113  11.300  18.163  0.00  0.00    +0.000 A 
ATOM     11  O   UNL     1      -0.996  10.927  17.806  0.00  0.00    +0.000 OA
ATOM     12  C   UNL     1      -3.245  11.175  17.240  0.00  0.00    +0.000 A 
ATOM     13  C   UNL     1      -4.407  11.679  17.657  0.00  0.00    +0.000 A 
ATOM     14  N   UNL     1      -4.688  12.274  18.880  0.00  0.00    +0.000 N 
ATOM     15  C   UNL     1      -3.644  12.317  19.908  0.00  0.00    +0.000 A 
ATOM     16  C   UNL     1      -3.807  12.763  21.288  0.00  0.00    +0.000 A 
ATOM     17  C   UNL     1      -5.205  13.174  21.715  0.00  0.00    +0.000 C 
ATOM     18  O   UNL     1      -5.796  13.129  23.004  0.00  0.00    +0.000 OA
ATOM     19  C   UNL     1      -4.968  12.710  24.051  0.00  0.00    +0.000 C 
ATOM     20  C   UNL     1      -3.828  13.682  24.245  0.00  0.00    +0.000 C 
ENDROOT
BRANCH   1  21
ATOM     21  N   UNL     1      -4.575  16.040  24.988  0.00  0.00    +0.000 NA
ATOM     22  H   UNL     1      -5.040  16.847  24.571  0.00  0.00    +0.000 HD
ATOM     23  H   UNL     1      -5.293  15.539  25.508  0.00  0.00    +0.000 HD
ENDBRANCH   1  21
BRANCH  14  24
ATOM     24  C   UNL     1      -5.996  12.999  18.958  0.00  0.00    +0.000 C 
ATOM     25  C   UNL     1      -7.284  12.200  19.087  0.00  0.00    +0.000 C 
ATOM     26  C   UNL     1      -7.081  13.072  17.900  0.00  0.00    +0.000 C 
ENDBRANCH  14  24
BRANCH  12  27
ATOM     27  C   UNL     1      -3.155  10.542  15.909  0.00  0.00    +0.000 C 
ATOM     28  O   UNL     1      -3.460  11.121  14.876  0.00  0.00    +0.000 OA
BRANCH  27  29
ATOM     29  O   UNL     1      -2.724   9.269  15.917  0.00  0.00    +0.000 OA
ATOM     30  H   UNL     1      -2.086   9.051  15.196  0.00  0.00    +0.000 HD
ENDBRANCH  27  29
ENDBRANCH  12  27
TORSDOF 4
ENDMDL
MODEL 5
REMARK VINA RESULT:      -6.3     12.108     13.700
REMARK  Name = 
REMARK  4 active torsions:
REMARK  status: ('A' for Active; 'I' for Inactive)
REMARK    1  A    between atoms: N_1  and  C_2
REMARK    2  A    between atoms: C_13  and  C_14
REMARK    3  A    between atoms: C_14  and  O_16
REMARK    4  A    between atoms: N_18  and  C_19
REMARK                            x       y       z     vdW  Elec       q    Type
REMARK                         _______ _______ _______ _____ _____    ______ ____
ROOT
ATOM      1  C   UNL     1      10.340  14.738  17.706  0.00  0.00    +0.000 C 
ATOM      2  C   UNL     1       9.106  13.853  17.429  0.00  0.00    +0.000 C 
ATOM      3  C   UNL     1       9.533  12.449  17.844  0.00  0.00    +0.000 C 
ATOM      4  N   UNL     1      10.492  12.702  18.943  0.00  0.00    +0.000 N 
ATOM      5  C   UNL     1       9.915  12.739  20.227  0.00  0.00    +0.000 A 
ATOM      6  C   UNL     1       9.277  11.542  20.643  0.00  0.00    +0.000 A 
ATOM      7  F   UNL     1       9.292  10.460  19.842  0.00  0.00    +0.000 F 
ATOM      8  C   UNL     1       8.642  11.401  21.857  0.00  0.00    +0.000 A 
ATOM      9  C   UNL     1       8.617  12.476  22.736  0.00  0.00    +0.000 A 
ATOM     10  C   UNL     1       7.947  12.237  24.033  0.00  0.00    +0.000 A 
ATOM     11  O   UNL     1       7.404  11.166  24.297  0.00  0.00    +0.000 OA
ATOM     12  C   UNL     1       7.951  13.310  25.031  0.00  0.00    +0.000 A 
ATOM     13  C   UNL     1       8.478  14.473  24.647  0.00  0.00    +0.000 A 
ATOM     14  N   UNL     1       9.064  14.783  23.427  0.00  0.00    +0.000 N 
ATOM     15  C   UNL     1       9.219  13.726  22.423  0.00  0.00    +0.000 A 
ATOM     16  C   UNL     1       9.939  13.833  21.158  0.00  0.00    +0.000 A 
ATOM     17  C   UNL     1      10.640  15.151  20.878  0.00  0.00    +0.000 C 
ATOM     18  O   UNL     1      11.792  15.401  20.089  0.00  0.00    +0.000 OA
ATOM     19  C   UNL     1      12.333  14.300  19.415  0.00  0.00    +0.000 C 
ATOM     20  C   UNL     1      11.350  13.764  18.402  0.00  0.00    +0.000 C 
ENDROOT
BRANCH   1  21
ATOM     21  N   UNL     1      10.804  15.416  16.493  0.00  0.00    +0.000 NA
ATOM     22  H   UNL     1      10.720  14.775  15.704  0.00  0.00    +0.000 HD
ATOM     23  H   UNL     1      10.205  16.210  16.276  0.00  0.00    +0.000 HD
ENDBRANCH   1  21
BRANCH  14  24
ATOM     24  C   UNL     1       9.308  16.240  23.180  0.00  0.00    +0.000 C 
ATOM     25  C   UNL     1      10.449  16.937  23.905  0.00  0.00    +0.000 C 
ATOM     26  C   UNL     1       9.053  17.397  24.128  0.00  0.00    +0.000 C 
ENDBRANCH  14  24
BRANCH  12  27
ATOM     27  C   UNL     1       7.407  13.166  26.396  0.00  0.00    +0.000 C 
ATOM     28  O   UNL     1       6.670  13.997  26.909  0.00  0.00    +0.000 OA
BRANCH  27  29
ATOM     29  O   UNL     1       7.796  12.054  27.044  0.00  0.00    +0.000 OA
ATOM     30  H   UNL     1       7.839  11.247  26.477  0.00  0.00    +0.000 HD
ENDBRANCH  27  29
ENDBRANCH  12  27
TORSDOF 4
ENDMDL
MODEL 6
REMARK VINA RESULT:      -6.2      2.318      6.143
REMARK  Name = 
REMARK  4 active torsions:
REMARK  status: ('A' for Active; 'I' for Inactive)
REMARK    1  A    between atoms: N_1  and  C_2
REMARK    2  A    between atoms: C_13  and  C_14
REMARK    3  A    between atoms: C_14  and  O_16
REMARK    4  A    between atoms: N_18  and  C_19
REMARK                            x       y       z     vdW  Elec       q    Type
REMARK                         _______ _______ _______ _____ _____    ______ ____
ROOT
ATOM      1  C   UNL     1      -5.266  15.346  21.163  0.00  0.00    +0.000 C 
ATOM      2  C   UNL     1      -4.015  16.111  21.646  0.00  0.00    +0.000 C 
ATOM      3  C   UNL     1      -3.547  15.351  22.883  0.00  0.00    +0.000 C 
ATOM      4  N   UNL     1      -3.951  13.957  22.591  0.00  0.00    +0.000 N 
ATOM      5  C   UNL     1      -2.969  13.187  21.937  0.00  0.00    +0.000 A 
ATOM      6  C   UNL     1      -1.755  13.015  22.652  0.00  0.00    +0.000 A 
ATOM      7  F   UNL     1      -1.623  13.535  23.886  0.00  0.00    +0.000 F 
ATOM      8  C   UNL     1      -0.679  12.310  22.160  0.00  0.00    +0.000 A 
ATOM      9  C   UNL     1      -0.767  11.728  20.903  0.00  0.00    +0.000 A 
ATOM     10  C   UNL     1       0.416  10.960  20.458  0.00  0.00    +0.000 A 
ATOM     11  O   UNL     1       1.435  10.883  21.143  0.00  0.00    +0.000 OA
ATOM     12  C   UNL     1       0.356  10.263  19.171  0.00  0.00    +0.000 A 
ATOM     13  C   UNL     1      -0.742  10.462  18.441  0.00  0.00    +0.000 A 
ATOM     14  N   UNL     1      -1.859  11.220  18.770  0.00  0.00    +0.000 N 
ATOM     15  C   UNL     1      -1.933  11.841  20.095  0.00  0.00    +0.000 A 
ATOM     16  C   UNL     1      -3.084  12.538  20.661  0.00  0.00    +0.000 A 
ATOM     17  C   UNL     1      -4.344  12.580  19.814  0.00  0.00    +0.000 C 
ATOM     18  O   UNL     1      -5.697  12.669  20.229  0.00  0.00    +0.000 OA
ATOM     19  C   UNL     1      -5.917  12.803  21.605  0.00  0.00    +0.000 C 
ATOM     20  C   UNL     1      -5.331  14.101  22.110  0.00  0.00    +0.000 C 
ENDROOT
BRANCH   1  21
ATOM     21  N   UNL     1      -6.447  16.210  21.124  0.00  0.00    +0.000 NA
ATOM     22  H   UNL     1      -6.191  17.136  21.470  0.00  0.00    +0.000 HD
ATOM     23  H   UNL     1      -6.760  16.345  20.164  0.00  0.00    +0.000 HD
ENDBRANCH   1  21
BRANCH  14  24
ATOM     24  C   UNL     1      -2.807  11.493  17.643  0.00  0.00    +0.000 C 
ATOM     25  C   UNL     1      -3.674  10.362  17.110  0.00  0.00    +0.000 C 
ATOM     26  C   UNL     1      -2.698  11.023  16.204  0.00  0.00    +0.000 C 
ENDBRANCH  14  24
BRANCH  12  27
ATOM     27  C   UNL     1       1.426   9.384  18.661  0.00  0.00    +0.000 C 
ATOM     28  O   UNL     1       1.945   9.537  17.564  0.00  0.00    +0.000 OA
BRANCH  27  29
ATOM     29  O   UNL     1       1.781   8.387  19.490  0.00  0.00    +0.000 OA
ATOM     30  H   UNL     1       2.456   8.640  20.165  0.00  0.00    +0.000 HD
ENDBRANCH  27  29
ENDBRANCH  12  27
TORSDOF 4
ENDMDL
MODEL 7
REMARK VINA RESULT:      -6.2      2.718      6.824
REMARK  Name = 
REMARK  4 active torsions:
REMARK  status: ('A' for Active; 'I' for Inactive)
REMARK    1  A    between atoms: N_1  and  C_2
REMARK    2  A    between atoms: C_13  and  C_14
REMARK    3  A    between atoms: C_14  and  O_16
REMARK    4  A    between atoms: N_18  and  C_19
REMARK                            x       y       z     vdW  Elec       q    Type
REMARK                         _______ _______ _______ _____ _____    ______ ____
ROOT
ATOM      1  C   UNL     1      -6.748  13.203  21.819  0.00  0.00    +0.000 C 
ATOM      2  C   UNL     1      -7.282  11.933  21.121  0.00  0.00    +0.000 C 
ATOM      3  C   UNL     1      -7.209  12.248  19.631  0.00  0.00    +0.000 C 
ATOM      4  N   UNL     1      -6.045  13.158  19.538  0.00  0.00    +0.000 N 
ATOM      5  C   UNL     1      -4.815  12.513  19.304  0.00  0.00    +0.000 A 
ATOM      6  C   UNL     1      -4.732  11.780  18.092  0.00  0.00    +0.000 A 
ATOM      7  F   UNL     1      -5.773  11.773  17.240  0.00  0.00    +0.000 F 
ATOM      8  C   UNL     1      -3.615  11.071  17.708  0.00  0.00    +0.000 A 
ATOM      9  C   UNL     1      -2.500  11.064  18.536  0.00  0.00    +0.000 A 
ATOM     10  C   UNL     1      -1.329  10.308  18.040  0.00  0.00    +0.000 A 
ATOM     11  O   UNL     1      -1.359   9.686  16.980  0.00  0.00    +0.000 OA
ATOM     12  C   UNL     1      -0.098  10.323  18.835  0.00  0.00    +0.000 A 
ATOM     13  C   UNL     1      -0.163  10.942  20.014  0.00  0.00    +0.000 A 
ATOM     14  N   UNL     1      -1.246  11.614  20.567  0.00  0.00    +0.000 N 
ATOM     15  C   UNL     1      -2.472  11.758  19.777  0.00  0.00    +0.000 A 
ATOM     16  C   UNL     1      -3.643  12.553  20.134  0.00  0.00    +0.000 A 
ATOM     17  C   UNL     1      -3.563  13.349  21.425  0.00  0.00    +0.000 C 
ATOM     18  O   UNL     1      -4.220  14.557  21.774  0.00  0.00    +0.000 OA
ATOM     19  C   UNL     1      -5.122  15.066  20.832  0.00  0.00    +0.000 C 
ATOM     20  C   UNL     1      -6.274  14.109  20.633  0.00  0.00    +0.000 C 
ENDROOT
BRANCH   1  21
ATOM     21  N   UNL     1      -7.737  13.775  22.735  0.00  0.00    +0.000 NA
ATOM     22  H   UNL     1      -7.336  13.813  23.672  0.00  0.00    +0.000 HD
ATOM     23  H   UNL     1      -7.946  14.738  22.478  0.00  0.00    +0.000 HD
ENDBRANCH   1  21
BRANCH  14  24
ATOM     24  C   UNL     1      -1.117  11.961  22.018  0.00  0.00    +0.000 C 
ATOM     25  C   UNL     1      -0.738  10.874  23.012  0.00  0.00    +0.000 C 
ATOM     26  C   UNL     1      -2.045  11.568  23.152  0.00  0.00    +0.000 C 
ENDBRANCH  14  24
BRANCH  12  27
ATOM     27  C   UNL     1       1.167   9.696  18.404  0.00  0.00    +0.000 C 
ATOM     28  O   UNL     1       1.644   8.715  18.957  0.00  0.00    +0.000 OA
BRANCH  27  29
ATOM     29  O   UNL     1       1.767  10.295  17.361  0.00  0.00    +0.000 OA
ATOM     30  H   UNL     1       1.230  11.007  16.937  0.00  0.00    +0.000 HD
ENDBRANCH  27  29
ENDBRANCH  12  27
TORSDOF 4
ENDMDL
MODEL 8
REMARK VINA RESULT:      -6.2      2.543      3.619
REMARK  Name = 
REMARK  4 active torsions:
REMARK  status: ('A' for Active; 'I' for Inactive)
REMARK    1  A    between atoms: N_1  and  C_2
REMARK    2  A    between atoms: C_13  and  C_14
REMARK    3  A    between atoms: C_14  and  O_16
REMARK    4  A    between atoms: N_18  and  C_19
REMARK                            x       y       z     vdW  Elec       q    Type
REMARK                         _______ _______ _______ _____ _____    ______ ____
ROOT
ATOM      1  C   UNL     1      -0.085  10.190  18.772  0.00  0.00    +0.000 C 
ATOM      2  C   UNL     1       0.267   9.785  20.219  0.00  0.00    +0.000 C 
ATOM      3  C   UNL     1       0.685  11.085  20.898  0.00  0.00    +0.000 C 
ATOM      4  N   UNL     1      -0.131  12.104  20.198  0.00  0.00    +0.000 N 
ATOM      5  C   UNL     1      -1.376  12.371  20.800  0.00  0.00    +0.000 A 
ATOM      6  C   UNL     1      -1.315  12.878  22.124  0.00  0.00    +0.000 A 
ATOM      7  F   UNL     1      -0.122  13.111  22.700  0.00  0.00    +0.000 F 
ATOM      8  C   UNL     1      -2.431  13.177  22.874  0.00  0.00    +0.000 A 
ATOM      9  C   UNL     1      -3.690  12.982  22.322  0.00  0.00    +0.000 A 
ATOM     10  C   UNL     1      -4.838  13.357  23.176  0.00  0.00    +0.000 A 
ATOM     11  O   UNL     1      -4.686  13.773  24.324  0.00  0.00    +0.000 OA
ATOM     12  C   UNL     1      -6.190  13.242  22.623  0.00  0.00    +0.000 A 
ATOM     13  C   UNL     1      -6.288  12.701  21.408  0.00  0.00    +0.000 A 
ATOM     14  N   UNL     1      -5.259  12.270  20.581  0.00  0.00    +0.000 N 
ATOM     15  C   UNL     1      -3.871  12.473  21.006  0.00  0.00    +0.000 A 
ATOM     16  C   UNL     1      -2.675  12.223  20.207  0.00  0.00    +0.000 A 
ATOM     17  C   UNL     1      -2.892  11.754  18.779  0.00  0.00    +0.000 C 
ATOM     18  O   UNL     1      -2.061  11.935  17.643  0.00  0.00    +0.000 OA
ATOM     19  C   UNL     1      -0.838  12.577  17.865  0.00  0.00    +0.000 C 
ATOM     20  C   UNL     1       0.033  11.752  18.783  0.00  0.00    +0.000 C 
ENDROOT
BRANCH   1  21
ATOM     21  N   UNL     1       0.733   9.471  17.793  0.00  0.00    +0.000 NA
ATOM     22  H   UNL     1       0.243   8.619  17.516  0.00  0.00    +0.000 HD
ATOM     23  H   UNL     1       0.842  10.022  16.944  0.00  0.00    +0.000 HD
ENDBRANCH   1  21
BRANCH  14  24
ATOM     24  C   UNL     1      -5.680  11.448  19.402  0.00  0.00    +0.000 C 
ATOM     25  C   UNL     1      -6.528  12.089  18.313  0.00  0.00    +0.000 C 
ATOM     26  C   UNL     1      -7.071  10.936  19.078  0.00  0.00    +0.000 C 
ENDBRANCH  14  24
BRANCH  12  27
ATOM     27  C   UNL     1      -7.409  13.677  23.332  0.00  0.00    +0.000 C 
ATOM     28  O   UNL     1      -7.917  14.778  23.168  0.00  0.00    +0.000 OA
BRANCH  27  29
ATOM     29  O   UNL     1      -7.917  12.774  24.189  0.00  0.00    +0.000 OA
ATOM     30  H   UNL     1      -8.800  13.015  24.558  0.00  0.00    +0.000 HD
ENDBRANCH  27  29
ENDBRANCH  12  27
TORSDOF 4
ENDMDL
MODEL 9
REMARK VINA RESULT:      -6.1      5.130      7.616
REMARK  Name = 
REMARK  4 active torsions:
REMARK  status: ('A' for Active; 'I' for Inactive)
REMARK    1  A    between atoms: N_1  and  C_2
REMARK    2  A    between atoms: C_13  and  C_14
REMARK    3  A    between atoms: C_14  and  O_16
REMARK    4  A    between atoms: N_18  and  C_19
REMARK                            x       y       z     vdW  Elec       q    Type
REMARK                         _______ _______ _______ _____ _____    ______ ____
ROOT
ATOM      1  C   UNL     1       3.839   3.766  20.284  0.00  0.00    +0.000 C 
ATOM      2  C   UNL     1       5.115   4.430  19.723  0.00  0.00    +0.000 C 
ATOM      3  C   UNL     1       4.820   4.652  18.243  0.00  0.00    +0.000 C 
ATOM      4  N   UNL     1       3.355   4.870  18.224  0.00  0.00    +0.000 N 
ATOM      5  C   UNL     1       2.963   6.217  18.346  0.00  0.00    +0.000 A 
ATOM      6  C   UNL     1       3.419   7.080  17.315  0.00  0.00    +0.000 A 
ATOM      7  F   UNL     1       4.136   6.582  16.291  0.00  0.00    +0.000 F 
ATOM      8  C   UNL     1       3.149   8.430  17.281  0.00  0.00    +0.000 A 
ATOM      9  C   UNL     1       2.391   8.996  18.297  0.00  0.00    +0.000 A 
ATOM     10  C   UNL     1       2.116  10.444  18.172  0.00  0.00    +0.000 A 
ATOM     11  O   UNL     1       2.572  11.115  17.249  0.00  0.00    +0.000 OA
ATOM     12  C   UNL     1       1.260  11.083  19.176  0.00  0.00    +0.000 A 
ATOM     13  C   UNL     1       0.874  10.318  20.198  0.00  0.00    +0.000 A 
ATOM     14  N   UNL     1       1.149   8.973  20.408  0.00  0.00    +0.000 N 
ATOM     15  C   UNL     1       1.886   8.229  19.383  0.00  0.00    +0.000 A 
ATOM     16  C   UNL     1       2.131   6.790  19.367  0.00  0.00    +0.000 A 
ATOM     17  C   UNL     1       1.518   5.978  20.495  0.00  0.00    +0.000 C 
ATOM     18  O   UNL     1       1.109   4.619  20.499  0.00  0.00    +0.000 OA
ATOM     19  C   UNL     1       1.357   3.893  19.328  0.00  0.00    +0.000 C 
ATOM     20  C   UNL     1       2.843   3.790  19.076  0.00  0.00    +0.000 C 
ENDROOT
BRANCH   1  21
ATOM     21  N   UNL     1       4.124   2.460  20.881  0.00  0.00    +0.000 NA
ATOM     22  H   UNL     1       3.242   1.998  21.103  0.00  0.00    +0.000 HD
ATOM     23  H   UNL     1       4.596   1.856  20.210  0.00  0.00    +0.000 HD
ENDBRANCH   1  21
BRANCH  14  24
ATOM     24  C   UNL     1       0.827   8.455  21.776  0.00  0.00    +0.000 C 
ATOM     25  C   UNL     1      -0.611   8.506  22.271  0.00  0.00    +0.000 C 
ATOM     26  C   UNL     1       0.441   9.258  23.005  0.00  0.00    +0.000 C 
ENDBRANCH  14  24
BRANCH  12  27
ATOM     27  C   UNL     1       0.828  12.493  19.111  0.00  0.00    +0.000 C 
ATOM     28  O   UNL     1       0.949  13.269  20.049  0.00  0.00    +0.000 OA
BRANCH  27  29
ATOM     29  O   UNL     1       0.275  12.860  17.942  0.00  0.00    +0.000 OA
ATOM     30  H   UNL     1      -0.576  13.352  18.032  0.00  0.00    +0.000 HD
ENDBRANCH  27  29
ENDBRANCH  12  27
TORSDOF 4
ENDMDL
