MODEL 1
REMARK VINA RESULT:      -5.1      0.000      0.000
REMARK  Name = 
REMARK  8 active torsions:
REMARK  status: ('A' for Active; 'I' for Inactive)
REMARK    1  A    between atoms: C_1  and  N_2
REMARK    2  A    between atoms: N_2  and  C_3
REMARK    3  A    between atoms: N_2  and  S_17
REMARK    4  A    between atoms: N_7  and  S_8
REMARK    5  A    between atoms: S_8  and  C_11
REMARK    6  A    between atoms: C_11  and  C_12
REMARK    7  A    between atoms: S_17  and  C_20
REMARK    8  A    between atoms: C_20  and  C_21
REMARK                            x       y       z     vdW  Elec       q    Type
REMARK                         _______ _______ _______ _____ _____    ______ ____
ROOT
ATOM      1  C   UNL     1      -1.435  13.140  22.688  0.00  0.00    +0.000 C 
ATOM      2  C   UNL     1      -1.337  14.375  21.778  0.00  0.00    +0.000 C 
ATOM      3  C   UNL     1      -2.301  14.493  20.594  0.00  0.00    +0.000 C 
ATOM      4  C   UNL     1      -3.795  14.421  20.916  0.00  0.00    +0.000 C 
ATOM      5  N   UNL     1      -4.204  13.015  21.157  0.00  0.00    +0.000 NA
ATOM      6  C   UNL     1      -4.037  12.605  22.592  0.00  0.00    +0.000 C 
ATOM      7  C   UNL     1      -2.823  13.130  23.357  0.00  0.00    +0.000 C 
ENDROOT
BRANCH   5   8
ATOM      8  S   UNL     1      -5.824  12.614  20.624  0.00  0.00    +0.000 S 
ATOM      9  O   UNL     1      -6.336  11.669  21.605  0.00  0.00    +0.000 OA
ATOM     10  O   UNL     1      -6.503  13.880  20.416  0.00  0.00    +0.000 OA
BRANCH   8  11
ATOM     11  C   UNL     1      -5.917  11.716  19.060  0.00  0.00    +0.000 C 
ATOM     12  C   UNL     1      -6.782  10.506  19.185  0.00  0.00    +0.000 C 
ATOM     13  C   UNL     1      -5.802  12.429  17.747  0.00  0.00    +0.000 C 
ATOM     14  C   UNL     1      -4.622  11.667  18.293  0.00  0.00    +0.000 C 
ENDBRANCH   8  11
ENDBRANCH   5   8
BRANCH   1  16
ATOM     15  C   UNL     1      -1.078  10.705  23.089  0.00  0.00    +0.000 C 
ATOM     16  N   UNL     1      -1.021  11.806  22.074  0.00  0.00    +0.000 NA
BRANCH  16  17
ATOM     17  S   UNL     1       0.554  11.797  21.290  0.00  0.00    +0.000 S 
ATOM     18  O   UNL     1       1.229  13.039  21.608  0.00  0.00    +0.000 OA
ATOM     19  O   UNL     1       1.166  10.521  21.605  0.00  0.00    +0.000 OA
BRANCH  17  20
ATOM     20  C   UNL     1       0.268  11.850  19.488  0.00  0.00    +0.000 C 
ATOM     21  C   UNL     1      -1.031  11.239  19.102  0.00  0.00    +0.000 C 
ATOM     22  C   UNL     1       0.704  13.090  18.743  0.00  0.00    +0.000 C 
ATOM     23  C   UNL     1       1.529  11.835  18.645  0.00  0.00    +0.000 C 
ENDBRANCH  17  20
ENDBRANCH  16  17
ENDBRANCH   1  16
TORSDOF 5
ENDMDL
MODEL 2
REMARK VINA RESULT:      -5.1      0.731      1.387
REMARK  Name = 
REMARK  8 active torsions:
REMARK  status: ('A' for Active; 'I' for Inactive)
REMARK    1  A    between atoms: C_1  and  N_2
REMARK    2  A    between atoms: N_2  and  C_3
REMARK    3  A    between atoms: N_2  and  S_17
REMARK    4  A    between atoms: N_7  and  S_8
REMARK    5  A    between atoms: S_8  and  C_11
REMARK    6  A    between atoms: C_11  and  C_12
REMARK    7  A    between atoms: S_17  and  C_20
REMARK    8  A    between atoms: C_20  and  C_21
REMARK                            x       y       z     vdW  Elec       q    Type
REMARK                         _______ _______ _______ _____ _____    ______ ____
ROOT
ATOM      1  C   UNL     1      -0.995  12.792  22.603  0.00  0.00    +0.000 C 
ATOM      2  C   UNL     1      -0.751  13.988  21.669  0.00  0.00    +0.000 C 
ATOM      3  C   UNL     1      -1.741  14.243  20.528  0.00  0.00    +0.000 C 
ATOM      4  C   UNL     1      -3.211  14.408  20.921  0.00  0.00    +0.000 C 
ATOM      5  N   UNL     1      -3.820  13.084  21.204  0.00  0.00    +0.000 NA
ATOM      6  C   UNL     1      -3.649  12.668  22.636  0.00  0.00    +0.000 C 
ATOM      7  C   UNL     1      -2.334  13.005  23.335  0.00  0.00    +0.000 C 
ENDROOT
BRANCH   5   8
ATOM      8  S   UNL     1      -5.507  12.935  20.753  0.00  0.00    +0.000 S 
ATOM      9  O   UNL     1      -6.015  11.800  21.508  0.00  0.00    +0.000 OA
ATOM     10  O   UNL     1      -6.091  14.250  20.944  0.00  0.00    +0.000 OA
BRANCH   8  11
ATOM     11  C   UNL     1      -5.803  12.482  19.030  0.00  0.00    +0.000 C 
ATOM     12  C   UNL     1      -6.575  13.544  18.320  0.00  0.00    +0.000 C 
ATOM     13  C   UNL     1      -4.836  11.620  18.277  0.00  0.00    +0.000 C 
ATOM     14  C   UNL     1      -6.112  11.024  18.815  0.00  0.00    +0.000 C 
ENDBRANCH   8  11
ENDBRANCH   5   8
BRANCH   1  16
ATOM     15  C   UNL     1      -0.919  10.339  23.043  0.00  0.00    +0.000 C 
ATOM     16  N   UNL     1      -0.822  11.404  21.993  0.00  0.00    +0.000 NA
BRANCH  16  17
ATOM     17  S   UNL     1       0.650  11.172  21.059  0.00  0.00    +0.000 S 
ATOM     18  O   UNL     1       1.557  12.261  21.359  0.00  0.00    +0.000 OA
ATOM     19  O   UNL     1       1.057   9.795  21.262  0.00  0.00    +0.000 OA
BRANCH  17  20
ATOM     20  C   UNL     1       0.218  11.373  19.297  0.00  0.00    +0.000 C 
ATOM     21  C   UNL     1       0.942  12.506  18.662  0.00  0.00    +0.000 C 
ATOM     22  C   UNL     1       0.023  10.121  18.474  0.00  0.00    +0.000 C 
ATOM     23  C   UNL     1      -1.176  10.907  18.929  0.00  0.00    +0.000 C 
ENDBRANCH  17  20
ENDBRANCH  16  17
ENDBRANCH   1  16
TORSDOF 5
ENDMDL
MODEL 3
REMARK VINA RESULT:      -5.0     10.377     12.095
REMARK  Name = 
REMARK  8 active torsions:
REMARK  status: ('A' for Active; 'I' for Inactive)
REMARK    1  A    between atoms: C_1  and  N_2
REMARK    2  A    between atoms: N_2  and  C_3
REMARK    3  A    between atoms: N_2  and  S_17
REMARK    4  A    between atoms: N_7  and  S_8
REMARK    5  A    between atoms: S_8  and  C_11
REMARK    6  A    between atoms: C_11  and  C_12
REMARK    7  A    between atoms: S_17  and  C_20
REMARK    8  A    between atoms: C_20  and  C_21
REMARK                            x       y       z     vdW  Elec       q    Type
REMARK                         _______ _______ _______ _____ _____    ______ ____
ROOT
ATOM      1  C   UNL     1       5.474   6.317  16.817  0.00  0.00    +0.000 C 
ATOM      2  C   UNL     1       4.221   7.089  17.258  0.00  0.00    +0.000 C 
ATOM      3  C   UNL     1       3.036   6.303  17.826  0.00  0.00    +0.000 C 
ATOM      4  C   UNL     1       3.324   5.401  19.028  0.00  0.00    +0.000 C 
ATOM      5  N   UNL     1       3.990   4.150  18.585  0.00  0.00    +0.000 NA
ATOM      6  C   UNL     1       5.484   4.284  18.529  0.00  0.00    +0.000 C 
ATOM      7  C   UNL     1       6.074   5.608  18.046  0.00  0.00    +0.000 C 
ENDROOT
BRANCH   5   8
ATOM      8  S   UNL     1       3.570   2.722  19.510  0.00  0.00    +0.000 S 
ATOM      9  O   UNL     1       3.307   1.682  18.526  0.00  0.00    +0.000 OA
ATOM     10  O   UNL     1       4.632   2.547  20.482  0.00  0.00    +0.000 OA
BRANCH   8  11
ATOM     11  C   UNL     1       2.028   2.840  20.444  0.00  0.00    +0.000 C 
ATOM     12  C   UNL     1       0.845   2.837  19.533  0.00  0.00    +0.000 C 
ATOM     13  C   UNL     1       1.916   2.278  21.829  0.00  0.00    +0.000 C 
ATOM     14  C   UNL     1       2.090   3.763  21.632  0.00  0.00    +0.000 C 
ENDBRANCH   8  11
ENDBRANCH   5   8
BRANCH   1  16
ATOM     15  C   UNL     1       4.356   4.316  15.834  0.00  0.00    +0.000 C 
ATOM     16  N   UNL     1       5.329   5.428  15.584  0.00  0.00    +0.000 NA
BRANCH  16  17
ATOM     17  S   UNL     1       6.831   4.759  14.960  0.00  0.00    +0.000 S 
ATOM     18  O   UNL     1       7.862   5.772  15.069  0.00  0.00    +0.000 OA
ATOM     19  O   UNL     1       7.000   3.463  15.587  0.00  0.00    +0.000 OA
BRANCH  17  20
ATOM     20  C   UNL     1       6.606   4.488  13.168  0.00  0.00    +0.000 C 
ATOM     21  C   UNL     1       7.563   5.280  12.351  0.00  0.00    +0.000 C 
ATOM     22  C   UNL     1       6.287   3.086  12.704  0.00  0.00    +0.000 C 
ATOM     23  C   UNL     1       5.195   4.120  12.755  0.00  0.00    +0.000 C 
ENDBRANCH  17  20
ENDBRANCH  16  17
ENDBRANCH   1  16
TORSDOF 5
ENDMDL
MODEL 4
REMARK VINA RESULT:      -5.0     10.294     11.834
REMARK  Name = 
REMARK  8 active torsions:
REMARK  status: ('A' for Active; 'I' for Inactive)
REMARK    1  A    between atoms: C_1  and  N_2
REMARK    2  A    between atoms: N_2  and  C_3
REMARK    3  A    between atoms: N_2  and  S_17
REMARK    4  A    between atoms: N_7  and  S_8
REMARK    5  A    between atoms: S_8  and  C_11
REMARK    6  A    between atoms: C_11  and  C_12
REMARK    7  A    between atoms: S_17  and  C_20
REMARK    8  A    between atoms: C_20  and  C_21
REMARK                            x       y       z     vdW  Elec       q    Type
REMARK                         _______ _______ _______ _____ _____    ______ ____
ROOT
ATOM      1  C   UNL     1       5.950   6.015  17.759  0.00  0.00    +0.000 C 
ATOM      2  C   UNL     1       4.603   6.647  17.375  0.00  0.00    +0.000 C 
ATOM      3  C   UNL     1       3.342   5.780  17.433  0.00  0.00    +0.000 C 
ATOM      4  C   UNL     1       3.035   5.104  18.771  0.00  0.00    +0.000 C 
ATOM      5  N   UNL     1       3.906   3.916  18.959  0.00  0.00    +0.000 NA
ATOM      6  C   UNL     1       5.213   4.260  19.613  0.00  0.00    +0.000 C 
ATOM      7  C   UNL     1       5.886   5.578  19.235  0.00  0.00    +0.000 C 
ENDROOT
BRANCH   5   8
ATOM      8  S   UNL     1       3.161   2.583  19.817  0.00  0.00    +0.000 S 
ATOM      9  O   UNL     1       2.784   1.620  18.792  0.00  0.00    +0.000 OA
ATOM     10  O   UNL     1       4.098   2.201  20.857  0.00  0.00    +0.000 OA
BRANCH   8  11
ATOM     11  C   UNL     1       1.603   2.976  20.643  0.00  0.00    +0.000 C 
ATOM     12  C   UNL     1       1.575   2.422  22.029  0.00  0.00    +0.000 C 
ATOM     13  C   UNL     1       0.844   4.225  20.312  0.00  0.00    +0.000 C 
ATOM     14  C   UNL     1       0.391   2.900  19.752  0.00  0.00    +0.000 C 
ENDBRANCH   8  11
ENDBRANCH   5   8
BRANCH   1  16
ATOM     15  C   UNL     1       7.886   4.543  17.207  0.00  0.00    +0.000 C 
ATOM     16  N   UNL     1       6.501   4.955  16.809  0.00  0.00    +0.000 NA
BRANCH  16  17
ATOM     17  S   UNL     1       6.489   5.392  15.106  0.00  0.00    +0.000 S 
ATOM     18  O   UNL     1       5.483   6.416  14.905  0.00  0.00    +0.000 OA
ATOM     19  O   UNL     1       7.869   5.628  14.728  0.00  0.00    +0.000 OA
BRANCH  17  20
ATOM     20  C   UNL     1       5.894   3.941  14.172  0.00  0.00    +0.000 C 
ATOM     21  C   UNL     1       5.396   2.860  15.063  0.00  0.00    +0.000 C 
ATOM     22  C   UNL     1       5.136   4.192  12.889  0.00  0.00    +0.000 C 
ATOM     23  C   UNL     1       6.567   3.731  12.830  0.00  0.00    +0.000 C 
ENDBRANCH  17  20
ENDBRANCH  16  17
ENDBRANCH   1  16
TORSDOF 5
ENDMDL
MODEL 5
REMARK VINA RESULT:      -4.9      9.191     12.561
REMARK  Name = 
REMARK  8 active torsions:
REMARK  status: ('A' for Active; 'I' for Inactive)
REMARK    1  A    between atoms: C_1  and  N_2
REMARK    2  A    between atoms: N_2  and  C_3
REMARK    3  A    between atoms: N_2  and  S_17
REMARK    4  A    between atoms: N_7  and  S_8
REMARK    5  A    between atoms: S_8  and  C_11
REMARK    6  A    between atoms: C_11  and  C_12
REMARK    7  A    between atoms: S_17  and  C_20
REMARK    8  A    between atoms: C_20  and  C_21
REMARK                            x       y       z     vdW  Elec       q    Type
REMARK                         _______ _______ _______ _____ _____    ______ ____
ROOT
ATOM      1  C   UNL     1       7.427  16.047  22.206  0.00  0.00    +0.000 C 
ATOM      2  C   UNL     1       8.746  16.145  22.989  0.00  0.00    +0.000 C 
ATOM      3  C   UNL     1       9.927  15.275  22.549  0.00  0.00    +0.000 C 
ATOM      4  C   UNL     1      10.380  15.416  21.095  0.00  0.00    +0.000 C 
ATOM      5  N   UNL     1       9.456  14.683  20.194  0.00  0.00    +0.000 NA
ATOM      6  C   UNL     1       8.296  15.526  19.749  0.00  0.00    +0.000 C 
ATOM      7  C   UNL     1       7.681  16.498  20.755  0.00  0.00    +0.000 C 
ENDROOT
BRANCH   5   8
ATOM      8  S   UNL     1      10.214  13.953  18.793  0.00  0.00    +0.000 S 
ATOM      9  O   UNL     1       9.160  13.833  17.796  0.00  0.00    +0.000 OA
ATOM     10  O   UNL     1      11.389  14.754  18.510  0.00  0.00    +0.000 OA
BRANCH   8  11
ATOM     11  C   UNL     1      10.789  12.257  19.029  0.00  0.00    +0.000 C 
ATOM     12  C   UNL     1      10.268  11.358  17.956  0.00  0.00    +0.000 C 
ATOM     13  C   UNL     1      12.106  11.968  19.682  0.00  0.00    +0.000 C 
ATOM     14  C   UNL     1      10.828  11.808  20.465  0.00  0.00    +0.000 C 
ENDBRANCH   8  11
ENDBRANCH   5   8
BRANCH   1  16
ATOM     15  C   UNL     1       5.377  14.787  21.552  0.00  0.00    +0.000 C 
ATOM     16  N   UNL     1       6.654  14.737  22.334  0.00  0.00    +0.000 NA
BRANCH  16  17
ATOM     17  S   UNL     1       6.310  14.226  23.982  0.00  0.00    +0.000 S 
ATOM     18  O   UNL     1       6.516  15.359  24.863  0.00  0.00    +0.000 OA
ATOM     19  O   UNL     1       5.033  13.541  23.946  0.00  0.00    +0.000 OA
BRANCH  17  20
ATOM     20  C   UNL     1       7.585  13.008  24.454  0.00  0.00    +0.000 C 
ATOM     21  C   UNL     1       8.438  13.486  25.574  0.00  0.00    +0.000 C 
ATOM     22  C   UNL     1       7.198  11.547  24.447  0.00  0.00    +0.000 C 
ATOM     23  C   UNL     1       8.042  12.100  23.330  0.00  0.00    +0.000 C 
ENDBRANCH  17  20
ENDBRANCH  16  17
ENDBRANCH   1  16
TORSDOF 5
ENDMDL
MODEL 6
REMARK VINA RESULT:      -4.9      2.632      5.384
REMARK  Name = 
REMARK  8 active torsions:
REMARK  status: ('A' for Active; 'I' for Inactive)
REMARK    1  A    between atoms: C_1  and  N_2
REMARK    2  A    between atoms: N_2  and  C_3
REMARK    3  A    between atoms: N_2  and  S_17
REMARK    4  A    between atoms: N_7  and  S_8
REMARK    5  A    between atoms: S_8  and  C_11
REMARK    6  A    between atoms: C_11  and  C_12
REMARK    7  A    between atoms: S_17  and  C_20
REMARK    8  A    between atoms: C_20  and  C_21
REMARK                            x       y       z     vdW  Elec       q    Type
REMARK                         _______ _______ _______ _____ _____    ______ ____
ROOT
ATOM      1  C   UNL     1      -1.728  14.943  22.657  0.00  0.00    +0.000 C 
ATOM      2  C   UNL     1      -1.291  13.712  23.468  0.00  0.00    +0.000 C 
ATOM      3  C   UNL     1      -1.357  12.334  22.804  0.00  0.00    +0.000 C 
ATOM      4  C   UNL     1      -0.591  12.169  21.490  0.00  0.00    +0.000 C 
ATOM      5  N   UNL     1      -1.347  12.785  20.371  0.00  0.00    +0.000 NA
ATOM      6  C   UNL     1      -1.023  14.241  20.192  0.00  0.00    +0.000 C 
ATOM      7  C   UNL     1      -0.792  15.089  21.442  0.00  0.00    +0.000 C 
ENDROOT
BRANCH   5   8
ATOM      8  S   UNL     1      -1.191  11.963  18.832  0.00  0.00    +0.000 S 
ATOM      9  O   UNL     1      -0.744  12.977  17.889  0.00  0.00    +0.000 OA
ATOM     10  O   UNL     1      -0.367  10.795  19.082  0.00  0.00    +0.000 OA
BRANCH   8  11
ATOM     11  C   UNL     1      -2.740  11.361  18.124  0.00  0.00    +0.000 C 
ATOM     12  C   UNL     1      -3.917  11.920  18.850  0.00  0.00    +0.000 C 
ATOM     13  C   UNL     1      -2.845  11.014  16.669  0.00  0.00    +0.000 C 
ATOM     14  C   UNL     1      -2.707   9.917  17.695  0.00  0.00    +0.000 C 
ENDBRANCH   8  11
ENDBRANCH   5   8
BRANCH   1  16
ATOM     15  C   UNL     1      -3.509  16.313  21.575  0.00  0.00    +0.000 C 
ATOM     16  N   UNL     1      -3.214  15.050  22.326  0.00  0.00    +0.000 NA
BRANCH  16  17
ATOM     17  S   UNL     1      -4.301  14.921  23.703  0.00  0.00    +0.000 S 
ATOM     18  O   UNL     1      -3.510  14.980  24.916  0.00  0.00    +0.000 OA
ATOM     19  O   UNL     1      -5.373  15.870  23.474  0.00  0.00    +0.000 OA
BRANCH  17  20
ATOM     20  C   UNL     1      -5.023  13.245  23.675  0.00  0.00    +0.000 C 
ATOM     21  C   UNL     1      -4.505  12.387  24.774  0.00  0.00    +0.000 C 
ATOM     22  C   UNL     1      -6.486  13.115  23.320  0.00  0.00    +0.000 C 
ATOM     23  C   UNL     1      -5.437  12.755  22.302  0.00  0.00    +0.000 C 
ENDBRANCH  17  20
ENDBRANCH  16  17
ENDBRANCH   1  16
TORSDOF 5
ENDMDL
MODEL 7
REMARK VINA RESULT:      -4.8      7.043      9.758
REMARK  Name = 
REMARK  8 active torsions:
REMARK  status: ('A' for Active; 'I' for Inactive)
REMARK    1  A    between atoms: C_1  and  N_2
REMARK    2  A    between atoms: N_2  and  C_3
REMARK    3  A    between atoms: N_2  and  S_17
REMARK    4  A    between atoms: N_7  and  S_8
REMARK    5  A    between atoms: S_8  and  C_11
REMARK    6  A    between atoms: C_11  and  C_12
REMARK    7  A    between atoms: S_17  and  C_20
REMARK    8  A    between atoms: C_20  and  C_21
REMARK                            x       y       z     vdW  Elec       q    Type
REMARK                         _______ _______ _______ _____ _____    ______ ____
ROOT
ATOM      1  C   UNL     1       8.383  15.188  19.643  0.00  0.00    +0.000 C 
ATOM      2  C   UNL     1       7.948  15.238  18.169  0.00  0.00    +0.000 C 
ATOM      3  C   UNL     1       6.546  14.744  17.800  0.00  0.00    +0.000 C 
ATOM      4  C   UNL     1       5.373  15.404  18.528  0.00  0.00    +0.000 C 
ATOM      5  N   UNL     1       5.245  14.857  19.901  0.00  0.00    +0.000 NA
ATOM      6  C   UNL     1       6.078  15.608  20.899  0.00  0.00    +0.000 C 
ATOM      7  C   UNL     1       7.455  16.106  20.462  0.00  0.00    +0.000 C 
ENDROOT
BRANCH   5   8
ATOM      8  S   UNL     1       3.601  14.731  20.496  0.00  0.00    +0.000 S 
ATOM      9  O   UNL     1       3.625  13.668  21.489  0.00  0.00    +0.000 OA
ATOM     10  O   UNL     1       3.211  16.074  20.884  0.00  0.00    +0.000 OA
BRANCH   8  11
ATOM     11  C   UNL     1       2.387  14.170  19.283  0.00  0.00    +0.000 C 
ATOM     12  C   UNL     1       1.595  15.315  18.745  0.00  0.00    +0.000 C 
ATOM     13  C   UNL     1       2.640  12.962  18.432  0.00  0.00    +0.000 C 
ATOM     14  C   UNL     1       1.724  12.862  19.625  0.00  0.00    +0.000 C 
ENDBRANCH   8  11
ENDBRANCH   5   8
BRANCH   1  16
ATOM     15  C   UNL     1       8.258  13.793  21.706  0.00  0.00    +0.000 C 
ATOM     16  N   UNL     1       8.591  13.801  20.245  0.00  0.00    +0.000 NA
BRANCH  16  17
ATOM     17  S   UNL     1      10.192  13.112  20.008  0.00  0.00    +0.000 S 
ATOM     18  O   UNL     1      11.145  14.198  19.900  0.00  0.00    +0.000 OA
ATOM     19  O   UNL     1      10.355  12.084  21.017  0.00  0.00    +0.000 OA
BRANCH  17  20
ATOM     20  C   UNL     1      10.200  12.297  18.374  0.00  0.00    +0.000 C 
ATOM     21  C   UNL     1       8.898  11.652  18.056  0.00  0.00    +0.000 C 
ATOM     22  C   UNL     1      10.928  12.991  17.246  0.00  0.00    +0.000 C 
ATOM     23  C   UNL     1      11.558  11.802  17.919  0.00  0.00    +0.000 C 
ENDBRANCH  17  20
ENDBRANCH  16  17
ENDBRANCH   1  16
TORSDOF 5
ENDMDL
MODEL 8
REMARK VINA RESULT:      -4.7     10.303     12.031
REMARK  Name = 
REMARK  8 active torsions:
REMARK  status: ('A' for Active; 'I' for Inactive)
REMARK    1  A    between atoms: C_1  and  N_2
REMARK    2  A    between atoms: N_2  and  C_3
REMARK    3  A    between atoms: N_2  and  S_17
REMARK    4  A    between atoms: N_7  and  S_8
REMARK    5  A    between atoms: S_8  and  C_11
REMARK    6  A    between atoms: C_11  and  C_12
REMARK    7  A    between atoms: S_17  and  C_20
REMARK    8  A    between atoms: C_20  and  C_21
REMARK                            x       y       z     vdW  Elec       q    Type
REMARK                         _______ _______ _______ _____ _____    ______ ____
ROOT
ATOM      1  C   UNL     1       5.539   6.311  16.859  0.00  0.00    +0.000 C 
ATOM      2  C   UNL     1       4.317   7.123  17.318  0.00  0.00    +0.000 C 
ATOM      3  C   UNL     1       3.109   6.373  17.888  0.00  0.00    +0.000 C 
ATOM      4  C   UNL     1       3.375   5.449  19.078  0.00  0.00    +0.000 C 
ATOM      5  N   UNL     1       3.993   4.180  18.618  0.00  0.00    +0.000 NA
ATOM      6  C   UNL     1       5.490   4.262  18.551  0.00  0.00    +0.000 C 
ATOM      7  C   UNL     1       6.123   5.569  18.077  0.00  0.00    +0.000 C 
ENDROOT
BRANCH   5   8
ATOM      8  S   UNL     1       3.529   2.759  19.532  0.00  0.00    +0.000 S 
ATOM      9  O   UNL     1       3.507   1.666  18.571  0.00  0.00    +0.000 OA
ATOM     10  O   UNL     1       4.428   2.703  20.670  0.00  0.00    +0.000 OA
BRANCH   8  11
ATOM     11  C   UNL     1       1.851   2.789  20.199  0.00  0.00    +0.000 C 
ATOM     12  C   UNL     1       1.853   2.540  21.670  0.00  0.00    +0.000 C 
ATOM     13  C   UNL     1       0.785   3.640  19.578  0.00  0.00    +0.000 C 
ATOM     14  C   UNL     1       0.816   2.157  19.306  0.00  0.00    +0.000 C 
ENDBRANCH   8  11
ENDBRANCH   5   8
BRANCH   1  16
ATOM     15  C   UNL     1       4.341   4.363  15.865  0.00  0.00    +0.000 C 
ATOM     16  N   UNL     1       5.353   5.441  15.619  0.00  0.00    +0.000 NA
BRANCH  16  17
ATOM     17  S   UNL     1       6.826   4.724  14.978  0.00  0.00    +0.000 S 
ATOM     18  O   UNL     1       7.892   5.699  15.084  0.00  0.00    +0.000 OA
ATOM     19  O   UNL     1       6.954   3.418  15.595  0.00  0.00    +0.000 OA
BRANCH  17  20
ATOM     20  C   UNL     1       6.577   4.473  13.187  0.00  0.00    +0.000 C 
ATOM     21  C   UNL     1       7.522   5.275  12.366  0.00  0.00    +0.000 C 
ATOM     22  C   UNL     1       6.252   3.075  12.711  0.00  0.00    +0.000 C 
ATOM     23  C   UNL     1       5.161   4.108  12.788  0.00  0.00    +0.000 C 
ENDBRANCH  17  20
ENDBRANCH  16  17
ENDBRANCH   1  16
TORSDOF 5
ENDMDL
MODEL 9
REMARK VINA RESULT:      -4.7      2.701      3.884
REMARK  Name = 
REMARK  8 active torsions:
REMARK  status: ('A' for Active; 'I' for Inactive)
REMARK    1  A    between atoms: C_1  and  N_2
REMARK    2  A    between atoms: N_2  and  C_3
REMARK    3  A    between atoms: N_2  and  S_17
REMARK    4  A    between atoms: N_7  and  S_8
REMARK    5  A    between atoms: S_8  and  C_11
REMARK    6  A    between atoms: C_11  and  C_12
REMARK    7  A    between atoms: S_17  and  C_20
REMARK    8  A    between atoms: C_20  and  C_21
REMARK                            x       y       z     vdW  Elec       q    Type
REMARK                         _______ _______ _______ _____ _____    ______ ____
ROOT
ATOM      1  C   UNL     1      -0.456  12.811  20.730  0.00  0.00    +0.000 C 
ATOM      2  C   UNL     1      -0.972  14.168  20.225  0.00  0.00    +0.000 C 
ATOM      3  C   UNL     1      -2.367  14.630  20.656  0.00  0.00    +0.000 C 
ATOM      4  C   UNL     1      -2.631  14.701  22.162  0.00  0.00    +0.000 C 
ATOM      5  N   UNL     1      -2.871  13.342  22.708  0.00  0.00    +0.000 NA
ATOM      6  C   UNL     1      -1.601  12.658  23.124  0.00  0.00    +0.000 C 
ATOM      7  C   UNL     1      -0.354  12.865  22.267  0.00  0.00    +0.000 C 
ENDROOT
BRANCH   5   8
ATOM      8  S   UNL     1      -4.028  13.268  24.022  0.00  0.00    +0.000 S 
ATOM      9  O   UNL     1      -4.140  11.858  24.365  0.00  0.00    +0.000 OA
ATOM     10  O   UNL     1      -3.568  14.220  25.016  0.00  0.00    +0.000 OA
BRANCH   8  11
ATOM     11  C   UNL     1      -5.714  13.748  23.588  0.00  0.00    +0.000 C 
ATOM     12  C   UNL     1      -5.929  15.210  23.798  0.00  0.00    +0.000 C 
ATOM     13  C   UNL     1      -6.480  13.017  22.526  0.00  0.00    +0.000 C 
ATOM     14  C   UNL     1      -6.766  12.745  23.981  0.00  0.00    +0.000 C 
ENDBRANCH   8  11
ENDBRANCH   5   8
BRANCH   1  16
ATOM     15  C   UNL     1      -0.553  10.319  20.753  0.00  0.00    +0.000 C 
ATOM     16  N   UNL     1      -1.158  11.569  20.188  0.00  0.00    +0.000 NA
BRANCH  16  17
ATOM     17  S   UNL     1      -1.218  11.447  18.434  0.00  0.00    +0.000 S 
ATOM     18  O   UNL     1      -0.920  12.751  17.875  0.00  0.00    +0.000 OA
ATOM     19  O   UNL     1      -0.425  10.289  18.071  0.00  0.00    +0.000 OA
BRANCH  17  20
ATOM     20  C   UNL     1      -2.950  11.106  17.969  0.00  0.00    +0.000 C 
ATOM     21  C   UNL     1      -3.920  11.874  18.794  0.00  0.00    +0.000 C 
ATOM     22  C   UNL     1      -3.264  10.939  16.500  0.00  0.00    +0.000 C 
ATOM     23  C   UNL     1      -3.191   9.727  17.388  0.00  0.00    +0.000 C 
ENDBRANCH  17  20
ENDBRANCH  16  17
ENDBRANCH   1  16
TORSDOF 5
ENDMDL
