MODEL 1
REMARK VINA RESULT:      -7.7      0.000      0.000
REMARK  Name = 
REMARK  9 active torsions:
REMARK  status: ('A' for Active; 'I' for Inactive)
REMARK    1  A    between atoms: C_1  and  O_2
REMARK    2  A    between atoms: O_2  and  C_3
REMARK    3  A    between atoms: C_6  and  N_7
REMARK    4  A    between atoms: C_8  and  C_10
REMARK    5  A    between atoms: C_15  and  C_16
REMARK    6  A    between atoms: C_16  and  C_17
REMARK    7  A    between atoms: C_16  and  C_18
REMARK    8  A    between atoms: C_23  and  O_24
REMARK    9  A    between atoms: O_24  and  C_25
REMARK                            x       y       z     vdW  Elec       q    Type
REMARK                         _______ _______ _______ _____ _____    ______ ____
ROOT
ATOM      1  N   UNL     1       2.457   6.852  19.104  0.00  0.00    +0.000 N 
ATOM      2  C   UNL     1       1.935   8.102  18.809  0.00  0.00    +0.000 C 
ATOM      3  O   UNL     1       2.027   8.660  17.716  0.00  0.00    +0.000 OA
ATOM      4  H   UNL     1       2.185   6.394  19.962  0.00  0.00    +0.000 HD
ENDROOT
BRANCH   2   5
ATOM      5  C   UNL     1       1.222   8.869  19.878  0.00  0.00    +0.000 A 
ATOM      6  C   UNL     1       1.511   8.448  21.196  0.00  0.00    +0.000 A 
ATOM      7  C   UNL     1       0.973   9.081  22.318  0.00  0.00    +0.000 A 
ATOM      8  C   UNL     1       0.123  10.163  22.101  0.00  0.00    +0.000 A 
ATOM      9  N   UNL     1      -0.530  10.952  23.005  0.00  0.00    +0.000 NA
ATOM     10  C   UNL     1      -1.171  11.824  22.256  0.00  0.00    +0.000 A 
ATOM     11  O   UNL     1      -0.994  11.655  20.898  0.00  0.00    +0.000 OA
ATOM     12  C   UNL     1      -0.153  10.570  20.804  0.00  0.00    +0.000 A 
ATOM     13  C   UNL     1       0.360   9.962  19.648  0.00  0.00    +0.000 A 
BRANCH  10  14
ATOM     14  C   UNL     1      -2.069  12.926  22.722  0.00  0.00    +0.000 C 
ATOM     15  C   UNL     1      -3.216  12.359  23.559  0.00  0.00    +0.000 C 
ATOM     16  C   UNL     1      -1.288  13.944  23.565  0.00  0.00    +0.000 C 
ENDBRANCH  10  14
ENDBRANCH   2   5
BRANCH   1  20
ATOM     17  C   UNL     1       5.169   4.833  16.503  0.00  0.00    +0.000 A 
ATOM     18  C   UNL     1       4.061   4.164  17.032  0.00  0.00    +0.000 A 
ATOM     19  C   UNL     1       3.164   4.817  17.882  0.00  0.00    +0.000 A 
ATOM     20  C   UNL     1       3.363   6.143  18.262  0.00  0.00    +0.000 A 
ATOM     21  C   UNL     1       4.488   6.805  17.756  0.00  0.00    +0.000 A 
ATOM     22  C   UNL     1       5.408   6.159  16.898  0.00  0.00    +0.000 A 
BRANCH  17  24
ATOM     23  C   UNL     1       5.699   4.298  14.252  0.00  0.00    +0.000 C 
ATOM     24  O   UNL     1       6.027   4.208  15.638  0.00  0.00    +0.000 OA
ENDBRANCH  17  24
BRANCH  22  25
ATOM     25  O   UNL     1       6.456   6.973  16.547  0.00  0.00    +0.000 OA
ATOM     26  C   UNL     1       7.495   7.200  17.490  0.00  0.00    +0.000 C 
ENDBRANCH  22  25
ENDBRANCH   1  20
TORSDOF 5
ENDMDL
MODEL 2
REMARK VINA RESULT:      -7.6      6.406      9.460
REMARK  Name = 
REMARK  9 active torsions:
REMARK  status: ('A' for Active; 'I' for Inactive)
REMARK    1  A    between atoms: C_1  and  O_2
REMARK    2  A    between atoms: O_2  and  C_3
REMARK    3  A    between atoms: C_6  and  N_7
REMARK    4  A    between atoms: C_8  and  C_10
REMARK    5  A    between atoms: C_15  and  C_16
REMARK    6  A    between atoms: C_16  and  C_17
REMARK    7  A    between atoms: C_16  and  C_18
REMARK    8  A    between atoms: C_23  and  O_24
REMARK    9  A    between atoms: O_24  and  C_25
REMARK                            x       y       z     vdW  Elec       q    Type
REMARK                         _______ _______ _______ _____ _____    ______ ____
ROOT
ATOM      1  N   UNL     1       9.159   9.319  19.137  0.00  0.00    +0.000 N 
ATOM      2  C   UNL     1       8.241   9.058  18.130  0.00  0.00    +0.000 C 
ATOM      3  O   UNL     1       7.931   9.851  17.242  0.00  0.00    +0.000 OA
ATOM      4  H   UNL     1       9.486   8.558  19.715  0.00  0.00    +0.000 HD
ENDROOT
BRANCH   2   5
ATOM      5  C   UNL     1       7.538   7.738  18.105  0.00  0.00    +0.000 A 
ATOM      6  C   UNL     1       8.180   6.716  18.840  0.00  0.00    +0.000 A 
ATOM      7  C   UNL     1       7.641   5.434  18.966  0.00  0.00    +0.000 A 
ATOM      8  C   UNL     1       6.426   5.181  18.333  0.00  0.00    +0.000 A 
ATOM      9  N   UNL     1       5.687   4.033  18.294  0.00  0.00    +0.000 NA
ATOM     10  C   UNL     1       4.632   4.362  17.578  0.00  0.00    +0.000 A 
ATOM     11  O   UNL     1       4.631   5.665  17.123  0.00  0.00    +0.000 OA
ATOM     12  C   UNL     1       5.803   6.192  17.615  0.00  0.00    +0.000 A 
ATOM     13  C   UNL     1       6.309   7.490  17.458  0.00  0.00    +0.000 A 
BRANCH  10  14
ATOM     14  C   UNL     1       3.489   3.476  17.197  0.00  0.00    +0.000 C 
ATOM     15  C   UNL     1       3.582   2.141  17.936  0.00  0.00    +0.000 C 
ATOM     16  C   UNL     1       2.148   4.144  17.533  0.00  0.00    +0.000 C 
ENDBRANCH  10  14
ENDBRANCH   2   5
BRANCH   1  20
ATOM     17  C   UNL     1      10.890  13.135  19.937  0.00  0.00    +0.000 A 
ATOM     18  C   UNL     1       9.972  12.571  20.827  0.00  0.00    +0.000 A 
ATOM     19  C   UNL     1       9.401  11.319  20.577  0.00  0.00    +0.000 A 
ATOM     20  C   UNL     1       9.698  10.609  19.415  0.00  0.00    +0.000 A 
ATOM     21  C   UNL     1      10.595  11.186  18.509  0.00  0.00    +0.000 A 
ATOM     22  C   UNL     1      11.179  12.453  18.744  0.00  0.00    +0.000 A 
BRANCH  17  24
ATOM     23  C   UNL     1      10.779  15.498  19.744  0.00  0.00    +0.000 C 
ATOM     24  O   UNL     1      11.481  14.342  20.199  0.00  0.00    +0.000 OA
ENDBRANCH  17  24
BRANCH  22  25
ATOM     25  O   UNL     1      11.998  12.850  17.716  0.00  0.00    +0.000 OA
ATOM     26  C   UNL     1      11.421  13.487  16.585  0.00  0.00    +0.000 C 
ENDBRANCH  22  25
ENDBRANCH   1  20
TORSDOF 5
ENDMDL
MODEL 3
REMARK VINA RESULT:      -7.6      0.839      1.916
REMARK  Name = 
REMARK  9 active torsions:
REMARK  status: ('A' for Active; 'I' for Inactive)
REMARK    1  A    between atoms: C_1  and  O_2
REMARK    2  A    between atoms: O_2  and  C_3
REMARK    3  A    between atoms: C_6  and  N_7
REMARK    4  A    between atoms: C_8  and  C_10
REMARK    5  A    between atoms: C_15  and  C_16
REMARK    6  A    between atoms: C_16  and  C_17
REMARK    7  A    between atoms: C_16  and  C_18
REMARK    8  A    between atoms: C_23  and  O_24
REMARK    9  A    between atoms: O_24  and  C_25
REMARK                            x       y       z     vdW  Elec       q    Type
REMARK                         _______ _______ _______ _____ _____    ______ ____
ROOT
ATOM      1  N   UNL     1       2.400   6.929  19.087  0.00  0.00    +0.000 N 
ATOM      2  C   UNL     1       1.879   8.182  18.802  0.00  0.00    +0.000 C 
ATOM      3  O   UNL     1       1.969   8.747  17.713  0.00  0.00    +0.000 OA
ATOM      4  H   UNL     1       2.129   6.465  19.942  0.00  0.00    +0.000 HD
ENDROOT
BRANCH   2   5
ATOM      5  C   UNL     1       1.173   8.943  19.879  0.00  0.00    +0.000 A 
ATOM      6  C   UNL     1       1.464   8.509  21.193  0.00  0.00    +0.000 A 
ATOM      7  C   UNL     1       0.932   9.135  22.322  0.00  0.00    +0.000 A 
ATOM      8  C   UNL     1       0.086  10.223  22.117  0.00  0.00    +0.000 A 
ATOM      9  N   UNL     1      -0.560  11.007  23.029  0.00  0.00    +0.000 NA
ATOM     10  C   UNL     1      -1.200  11.889  22.289  0.00  0.00    +0.000 A 
ATOM     11  O   UNL     1      -1.027  11.731  20.930  0.00  0.00    +0.000 OA
ATOM     12  C   UNL     1      -0.191  10.642  20.824  0.00  0.00    +0.000 A 
ATOM     13  C   UNL     1       0.315  10.042  19.662  0.00  0.00    +0.000 A 
BRANCH  10  14
ATOM     14  C   UNL     1      -2.091  12.991  22.768  0.00  0.00    +0.000 C 
ATOM     15  C   UNL     1      -3.248  12.420  23.590  0.00  0.00    +0.000 C 
ATOM     16  C   UNL     1      -1.307  13.990  23.629  0.00  0.00    +0.000 C 
ENDBRANCH  10  14
ENDBRANCH   2   5
BRANCH   1  20
ATOM     17  C   UNL     1       5.109   4.728  16.635  0.00  0.00    +0.000 A 
ATOM     18  C   UNL     1       5.212   6.118  16.735  0.00  0.00    +0.000 A 
ATOM     19  C   UNL     1       4.332   6.849  17.539  0.00  0.00    +0.000 A 
ATOM     20  C   UNL     1       3.300   6.223  18.236  0.00  0.00    +0.000 A 
ATOM     21  C   UNL     1       3.179   4.834  18.112  0.00  0.00    +0.000 A 
ATOM     22  C   UNL     1       4.057   4.079  17.301  0.00  0.00    +0.000 A 
BRANCH  17  24
ATOM     23  C   UNL     1       5.865   4.131  14.465  0.00  0.00    +0.000 C 
ATOM     24  O   UNL     1       5.995   4.005  15.880  0.00  0.00    +0.000 OA
ENDBRANCH  17  24
BRANCH  22  25
ATOM     25  O   UNL     1       3.742   2.743  17.291  0.00  0.00    +0.000 OA
ATOM     26  C   UNL     1       3.579   2.067  18.530  0.00  0.00    +0.000 C 
ENDBRANCH  22  25
ENDBRANCH   1  20
TORSDOF 5
ENDMDL
MODEL 4
REMARK VINA RESULT:      -7.5      1.217      1.379
REMARK  Name = 
REMARK  9 active torsions:
REMARK  status: ('A' for Active; 'I' for Inactive)
REMARK    1  A    between atoms: C_1  and  O_2
REMARK    2  A    between atoms: O_2  and  C_3
REMARK    3  A    between atoms: C_6  and  N_7
REMARK    4  A    between atoms: C_8  and  C_10
REMARK    5  A    between atoms: C_15  and  C_16
REMARK    6  A    between atoms: C_16  and  C_17
REMARK    7  A    between atoms: C_16  and  C_18
REMARK    8  A    between atoms: C_23  and  O_24
REMARK    9  A    between atoms: O_24  and  C_25
REMARK                            x       y       z     vdW  Elec       q    Type
REMARK                         _______ _______ _______ _____ _____    ______ ____
ROOT
ATOM      1  N   UNL     1       2.162   6.650  19.685  0.00  0.00    +0.000 N 
ATOM      2  C   UNL     1       1.906   7.982  19.394  0.00  0.00    +0.000 C 
ATOM      3  O   UNL     1       2.288   8.563  18.380  0.00  0.00    +0.000 OA
ATOM      4  H   UNL     1       1.665   6.206  20.444  0.00  0.00    +0.000 HD
ENDROOT
BRANCH   2   5
ATOM      5  C   UNL     1       1.132   8.809  20.372  0.00  0.00    +0.000 A 
ATOM      6  C   UNL     1       1.434   8.550  21.729  0.00  0.00    +0.000 A 
ATOM      7  C   UNL     1       0.843   9.261  22.775  0.00  0.00    +0.000 A 
ATOM      8  C   UNL     1      -0.073  10.256  22.440  0.00  0.00    +0.000 A 
ATOM      9  N   UNL     1      -0.786  11.091  23.252  0.00  0.00    +0.000 NA
ATOM     10  C   UNL     1      -1.474  11.835  22.411  0.00  0.00    +0.000 A 
ATOM     11  O   UNL     1      -1.271  11.535  21.080  0.00  0.00    +0.000 OA
ATOM     12  C   UNL     1      -0.360  10.504  21.106  0.00  0.00    +0.000 A 
ATOM     13  C   UNL     1       0.204   9.812  20.024  0.00  0.00    +0.000 A 
BRANCH  10  14
ATOM     14  C   UNL     1      -2.447  12.919  22.754  0.00  0.00    +0.000 C 
ATOM     15  C   UNL     1      -3.157  13.414  21.493  0.00  0.00    +0.000 C 
ATOM     16  C   UNL     1      -3.495  12.413  23.755  0.00  0.00    +0.000 C 
ENDBRANCH  10  14
ENDBRANCH   2   5
BRANCH   1  20
ATOM     17  C   UNL     1       5.022   4.315  17.548  0.00  0.00    +0.000 A 
ATOM     18  C   UNL     1       3.696   4.386  17.113  0.00  0.00    +0.000 A 
ATOM     19  C   UNL     1       2.751   5.150  17.803  0.00  0.00    +0.000 A 
ATOM     20  C   UNL     1       3.089   5.837  18.968  0.00  0.00    +0.000 A 
ATOM     21  C   UNL     1       4.410   5.744  19.420  0.00  0.00    +0.000 A 
ATOM     22  C   UNL     1       5.378   4.971  18.737  0.00  0.00    +0.000 A 
BRANCH  17  24
ATOM     23  C   UNL     1       6.561   4.264  15.742  0.00  0.00    +0.000 C 
ATOM     24  O   UNL     1       5.959   3.599  16.851  0.00  0.00    +0.000 OA
ENDBRANCH  17  24
BRANCH  22  25
ATOM     25  O   UNL     1       6.597   4.985  19.367  0.00  0.00    +0.000 OA
ATOM     26  C   UNL     1       7.562   5.952  18.972  0.00  0.00    +0.000 C 
ENDBRANCH  22  25
ENDBRANCH   1  20
TORSDOF 5
ENDMDL
MODEL 5
REMARK VINA RESULT:      -7.5      1.447      2.110
REMARK  Name = 
REMARK  9 active torsions:
REMARK  status: ('A' for Active; 'I' for Inactive)
REMARK    1  A    between atoms: C_1  and  O_2
REMARK    2  A    between atoms: O_2  and  C_3
REMARK    3  A    between atoms: C_6  and  N_7
REMARK    4  A    between atoms: C_8  and  C_10
REMARK    5  A    between atoms: C_15  and  C_16
REMARK    6  A    between atoms: C_16  and  C_17
REMARK    7  A    between atoms: C_16  and  C_18
REMARK    8  A    between atoms: C_23  and  O_24
REMARK    9  A    between atoms: O_24  and  C_25
REMARK                            x       y       z     vdW  Elec       q    Type
REMARK                         _______ _______ _______ _____ _____    ______ ____
ROOT
ATOM      1  N   UNL     1       2.306   7.005  19.838  0.00  0.00    +0.000 N 
ATOM      2  C   UNL     1       1.713   8.196  19.444  0.00  0.00    +0.000 C 
ATOM      3  O   UNL     1       1.797   8.681  18.317  0.00  0.00    +0.000 OA
ATOM      4  H   UNL     1       2.043   6.591  20.721  0.00  0.00    +0.000 HD
ENDROOT
BRANCH   2   5
ATOM      5  C   UNL     1       0.928   8.987  20.442  0.00  0.00    +0.000 A 
ATOM      6  C   UNL     1       1.166   8.636  21.790  0.00  0.00    +0.000 A 
ATOM      7  C   UNL     1       0.557   9.302  22.855  0.00  0.00    +0.000 A 
ATOM      8  C   UNL     1      -0.313  10.346  22.549  0.00  0.00    +0.000 A 
ATOM      9  N   UNL     1      -1.031  11.153  23.383  0.00  0.00    +0.000 NA
ATOM     10  C   UNL     1      -1.661  11.971  22.565  0.00  0.00    +0.000 A 
ATOM     11  O   UNL     1      -1.415  11.746  21.226  0.00  0.00    +0.000 OA
ATOM     12  C   UNL     1      -0.538  10.684  21.222  0.00  0.00    +0.000 A 
ATOM     13  C   UNL     1       0.047  10.041  20.122  0.00  0.00    +0.000 A 
BRANCH  10  14
ATOM     14  C   UNL     1      -2.612  13.064  22.937  0.00  0.00    +0.000 C 
ATOM     15  C   UNL     1      -3.714  12.522  23.849  0.00  0.00    +0.000 C 
ATOM     16  C   UNL     1      -1.878  14.202  23.658  0.00  0.00    +0.000 C 
ENDBRANCH  10  14
ENDBRANCH   2   5
BRANCH   1  20
ATOM     17  C   UNL     1       5.275   4.873  17.638  0.00  0.00    +0.000 A 
ATOM     18  C   UNL     1       4.751   6.072  17.146  0.00  0.00    +0.000 A 
ATOM     19  C   UNL     1       3.781   6.781  17.860  0.00  0.00    +0.000 A 
ATOM     20  C   UNL     1       3.275   6.299  19.066  0.00  0.00    +0.000 A 
ATOM     21  C   UNL     1       3.779   5.084  19.546  0.00  0.00    +0.000 A 
ATOM     22  C   UNL     1       4.757   4.351  18.834  0.00  0.00    +0.000 A 
BRANCH  17  24
ATOM     23  C   UNL     1       7.599   4.558  17.273  0.00  0.00    +0.000 C 
ATOM     24  O   UNL     1       6.254   4.197  16.960  0.00  0.00    +0.000 OA
ENDBRANCH  17  24
BRANCH  22  25
ATOM     25  O   UNL     1       5.085   3.174  19.459  0.00  0.00    +0.000 OA
ATOM     26  C   UNL     1       4.084   2.486  20.197  0.00  0.00    +0.000 C 
ENDBRANCH  22  25
ENDBRANCH   1  20
TORSDOF 5
ENDMDL
MODEL 6
REMARK VINA RESULT:      -7.4      6.322      9.371
REMARK  Name = 
REMARK  9 active torsions:
REMARK  status: ('A' for Active; 'I' for Inactive)
REMARK    1  A    between atoms: C_1  and  O_2
REMARK    2  A    between atoms: O_2  and  C_3
REMARK    3  A    between atoms: C_6  and  N_7
REMARK    4  A    between atoms: C_8  and  C_10
REMARK    5  A    between atoms: C_15  and  C_16
REMARK    6  A    between atoms: C_16  and  C_17
REMARK    7  A    between atoms: C_16  and  C_18
REMARK    8  A    between atoms: C_23  and  O_24
REMARK    9  A    between atoms: O_24  and  C_25
REMARK                            x       y       z     vdW  Elec       q    Type
REMARK                         _______ _______ _______ _____ _____    ______ ____
ROOT
ATOM      1  N   UNL     1       9.007   9.078  19.016  0.00  0.00    +0.000 N 
ATOM      2  C   UNL     1       8.126   8.753  17.995  0.00  0.00    +0.000 C 
ATOM      3  O   UNL     1       7.866   9.479  17.037  0.00  0.00    +0.000 OA
ATOM      4  H   UNL     1       9.298   8.360  19.663  0.00  0.00    +0.000 HD
ENDROOT
BRANCH   2   5
ATOM      5  C   UNL     1       7.404   7.444  18.041  0.00  0.00    +0.000 A 
ATOM      6  C   UNL     1       8.008   6.467  18.865  0.00  0.00    +0.000 A 
ATOM      7  C   UNL     1       7.446   5.205  19.065  0.00  0.00    +0.000 A 
ATOM      8  C   UNL     1       6.246   4.924  18.414  0.00  0.00    +0.000 A 
ATOM      9  N   UNL     1       5.491   3.787  18.435  0.00  0.00    +0.000 NA
ATOM     10  C   UNL     1       4.462   4.079  17.665  0.00  0.00    +0.000 A 
ATOM     11  O   UNL     1       4.494   5.346  17.120  0.00  0.00    +0.000 OA
ATOM     12  C   UNL     1       5.660   5.891  17.609  0.00  0.00    +0.000 A 
ATOM     13  C   UNL     1       6.190   7.168  17.377  0.00  0.00    +0.000 A 
BRANCH  10  14
ATOM     14  C   UNL     1       3.316   3.184  17.314  0.00  0.00    +0.000 C 
ATOM     15  C   UNL     1       3.425   1.859  18.069  0.00  0.00    +0.000 C 
ATOM     16  C   UNL     1       1.978   3.852  17.661  0.00  0.00    +0.000 C 
ENDBRANCH  10  14
ENDBRANCH   2   5
BRANCH   1  20
ATOM     17  C   UNL     1      10.534  13.006  19.675  0.00  0.00    +0.000 A 
ATOM     18  C   UNL     1      10.712  12.374  18.442  0.00  0.00    +0.000 A 
ATOM     19  C   UNL     1      10.212  11.088  18.213  0.00  0.00    +0.000 A 
ATOM     20  C   UNL     1       9.555  10.379  19.217  0.00  0.00    +0.000 A 
ATOM     21  C   UNL     1       9.402  11.001  20.462  0.00  0.00    +0.000 A 
ATOM     22  C   UNL     1       9.905  12.299  20.712  0.00  0.00    +0.000 A 
BRANCH  17  24
ATOM     23  C   UNL     1      10.272  15.322  19.224  0.00  0.00    +0.000 C 
ATOM     24  O   UNL     1      10.987  14.281  19.889  0.00  0.00    +0.000 OA
ENDBRANCH  17  24
BRANCH  22  25
ATOM     25  O   UNL     1       9.681  12.706  22.004  0.00  0.00    +0.000 OA
ATOM     26  C   UNL     1       8.343  12.791  22.474  0.00  0.00    +0.000 C 
ENDBRANCH  22  25
ENDBRANCH   1  20
TORSDOF 5
ENDMDL
MODEL 7
REMARK VINA RESULT:      -7.1      1.944      9.440
REMARK  Name = 
REMARK  9 active torsions:
REMARK  status: ('A' for Active; 'I' for Inactive)
REMARK    1  A    between atoms: C_1  and  O_2
REMARK    2  A    between atoms: O_2  and  C_3
REMARK    3  A    between atoms: C_6  and  N_7
REMARK    4  A    between atoms: C_8  and  C_10
REMARK    5  A    between atoms: C_15  and  C_16
REMARK    6  A    between atoms: C_16  and  C_17
REMARK    7  A    between atoms: C_16  and  C_18
REMARK    8  A    between atoms: C_23  and  O_24
REMARK    9  A    between atoms: O_24  and  C_25
REMARK                            x       y       z     vdW  Elec       q    Type
REMARK                         _______ _______ _______ _____ _____    ______ ____
ROOT
ATOM      1  N   UNL     1       1.925   7.888  19.584  0.00  0.00    +0.000 N 
ATOM      2  C   UNL     1       2.116   6.539  19.838  0.00  0.00    +0.000 C 
ATOM      3  O   UNL     1       1.583   5.916  20.756  0.00  0.00    +0.000 OA
ATOM      4  H   UNL     1       2.255   8.278  18.713  0.00  0.00    +0.000 HD
ENDROOT
BRANCH   2   5
ATOM      5  C   UNL     1       3.050   5.756  18.971  0.00  0.00    +0.000 A 
ATOM      6  C   UNL     1       3.390   4.480  19.474  0.00  0.00    +0.000 A 
ATOM      7  C   UNL     1       4.211   3.594  18.774  0.00  0.00    +0.000 A 
ATOM      8  C   UNL     1       4.700   4.010  17.537  0.00  0.00    +0.000 A 
ATOM      9  N   UNL     1       5.510   3.352  16.657  0.00  0.00    +0.000 NA
ATOM     10  C   UNL     1       5.635   4.197  15.654  0.00  0.00    +0.000 A 
ATOM     11  O   UNL     1       4.963   5.390  15.821  0.00  0.00    +0.000 OA
ATOM     12  C   UNL     1       4.359   5.263  17.051  0.00  0.00    +0.000 A 
ATOM     13  C   UNL     1       3.542   6.186  17.720  0.00  0.00    +0.000 A 
BRANCH  10  14
ATOM     14  C   UNL     1       6.437   4.003  14.405  0.00  0.00    +0.000 C 
ATOM     15  C   UNL     1       5.511   3.772  13.210  0.00  0.00    +0.000 C 
ATOM     16  C   UNL     1       7.318   5.228  14.129  0.00  0.00    +0.000 C 
ENDBRANCH  10  14
ENDBRANCH   2   5
BRANCH   1  20
ATOM     17  C   UNL     1       0.025  10.676  22.196  0.00  0.00    +0.000 A 
ATOM     18  C   UNL     1       0.591   9.502  22.701  0.00  0.00    +0.000 A 
ATOM     19  C   UNL     1       1.220   8.583  21.855  0.00  0.00    +0.000 A 
ATOM     20  C   UNL     1       1.270   8.787  20.477  0.00  0.00    +0.000 A 
ATOM     21  C   UNL     1       0.678   9.948  19.967  0.00  0.00    +0.000 A 
ATOM     22  C   UNL     1       0.034  10.886  20.808  0.00  0.00    +0.000 A 
BRANCH  17  24
ATOM     23  C   UNL     1      -1.973  11.517  23.161  0.00  0.00    +0.000 C 
ATOM     24  O   UNL     1      -0.555  11.597  23.027  0.00  0.00    +0.000 OA
ENDBRANCH  17  24
BRANCH  22  25
ATOM     25  O   UNL     1      -0.510  11.932  20.104  0.00  0.00    +0.000 OA
ATOM     26  C   UNL     1      -1.598  11.676  19.226  0.00  0.00    +0.000 C 
ENDBRANCH  22  25
ENDBRANCH   1  20
TORSDOF 5
ENDMDL
MODEL 8
REMARK VINA RESULT:      -7.1      2.439     10.148
REMARK  Name = 
REMARK  9 active torsions:
REMARK  status: ('A' for Active; 'I' for Inactive)
REMARK    1  A    between atoms: C_1  and  O_2
REMARK    2  A    between atoms: O_2  and  C_3
REMARK    3  A    between atoms: C_6  and  N_7
REMARK    4  A    between atoms: C_8  and  C_10
REMARK    5  A    between atoms: C_15  and  C_16
REMARK    6  A    between atoms: C_16  and  C_17
REMARK    7  A    between atoms: C_16  and  C_18
REMARK    8  A    between atoms: C_23  and  O_24
REMARK    9  A    between atoms: O_24  and  C_25
REMARK                            x       y       z     vdW  Elec       q    Type
REMARK                         _______ _______ _______ _____ _____    ______ ____
ROOT
ATOM      1  N   UNL     1      -1.195  11.493  21.748  0.00  0.00    +0.000 N 
ATOM      2  C   UNL     1      -0.272  10.521  22.104  0.00  0.00    +0.000 C 
ATOM      3  O   UNL     1       0.040  10.243  23.261  0.00  0.00    +0.000 OA
ATOM      4  H   UNL     1      -1.524  11.535  20.793  0.00  0.00    +0.000 HD
ENDROOT
BRANCH   2   5
ATOM      5  C   UNL     1       0.432   9.752  21.031  0.00  0.00    +0.000 A 
ATOM      6  C   UNL     1       0.497  10.410  19.782  0.00  0.00    +0.000 A 
ATOM      7  C   UNL     1       1.158   9.862  18.682  0.00  0.00    +0.000 A 
ATOM      8  C   UNL     1       1.767   8.619  18.849  0.00  0.00    +0.000 A 
ATOM      9  N   UNL     1       2.470   7.867  17.953  0.00  0.00    +0.000 NA
ATOM     10  C   UNL     1       2.829   6.806  18.645  0.00  0.00    +0.000 A 
ATOM     11  O   UNL     1       2.392   6.801  19.954  0.00  0.00    +0.000 OA
ATOM     12  C   UNL     1       1.698   7.983  20.080  0.00  0.00    +0.000 A 
ATOM     13  C   UNL     1       1.042   8.493  21.210  0.00  0.00    +0.000 A 
BRANCH  10  14
ATOM     14  C   UNL     1       3.612   5.630  18.154  0.00  0.00    +0.000 C 
ATOM     15  C   UNL     1       4.583   5.150  19.233  0.00  0.00    +0.000 C 
ATOM     16  C   UNL     1       2.677   4.476  17.768  0.00  0.00    +0.000 C 
ENDBRANCH  10  14
ENDBRANCH   2   5
BRANCH   1  20
ATOM     17  C   UNL     1      -2.704  14.362  24.521  0.00  0.00    +0.000 A 
ATOM     18  C   UNL     1      -3.508  13.306  24.084  0.00  0.00    +0.000 A 
ATOM     19  C   UNL     1      -3.023  12.358  23.178  0.00  0.00    +0.000 A 
ATOM     20  C   UNL     1      -1.736  12.454  22.651  0.00  0.00    +0.000 A 
ATOM     21  C   UNL     1      -0.940  13.528  23.067  0.00  0.00    +0.000 A 
ATOM     22  C   UNL     1      -1.416  14.498  23.979  0.00  0.00    +0.000 A 
BRANCH  17  24
ATOM     23  C   UNL     1      -3.960  16.335  24.925  0.00  0.00    +0.000 C 
ATOM     24  O   UNL     1      -3.163  15.269  25.439  0.00  0.00    +0.000 OA
ENDBRANCH  17  24
BRANCH  22  25
ATOM     25  O   UNL     1      -0.491  15.483  24.224  0.00  0.00    +0.000 OA
ATOM     26  C   UNL     1      -0.507  16.655  23.420  0.00  0.00    +0.000 C 
ENDBRANCH  22  25
ENDBRANCH   1  20
TORSDOF 5
ENDMDL
MODEL 9
REMARK VINA RESULT:      -7.1      1.502      2.680
REMARK  Name = 
REMARK  9 active torsions:
REMARK  status: ('A' for Active; 'I' for Inactive)
REMARK    1  A    between atoms: C_1  and  O_2
REMARK    2  A    between atoms: O_2  and  C_3
REMARK    3  A    between atoms: C_6  and  N_7
REMARK    4  A    between atoms: C_8  and  C_10
REMARK    5  A    between atoms: C_15  and  C_16
REMARK    6  A    between atoms: C_16  and  C_17
REMARK    7  A    between atoms: C_16  and  C_18
REMARK    8  A    between atoms: C_23  and  O_24
REMARK    9  A    between atoms: O_24  and  C_25
REMARK                            x       y       z     vdW  Elec       q    Type
REMARK                         _______ _______ _______ _____ _____    ______ ____
ROOT
ATOM      1  N   UNL     1       2.168   7.547  18.868  0.00  0.00    +0.000 N 
ATOM      2  C   UNL     1       1.839   8.775  18.313  0.00  0.00    +0.000 C 
ATOM      3  O   UNL     1       1.999   9.074  17.130  0.00  0.00    +0.000 OA
ATOM      4  H   UNL     1       1.842   7.322  19.797  0.00  0.00    +0.000 HD
ENDROOT
BRANCH   2   5
ATOM      5  C   UNL     1       1.270   9.845  19.189  0.00  0.00    +0.000 A 
ATOM      6  C   UNL     1       1.480  11.162  18.721  0.00  0.00    +0.000 A 
ATOM      7  C   UNL     1       0.977  12.282  19.386  0.00  0.00    +0.000 A 
ATOM      8  C   UNL     1       0.246  12.063  20.552  0.00  0.00    +0.000 A 
ATOM      9  N   UNL     1      -0.352  12.965  21.386  0.00  0.00    +0.000 NA
ATOM     10  C   UNL     1      -0.915  12.213  22.309  0.00  0.00    +0.000 A 
ATOM     11  O   UNL     1      -0.716  10.858  22.146  0.00  0.00    +0.000 OA
ATOM     12  C   UNL     1       0.044  10.767  21.002  0.00  0.00    +0.000 A 
ATOM     13  C   UNL     1       0.533   9.614  20.370  0.00  0.00    +0.000 A 
BRANCH  10  14
ATOM     14  C   UNL     1      -1.697  12.678  23.496  0.00  0.00    +0.000 C 
ATOM     15  C   UNL     1      -1.501  14.180  23.708  0.00  0.00    +0.000 C 
ATOM     16  C   UNL     1      -3.193  12.388  23.309  0.00  0.00    +0.000 C 
ENDBRANCH  10  14
ENDBRANCH   2   5
BRANCH   1  20
ATOM     17  C   UNL     1       4.438   4.473  16.971  0.00  0.00    +0.000 A 
ATOM     18  C   UNL     1       4.998   5.733  17.195  0.00  0.00    +0.000 A 
ATOM     19  C   UNL     1       4.265   6.747  17.819  0.00  0.00    +0.000 A 
ATOM     20  C   UNL     1       2.940   6.549  18.204  0.00  0.00    +0.000 A 
ATOM     21  C   UNL     1       2.369   5.296  17.953  0.00  0.00    +0.000 A 
ATOM     22  C   UNL     1       3.094   4.260  17.319  0.00  0.00    +0.000 A 
BRANCH  17  24
ATOM     23  C   UNL     1       6.033   3.847  15.328  0.00  0.00    +0.000 C 
ATOM     24  O   UNL     1       5.167   3.466  16.396  0.00  0.00    +0.000 OA
ENDBRANCH  17  24
BRANCH  22  25
ATOM     25  O   UNL     1       2.339   3.129  17.136  0.00  0.00    +0.000 OA
ATOM     26  C   UNL     1       2.117   2.265  18.243  0.00  0.00    +0.000 C 
ENDBRANCH  22  25
ENDBRANCH   1  20
TORSDOF 5
ENDMDL
