MODEL 1
REMARK VINA RESULT:      -7.2      0.000      0.000
REMARK  Name = 
REMARK  6 active torsions:
REMARK  status: ('A' for Active; 'I' for Inactive)
REMARK    1  A    between atoms: C_1  and  O_2
REMARK    2  A    between atoms: O_2  and  C_3
REMARK    3  A    between atoms: C_6  and  C_7
REMARK    4  A    between atoms: N_8  and  N_9
REMARK    5  A    between atoms: N_9  and  C_10
REMARK    6  A    between atoms: C_10  and  N_12
REMARK                            x       y       z     vdW  Elec       q    Type
REMARK                         _______ _______ _______ _____ _____    ______ ____
ROOT
ATOM      1  C   UNL     1       2.066   3.947  20.774  0.00  0.00    +0.000 C 
ATOM      2  S   UNL     1       1.645   2.651  21.756  0.00  0.00    +0.000 S 
ENDROOT
BRANCH   1   3
ATOM      3  N   UNL     1       2.112   3.711  19.425  0.00  0.00    +0.000 N 
ATOM      4  C   UNL     1       3.179   3.987  18.618  0.00  0.00    +0.000 A 
ATOM      5  N   UNL     1       4.327   4.496  18.979  0.00  0.00    +0.000 NA
ATOM      6  C   UNL     1       5.136   4.610  17.866  0.00  0.00    +0.000 A 
ATOM      7  C   UNL     1       6.453   5.108  17.866  0.00  0.00    +0.000 A 
ATOM      8  C   UNL     1       7.163   5.192  16.666  0.00  0.00    +0.000 A 
ATOM      9  C   UNL     1       6.572   4.780  15.475  0.00  0.00    +0.000 A 
ATOM     10 CL   UNL     1       7.466   4.906  14.008  0.00  0.00    +0.000 Cl
ATOM     11  C   UNL     1       5.270   4.269  15.443  0.00  0.00    +0.000 A 
ATOM     12  C   UNL     1       4.568   4.193  16.658  0.00  0.00    +0.000 A 
ATOM     13  S   UNL     1       2.969   3.619  16.971  0.00  0.00    +0.000 S 
ATOM     14  H   UNL     1       1.292   3.295  19.007  0.00  0.00    +0.000 HD
ENDBRANCH   1   3
BRANCH   1  15
ATOM     15  N   UNL     1       2.358   5.225  21.209  0.00  0.00    +0.000 N 
ATOM     16  H   UNL     1       3.161   5.360  21.828  0.00  0.00    +0.000 HD
BRANCH  15  18
ATOM     17  C   UNL     1       2.205   7.250  20.216  0.00  0.00    +0.000 C 
ATOM     18  N   UNL     1       1.601   6.289  20.836  0.00  0.00    +0.000 NA
BRANCH  17  22
ATOM     19  C   UNL     1       0.035  10.714  18.942  0.00  0.00    +0.000 A 
ATOM     20  C   UNL     1       0.912  10.070  18.070  0.00  0.00    +0.000 A 
ATOM     21  C   UNL     1       1.613   8.935  18.480  0.00  0.00    +0.000 A 
ATOM     22  C   UNL     1       1.450   8.446  19.780  0.00  0.00    +0.000 A 
ATOM     23  C   UNL     1       0.587   9.095  20.665  0.00  0.00    +0.000 A 
ATOM     24  C   UNL     1      -0.122  10.231  20.243  0.00  0.00    +0.000 A 
BRANCH  19  26
ATOM     25  C   UNL     1      -1.901  11.650  17.953  0.00  0.00    +0.000 C 
ATOM     26  O   UNL     1      -0.572  11.826  18.427  0.00  0.00    +0.000 OA
ENDBRANCH  19  26
ENDBRANCH  17  22
ENDBRANCH  15  18
ENDBRANCH   1  15
TORSDOF 5
ENDMDL
MODEL 2
REMARK VINA RESULT:      -7.0      5.500      7.413
REMARK  Name = 
REMARK  6 active torsions:
REMARK  status: ('A' for Active; 'I' for Inactive)
REMARK    1  A    between atoms: C_1  and  O_2
REMARK    2  A    between atoms: O_2  and  C_3
REMARK    3  A    between atoms: C_6  and  C_7
REMARK    4  A    between atoms: N_8  and  N_9
REMARK    5  A    between atoms: N_9  and  C_10
REMARK    6  A    between atoms: C_10  and  N_12
REMARK                            x       y       z     vdW  Elec       q    Type
REMARK                         _______ _______ _______ _____ _____    ______ ____
ROOT
ATOM      1  C   UNL     1       6.427   6.317  16.615  0.00  0.00    +0.000 C 
ATOM      2  S   UNL     1       6.214   5.456  15.188  0.00  0.00    +0.000 S 
ENDROOT
BRANCH   1   3
ATOM      3  N   UNL     1       5.301   6.592  17.345  0.00  0.00    +0.000 N 
ATOM      4  C   UNL     1       4.688   5.719  18.197  0.00  0.00    +0.000 A 
ATOM      5  N   UNL     1       5.065   4.500  18.480  0.00  0.00    +0.000 NA
ATOM      6  C   UNL     1       4.181   3.957  19.391  0.00  0.00    +0.000 A 
ATOM      7  C   UNL     1       4.270   2.662  19.937  0.00  0.00    +0.000 A 
ATOM      8  C   UNL     1       3.298   2.222  20.838  0.00  0.00    +0.000 A 
ATOM      9  C   UNL     1       2.248   3.061  21.198  0.00  0.00    +0.000 A 
ATOM     10 CL   UNL     1       1.056   2.487  22.301  0.00  0.00    +0.000 Cl
ATOM     11  C   UNL     1       2.138   4.357  20.683  0.00  0.00    +0.000 A 
ATOM     12  C   UNL     1       3.122   4.785  19.776  0.00  0.00    +0.000 A 
ATOM     13  S   UNL     1       3.287   6.302  18.965  0.00  0.00    +0.000 S 
ATOM     14  H   UNL     1       4.906   7.516  17.242  0.00  0.00    +0.000 HD
ENDBRANCH   1   3
BRANCH   1  15
ATOM     15  N   UNL     1       7.636   6.760  17.115  0.00  0.00    +0.000 N 
ATOM     16  H   UNL     1       8.323   6.067  17.418  0.00  0.00    +0.000 HD
BRANCH  15  18
ATOM     17  C   UNL     1       8.407   8.499  18.336  0.00  0.00    +0.000 C 
ATOM     18  N   UNL     1       7.918   8.085  17.212  0.00  0.00    +0.000 NA
BRANCH  17  22
ATOM     19  C   UNL     1       9.366  12.634  18.895  0.00  0.00    +0.000 A 
ATOM     20  C   UNL     1       9.774  11.682  19.829  0.00  0.00    +0.000 A 
ATOM     21  C   UNL     1       9.470  10.333  19.643  0.00  0.00    +0.000 A 
ATOM     22  C   UNL     1       8.738   9.930  18.523  0.00  0.00    +0.000 A 
ATOM     23  C   UNL     1       8.311  10.878  17.591  0.00  0.00    +0.000 A 
ATOM     24  C   UNL     1       8.627  12.233  17.780  0.00  0.00    +0.000 A 
BRANCH  19  26
ATOM     25  C   UNL     1      10.910  14.408  18.623  0.00  0.00    +0.000 C 
ATOM     26  O   UNL     1       9.706  13.923  19.203  0.00  0.00    +0.000 OA
ENDBRANCH  19  26
ENDBRANCH  17  22
ENDBRANCH  15  18
ENDBRANCH   1  15
TORSDOF 5
ENDMDL
MODEL 3
REMARK VINA RESULT:      -7.0      0.585      1.145
REMARK  Name = 
REMARK  6 active torsions:
REMARK  status: ('A' for Active; 'I' for Inactive)
REMARK    1  A    between atoms: C_1  and  O_2
REMARK    2  A    between atoms: O_2  and  C_3
REMARK    3  A    between atoms: C_6  and  C_7
REMARK    4  A    between atoms: N_8  and  N_9
REMARK    5  A    between atoms: N_9  and  C_10
REMARK    6  A    between atoms: C_10  and  N_12
REMARK                            x       y       z     vdW  Elec       q    Type
REMARK                         _______ _______ _______ _____ _____    ______ ____
ROOT
ATOM      1  C   UNL     1       2.147   4.057  20.653  0.00  0.00    +0.000 C 
ATOM      2  S   UNL     1       1.610   2.900  21.748  0.00  0.00    +0.000 S 
ENDROOT
BRANCH   1   3
ATOM      3  N   UNL     1       2.274   3.660  19.349  0.00  0.00    +0.000 N 
ATOM      4  C   UNL     1       3.297   4.021  18.517  0.00  0.00    +0.000 A 
ATOM      5  N   UNL     1       4.323   4.774  18.813  0.00  0.00    +0.000 NA
ATOM      6  C   UNL     1       5.130   4.890  17.699  0.00  0.00    +0.000 A 
ATOM      7  C   UNL     1       6.334   5.618  17.641  0.00  0.00    +0.000 A 
ATOM      8  C   UNL     1       7.052   5.675  16.444  0.00  0.00    +0.000 A 
ATOM      9  C   UNL     1       6.581   5.011  15.315  0.00  0.00    +0.000 A 
ATOM     10 CL   UNL     1       7.480   5.108  13.849  0.00  0.00    +0.000 Cl
ATOM     11  C   UNL     1       5.395   4.268  15.344  0.00  0.00    +0.000 A 
ATOM     12  C   UNL     1       4.683   4.223  16.554  0.00  0.00    +0.000 A 
ATOM     13  S   UNL     1       3.206   3.410  16.933  0.00  0.00    +0.000 S 
ATOM     14  H   UNL     1       1.557   3.050  18.985  0.00  0.00    +0.000 HD
ENDBRANCH   1   3
BRANCH   1  15
ATOM     15  N   UNL     1       2.458   5.367  20.957  0.00  0.00    +0.000 N 
ATOM     16  H   UNL     1       3.343   5.563  21.429  0.00  0.00    +0.000 HD
BRANCH  15  18
ATOM     17  C   UNL     1       2.150   7.488  20.236  0.00  0.00    +0.000 C 
ATOM     18  N   UNL     1       1.613   6.385  20.646  0.00  0.00    +0.000 NA
BRANCH  17  22
ATOM     19  C   UNL     1      -0.325  10.830  19.219  0.00  0.00    +0.000 A 
ATOM     20  C   UNL     1      -0.395  10.260  20.490  0.00  0.00    +0.000 A 
ATOM     21  C   UNL     1       0.417   9.177  20.826  0.00  0.00    +0.000 A 
ATOM     22  C   UNL     1       1.299   8.645  19.880  0.00  0.00    +0.000 A 
ATOM     23  C   UNL     1       1.364   9.199  18.600  0.00  0.00    +0.000 A 
ATOM     24  C   UNL     1       0.550  10.294  18.272  0.00  0.00    +0.000 A 
BRANCH  19  26
ATOM     25  C   UNL     1      -0.619  13.173  19.047  0.00  0.00    +0.000 C 
ATOM     26  O   UNL     1      -1.187  11.871  19.009  0.00  0.00    +0.000 OA
ENDBRANCH  19  26
ENDBRANCH  17  22
ENDBRANCH  15  18
ENDBRANCH   1  15
TORSDOF 5
ENDMDL
MODEL 4
REMARK VINA RESULT:      -7.0      2.860      4.124
REMARK  Name = 
REMARK  6 active torsions:
REMARK  status: ('A' for Active; 'I' for Inactive)
REMARK    1  A    between atoms: C_1  and  O_2
REMARK    2  A    between atoms: O_2  and  C_3
REMARK    3  A    between atoms: C_6  and  C_7
REMARK    4  A    between atoms: N_8  and  N_9
REMARK    5  A    between atoms: N_9  and  C_10
REMARK    6  A    between atoms: C_10  and  N_12
REMARK                            x       y       z     vdW  Elec       q    Type
REMARK                         _______ _______ _______ _____ _____    ______ ____
ROOT
ATOM      1  C   UNL     1       1.275   8.607  20.667  0.00  0.00    +0.000 C 
ATOM      2  S   UNL     1       1.210   9.183  22.244  0.00  0.00    +0.000 S 
ENDROOT
BRANCH   1   3
ATOM      3  N   UNL     1       1.628   7.294  20.503  0.00  0.00    +0.000 N 
ATOM      4  C   UNL     1       2.441   6.819  19.513  0.00  0.00    +0.000 A 
ATOM      5  N   UNL     1       3.031   7.516  18.578  0.00  0.00    +0.000 NA
ATOM      6  C   UNL     1       3.769   6.664  17.782  0.00  0.00    +0.000 A 
ATOM      7  C   UNL     1       4.549   7.055  16.676  0.00  0.00    +0.000 A 
ATOM      8  C   UNL     1       5.235   6.090  15.936  0.00  0.00    +0.000 A 
ATOM      9  C   UNL     1       5.153   4.748  16.292  0.00  0.00    +0.000 A 
ATOM     10 CL   UNL     1       6.000   3.578  15.354  0.00  0.00    +0.000 Cl
ATOM     11  C   UNL     1       4.398   4.327  17.392  0.00  0.00    +0.000 A 
ATOM     12  C   UNL     1       3.711   5.309  18.126  0.00  0.00    +0.000 A 
ATOM     13  S   UNL     1       2.703   5.139  19.519  0.00  0.00    +0.000 S 
ATOM     14  H   UNL     1       1.260   6.635  21.174  0.00  0.00    +0.000 HD
ENDBRANCH   1   3
BRANCH   1  15
ATOM     15  N   UNL     1       0.995   9.340  19.531  0.00  0.00    +0.000 N 
ATOM     16  H   UNL     1       1.753   9.532  18.873  0.00  0.00    +0.000 HD
BRANCH  15  18
ATOM     17  C   UNL     1      -0.570  10.011  18.045  0.00  0.00    +0.000 C 
ATOM     18  N   UNL     1      -0.256   9.808  19.282  0.00  0.00    +0.000 NA
BRANCH  17  22
ATOM     19  C   UNL     1      -4.459  11.493  17.037  0.00  0.00    +0.000 A 
ATOM     20  C   UNL     1      -3.952  11.658  18.325  0.00  0.00    +0.000 A 
ATOM     21  C   UNL     1      -2.682  11.184  18.653  0.00  0.00    +0.000 A 
ATOM     22  C   UNL     1      -1.913  10.524  17.690  0.00  0.00    +0.000 A 
ATOM     23  C   UNL     1      -2.419  10.339  16.402  0.00  0.00    +0.000 A 
ATOM     24  C   UNL     1      -3.694  10.826  16.076  0.00  0.00    +0.000 A 
BRANCH  19  26
ATOM     25  C   UNL     1      -6.122  13.035  17.717  0.00  0.00    +0.000 C 
ATOM     26  O   UNL     1      -5.723  11.981  16.850  0.00  0.00    +0.000 OA
ENDBRANCH  19  26
ENDBRANCH  17  22
ENDBRANCH  15  18
ENDBRANCH   1  15
TORSDOF 5
ENDMDL
MODEL 5
REMARK VINA RESULT:      -6.9      6.017      7.438
REMARK  Name = 
REMARK  6 active torsions:
REMARK  status: ('A' for Active; 'I' for Inactive)
REMARK    1  A    between atoms: C_1  and  O_2
REMARK    2  A    between atoms: O_2  and  C_3
REMARK    3  A    between atoms: C_6  and  C_7
REMARK    4  A    between atoms: N_8  and  N_9
REMARK    5  A    between atoms: N_9  and  C_10
REMARK    6  A    between atoms: C_10  and  N_12
REMARK                            x       y       z     vdW  Elec       q    Type
REMARK                         _______ _______ _______ _____ _____    ______ ____
ROOT
ATOM      1  C   UNL     1       7.453   6.438  18.410  0.00  0.00    +0.000 C 
ATOM      2  S   UNL     1       8.229   5.788  19.752  0.00  0.00    +0.000 S 
ENDROOT
BRANCH   1   3
ATOM      3  N   UNL     1       6.419   5.712  17.883  0.00  0.00    +0.000 N 
ATOM      4  C   UNL     1       6.358   5.255  16.597  0.00  0.00    +0.000 A 
ATOM      5  N   UNL     1       7.262   5.406  15.666  0.00  0.00    +0.000 NA
ATOM      6  C   UNL     1       6.822   4.789  14.511  0.00  0.00    +0.000 A 
ATOM      7  C   UNL     1       7.535   4.735  13.298  0.00  0.00    +0.000 A 
ATOM      8  C   UNL     1       6.971   4.096  12.191  0.00  0.00    +0.000 A 
ATOM      9  C   UNL     1       5.712   3.511  12.289  0.00  0.00    +0.000 A 
ATOM     10 CL   UNL     1       5.035   2.741  10.905  0.00  0.00    +0.000 Cl
ATOM     11  C   UNL     1       4.984   3.537  13.484  0.00  0.00    +0.000 A 
ATOM     12  C   UNL     1       5.563   4.185  14.587  0.00  0.00    +0.000 A 
ATOM     13  S   UNL     1       4.948   4.397  16.188  0.00  0.00    +0.000 S 
ATOM     14  H   UNL     1       5.650   5.498  18.502  0.00  0.00    +0.000 HD
ENDBRANCH   1   3
BRANCH   1  15
ATOM     15  N   UNL     1       7.765   7.639  17.805  0.00  0.00    +0.000 N 
ATOM     16  H   UNL     1       7.413   7.818  16.862  0.00  0.00    +0.000 HD
BRANCH  15  18
ATOM     17  C   UNL     1       8.465   9.781  17.983  0.00  0.00    +0.000 C 
ATOM     18  N   UNL     1       8.527   8.571  18.435  0.00  0.00    +0.000 NA
BRANCH  17  22
ATOM     19  C   UNL     1      10.792  12.890  19.788  0.00  0.00    +0.000 A 
ATOM     20  C   UNL     1      10.460  12.951  18.435  0.00  0.00    +0.000 A 
ATOM     21  C   UNL     1       9.694  11.944  17.847  0.00  0.00    +0.000 A 
ATOM     22  C   UNL     1       9.267  10.855  18.612  0.00  0.00    +0.000 A 
ATOM     23  C   UNL     1       9.608  10.776  19.964  0.00  0.00    +0.000 A 
ATOM     24  C   UNL     1      10.372  11.798  20.551  0.00  0.00    +0.000 A 
BRANCH  19  26
ATOM     25  C   UNL     1      11.363  15.179  19.598  0.00  0.00    +0.000 C 
ATOM     26  O   UNL     1      11.564  13.925  20.237  0.00  0.00    +0.000 OA
ENDBRANCH  19  26
ENDBRANCH  17  22
ENDBRANCH  15  18
ENDBRANCH   1  15
TORSDOF 5
ENDMDL
MODEL 6
REMARK VINA RESULT:      -6.9      5.448      7.240
REMARK  Name = 
REMARK  6 active torsions:
REMARK  status: ('A' for Active; 'I' for Inactive)
REMARK    1  A    between atoms: C_1  and  O_2
REMARK    2  A    between atoms: O_2  and  C_3
REMARK    3  A    between atoms: C_6  and  C_7
REMARK    4  A    between atoms: N_8  and  N_9
REMARK    5  A    between atoms: N_9  and  C_10
REMARK    6  A    between atoms: C_10  and  N_12
REMARK                            x       y       z     vdW  Elec       q    Type
REMARK                         _______ _______ _______ _____ _____    ______ ____
ROOT
ATOM      1  C   UNL     1       5.983   6.606  16.531  0.00  0.00    +0.000 C 
ATOM      2  S   UNL     1       5.728   5.853  15.051  0.00  0.00    +0.000 S 
ENDROOT
BRANCH   1   3
ATOM      3  N   UNL     1       4.881   6.816  17.316  0.00  0.00    +0.000 N 
ATOM      4  C   UNL     1       4.345   5.898  18.175  0.00  0.00    +0.000 A 
ATOM      5  N   UNL     1       4.787   4.692  18.412  0.00  0.00    +0.000 NA
ATOM      6  C   UNL     1       3.970   4.091  19.349  0.00  0.00    +0.000 A 
ATOM      7  C   UNL     1       4.140   2.790  19.861  0.00  0.00    +0.000 A 
ATOM      8  C   UNL     1       3.229   2.288  20.794  0.00  0.00    +0.000 A 
ATOM      9  C   UNL     1       2.161   3.072  21.219  0.00  0.00    +0.000 A 
ATOM     10 CL   UNL     1       1.046   2.424  22.360  0.00  0.00    +0.000 Cl
ATOM     11  C   UNL     1       1.972   4.373  20.739  0.00  0.00    +0.000 A 
ATOM     12  C   UNL     1       2.895   4.863  19.800  0.00  0.00    +0.000 A 
ATOM     13  S   UNL     1       2.956   6.402  19.017  0.00  0.00    +0.000 S 
ATOM     14  H   UNL     1       4.441   7.723  17.253  0.00  0.00    +0.000 HD
ENDBRANCH   1   3
BRANCH   1  15
ATOM     15  N   UNL     1       7.205   7.021  17.022  0.00  0.00    +0.000 N 
ATOM     16  H   UNL     1       7.933   6.320  17.181  0.00  0.00    +0.000 HD
BRANCH  15  18
ATOM     17  C   UNL     1       8.427   8.584  18.107  0.00  0.00    +0.000 C 
ATOM     18  N   UNL     1       7.449   8.328  17.300  0.00  0.00    +0.000 NA
BRANCH  17  22
ATOM     19  C   UNL     1       9.375  12.635  19.118  0.00  0.00    +0.000 A 
ATOM     20  C   UNL     1       8.720  12.340  17.923  0.00  0.00    +0.000 A 
ATOM     21  C   UNL     1       8.402  11.022  17.596  0.00  0.00    +0.000 A 
ATOM     22  C   UNL     1       8.755   9.983  18.462  0.00  0.00    +0.000 A 
ATOM     23  C   UNL     1       9.426  10.267  19.653  0.00  0.00    +0.000 A 
ATOM     24  C   UNL     1       9.735  11.597  19.980  0.00  0.00    +0.000 A 
BRANCH  19  26
ATOM     25  C   UNL     1       8.736  14.677  20.131  0.00  0.00    +0.000 C 
ATOM     26  O   UNL     1       9.650  13.961  19.310  0.00  0.00    +0.000 OA
ENDBRANCH  19  26
ENDBRANCH  17  22
ENDBRANCH  15  18
ENDBRANCH   1  15
TORSDOF 5
ENDMDL
MODEL 7
REMARK VINA RESULT:      -6.7      3.712      7.399
REMARK  Name = 
REMARK  6 active torsions:
REMARK  status: ('A' for Active; 'I' for Inactive)
REMARK    1  A    between atoms: C_1  and  O_2
REMARK    2  A    between atoms: O_2  and  C_3
REMARK    3  A    between atoms: C_6  and  C_7
REMARK    4  A    between atoms: N_8  and  N_9
REMARK    5  A    between atoms: N_9  and  C_10
REMARK    6  A    between atoms: C_10  and  N_12
REMARK                            x       y       z     vdW  Elec       q    Type
REMARK                         _______ _______ _______ _____ _____    ______ ____
ROOT
ATOM      1  C   UNL     1       2.662   4.382  20.421  0.00  0.00    +0.000 C 
ATOM      2  S   UNL     1       1.778   2.954  20.345  0.00  0.00    +0.000 S 
ENDROOT
BRANCH   1   3
ATOM      3  N   UNL     1       2.047   5.458  21.002  0.00  0.00    +0.000 N 
ATOM      4  C   UNL     1       1.900   6.685  20.420  0.00  0.00    +0.000 A 
ATOM      5  N   UNL     1       2.293   7.040  19.225  0.00  0.00    +0.000 NA
ATOM      6  C   UNL     1       1.949   8.360  19.014  0.00  0.00    +0.000 A 
ATOM      7  C   UNL     1       2.201   9.087  17.834  0.00  0.00    +0.000 A 
ATOM      8  C   UNL     1       1.821  10.429  17.752  0.00  0.00    +0.000 A 
ATOM      9  C   UNL     1       1.191  11.043  18.830  0.00  0.00    +0.000 A 
ATOM     10 CL   UNL     1       0.743  12.702  18.706  0.00  0.00    +0.000 Cl
ATOM     11  C   UNL     1       0.914  10.345  20.011  0.00  0.00    +0.000 A 
ATOM     12  C   UNL     1       1.305   8.997  20.079  0.00  0.00    +0.000 A 
ATOM     13  S   UNL     1       1.118   7.861  21.367  0.00  0.00    +0.000 S 
ATOM     14  H   UNL     1       1.670   5.323  21.930  0.00  0.00    +0.000 HD
ENDBRANCH   1   3
BRANCH   1  15
ATOM     15  N   UNL     1       3.951   4.555  19.958  0.00  0.00    +0.000 N 
ATOM     16  H   UNL     1       4.690   4.764  20.633  0.00  0.00    +0.000 HD
BRANCH  15  18
ATOM     17  C   UNL     1       5.460   4.733  18.285  0.00  0.00    +0.000 C 
ATOM     18  N   UNL     1       4.246   4.458  18.636  0.00  0.00    +0.000 NA
BRANCH  17  22
ATOM     19  C   UNL     1       6.610   4.492  14.167  0.00  0.00    +0.000 A 
ATOM     20  C   UNL     1       5.367   4.015  14.583  0.00  0.00    +0.000 A 
ATOM     21  C   UNL     1       4.987   4.101  15.922  0.00  0.00    +0.000 A 
ATOM     22  C   UNL     1       5.861   4.654  16.862  0.00  0.00    +0.000 A 
ATOM     23  C   UNL     1       7.115   5.120  16.458  0.00  0.00    +0.000 A 
ATOM     24  C   UNL     1       7.487   5.038  15.107  0.00  0.00    +0.000 A 
BRANCH  19  26
ATOM     25  C   UNL     1       6.150   3.294  12.177  0.00  0.00    +0.000 C 
ATOM     26  O   UNL     1       6.871   4.329  12.834  0.00  0.00    +0.000 OA
ENDBRANCH  19  26
ENDBRANCH  17  22
ENDBRANCH  15  18
ENDBRANCH   1  15
TORSDOF 5
ENDMDL
MODEL 8
REMARK VINA RESULT:      -6.7      5.724      9.712
REMARK  Name = 
REMARK  6 active torsions:
REMARK  status: ('A' for Active; 'I' for Inactive)
REMARK    1  A    between atoms: C_1  and  O_2
REMARK    2  A    between atoms: O_2  and  C_3
REMARK    3  A    between atoms: C_6  and  C_7
REMARK    4  A    between atoms: N_8  and  N_9
REMARK    5  A    between atoms: N_9  and  C_10
REMARK    6  A    between atoms: C_10  and  N_12
REMARK                            x       y       z     vdW  Elec       q    Type
REMARK                         _______ _______ _______ _____ _____    ______ ____
ROOT
ATOM      1  C   UNL     1       1.142  11.260  18.464  0.00  0.00    +0.000 C 
ATOM      2  S   UNL     1       2.461  12.278  18.245  0.00  0.00    +0.000 S 
ENDROOT
BRANCH   1   3
ATOM      3  N   UNL     1       0.177  11.679  19.340  0.00  0.00    +0.000 N 
ATOM      4  C   UNL     1      -1.158  11.748  19.060  0.00  0.00    +0.000 A 
ATOM      5  N   UNL     1      -1.745  11.416  17.940  0.00  0.00    +0.000 NA
ATOM      6  C   UNL     1      -3.103  11.626  18.067  0.00  0.00    +0.000 A 
ATOM      7  C   UNL     1      -4.062  11.371  17.067  0.00  0.00    +0.000 A 
ATOM      8  C   UNL     1      -5.409  11.646  17.312  0.00  0.00    +0.000 A 
ATOM      9  C   UNL     1      -5.804  12.165  18.541  0.00  0.00    +0.000 A 
ATOM     10 CL   UNL     1      -7.470  12.506  18.812  0.00  0.00    +0.000 Cl
ATOM     11  C   UNL     1      -4.878  12.417  19.560  0.00  0.00    +0.000 A 
ATOM     12  C   UNL     1      -3.526  12.138  19.298  0.00  0.00    +0.000 A 
ATOM     13  S   UNL     1      -2.145  12.327  20.318  0.00  0.00    +0.000 S 
ATOM     14  H   UNL     1       0.485  11.950  20.263  0.00  0.00    +0.000 HD
ENDBRANCH   1   3
BRANCH   1  15
ATOM     15  N   UNL     1       0.948  10.048  17.830  0.00  0.00    +0.000 N 
ATOM     16  H   UNL     1       0.366  10.022  16.990  0.00  0.00    +0.000 HD
BRANCH  15  18
ATOM     17  C   UNL     1       2.537   8.448  17.671  0.00  0.00    +0.000 C 
ATOM     18  N   UNL     1       1.507   8.905  18.306  0.00  0.00    +0.000 NA
BRANCH  17  22
ATOM     19  C   UNL     1       4.466   4.851  18.964  0.00  0.00    +0.000 A 
ATOM     20  C   UNL     1       4.940   5.546  17.852  0.00  0.00    +0.000 A 
ATOM     21  C   UNL     1       4.319   6.723  17.435  0.00  0.00    +0.000 A 
ATOM     22  C   UNL     1       3.202   7.205  18.124  0.00  0.00    +0.000 A 
ATOM     23  C   UNL     1       2.710   6.507  19.229  0.00  0.00    +0.000 A 
ATOM     24  C   UNL     1       3.345   5.328  19.648  0.00  0.00    +0.000 A 
BRANCH  19  26
ATOM     25  C   UNL     1       4.381   2.645  19.821  0.00  0.00    +0.000 C 
ATOM     26  O   UNL     1       5.147   3.702  19.256  0.00  0.00    +0.000 OA
ENDBRANCH  19  26
ENDBRANCH  17  22
ENDBRANCH  15  18
ENDBRANCH   1  15
TORSDOF 5
ENDMDL
MODEL 9
REMARK VINA RESULT:      -6.6      5.708      9.307
REMARK  Name = 
REMARK  6 active torsions:
REMARK  status: ('A' for Active; 'I' for Inactive)
REMARK    1  A    between atoms: C_1  and  O_2
REMARK    2  A    between atoms: O_2  and  C_3
REMARK    3  A    between atoms: C_6  and  C_7
REMARK    4  A    between atoms: N_8  and  N_9
REMARK    5  A    between atoms: N_9  and  C_10
REMARK    6  A    between atoms: C_10  and  N_12
REMARK                            x       y       z     vdW  Elec       q    Type
REMARK                         _______ _______ _______ _____ _____    ______ ____
ROOT
ATOM      1  C   UNL     1       1.648  11.900  18.538  0.00  0.00    +0.000 C 
ATOM      2  S   UNL     1       2.725  13.187  18.456  0.00  0.00    +0.000 S 
ENDROOT
BRANCH   1   3
ATOM      3  N   UNL     1       0.544  12.067  19.331  0.00  0.00    +0.000 N 
ATOM      4  C   UNL     1      -0.749  11.934  18.911  0.00  0.00    +0.000 A 
ATOM      5  N   UNL     1      -1.158  11.612  17.713  0.00  0.00    +0.000 NA
ATOM      6  C   UNL     1      -2.538  11.577  17.704  0.00  0.00    +0.000 A 
ATOM      7  C   UNL     1      -3.336  11.256  16.589  0.00  0.00    +0.000 A 
ATOM      8  C   UNL     1      -4.728  11.276  16.704  0.00  0.00    +0.000 A 
ATOM      9  C   UNL     1      -5.324  11.604  17.918  0.00  0.00    +0.000 A 
ATOM     10 CL   UNL     1      -7.042  11.632  18.028  0.00  0.00    +0.000 Cl
ATOM     11  C   UNL     1      -4.559  11.914  19.048  0.00  0.00    +0.000 A 
ATOM     12  C   UNL     1      -3.160  11.893  18.916  0.00  0.00    +0.000 A 
ATOM     13  S   UNL     1      -1.938  12.219  20.093  0.00  0.00    +0.000 S 
ATOM     14  H   UNL     1       0.710  12.299  20.300  0.00  0.00    +0.000 HD
ENDBRANCH   1   3
BRANCH   1  15
ATOM     15  N   UNL     1       1.778  10.699  17.868  0.00  0.00    +0.000 N 
ATOM     16  H   UNL     1       1.922  10.715  16.856  0.00  0.00    +0.000 HD
BRANCH  15  18
ATOM     17  C   UNL     1       2.329   8.510  17.991  0.00  0.00    +0.000 C 
ATOM     18  N   UNL     1       1.712   9.512  18.526  0.00  0.00    +0.000 NA
BRANCH  17  22
ATOM     19  C   UNL     1       2.249   4.661  19.865  0.00  0.00    +0.000 A 
ATOM     20  C   UNL     1       2.544   4.779  18.507  0.00  0.00    +0.000 A 
ATOM     21  C   UNL     1       2.580   6.033  17.897  0.00  0.00    +0.000 A 
ATOM     22  C   UNL     1       2.303   7.182  18.644  0.00  0.00    +0.000 A 
ATOM     23  C   UNL     1       1.990   7.072  20.001  0.00  0.00    +0.000 A 
ATOM     24  C   UNL     1       1.965   5.808  20.610  0.00  0.00    +0.000 A 
BRANCH  19  26
ATOM     25  C   UNL     1       1.963   2.362  19.377  0.00  0.00    +0.000 C 
ATOM     26  O   UNL     1       2.224   3.378  20.337  0.00  0.00    +0.000 OA
ENDBRANCH  19  26
ENDBRANCH  17  22
ENDBRANCH  15  18
ENDBRANCH   1  15
TORSDOF 5
ENDMDL
