MODEL 1
REMARK VINA RESULT:      -7.2      0.000      0.000
REMARK  Name = 
REMARK  2 active torsions:
REMARK  status: ('A' for Active; 'I' for Inactive)
REMARK    1  A    between atoms: C_1  and  N_2
REMARK    2  A    between atoms: C_6  and  C_7
REMARK                            x       y       z     vdW  Elec       q    Type
REMARK                         _______ _______ _______ _____ _____    ______ ____
ROOT
ATOM      1  C   UNL     1       1.524   8.591  18.691  0.00  0.00    +0.000 C 
ATOM      2  O   UNL     1       0.893   8.902  17.679  0.00  0.00    +0.000 OA
ATOM      3  N   UNL     1       2.681   7.775  18.559  0.00  0.00    +0.000 N 
ATOM      4  C   UNL     1       3.047   7.469  17.176  0.00  0.00    +0.000 C 
ATOM      5  C   UNL     1       4.502   7.055  17.018  0.00  0.00    +0.000 C 
ATOM      6  C   UNL     1       5.008   5.996  18.017  0.00  0.00    +0.000 C 
ATOM      7  C   UNL     1       6.567   6.179  18.161  0.00  0.00    +0.000 C 
ATOM      8  C   UNL     1       7.217   4.834  17.886  0.00  0.00    +0.000 C 
ATOM      9  C   UNL     1       6.209   4.089  17.037  0.00  0.00    +0.000 C 
ATOM     10  N   UNL     1       4.927   4.637  17.433  0.00  0.00    +0.000 N 
ATOM     11  C   UNL     1       3.841   3.817  17.560  0.00  0.00    +0.000 A 
ATOM     12  N   UNL     1       4.013   2.505  17.772  0.00  0.00    +0.000 NA
ATOM     13  C   UNL     1       2.918   1.778  18.077  0.00  0.00    +0.000 A 
ATOM     14  C   UNL     1       1.650   2.301  18.151  0.00  0.00    +0.000 A 
ATOM     15  C   UNL     1       1.561   3.628  17.851  0.00  0.00    +0.000 A 
ATOM     16  N   UNL     1       2.630   4.384  17.554  0.00  0.00    +0.000 NA
ATOM     17  C   UNL     1       4.352   6.112  19.417  0.00  0.00    +0.000 C 
ATOM     18  C   UNL     1       2.920   6.664  19.469  0.00  0.00    +0.000 C 
ENDROOT
BRANCH   1  24
ATOM     19  C   UNL     1       1.056  11.576  19.310  0.00  0.00    +0.000 C 
ATOM     20  N   UNL     1       1.032  10.496  20.276  0.00  0.00    +0.000 N 
ATOM     21  C   UNL     1       0.839  10.708  21.619  0.00  0.00    +0.000 A 
ATOM     22  C   UNL     1       0.673   9.489  22.218  0.00  0.00    +0.000 A 
ATOM     23  C   UNL     1       0.866   8.514  21.213  0.00  0.00    +0.000 A 
ATOM     24  C   UNL     1       1.135   9.133  19.999  0.00  0.00    +0.000 A 
ENDBRANCH   1  24
TORSDOF 1
ENDMDL
MODEL 2
REMARK VINA RESULT:      -7.1      1.626      3.689
REMARK  Name = 
REMARK  2 active torsions:
REMARK  status: ('A' for Active; 'I' for Inactive)
REMARK    1  A    between atoms: C_1  and  N_2
REMARK    2  A    between atoms: C_6  and  C_7
REMARK                            x       y       z     vdW  Elec       q    Type
REMARK                         _______ _______ _______ _____ _____    ______ ____
ROOT
ATOM      1  C   UNL     1       1.620   8.097  20.632  0.00  0.00    +0.000 C 
ATOM      2  O   UNL     1       1.939   8.215  21.817  0.00  0.00    +0.000 OA
ATOM      3  N   UNL     1       1.795   6.840  19.991  0.00  0.00    +0.000 N 
ATOM      4  C   UNL     1       2.267   5.775  20.876  0.00  0.00    +0.000 C 
ATOM      5  C   UNL     1       1.973   4.380  20.344  0.00  0.00    +0.000 C 
ATOM      6  C   UNL     1       2.342   4.136  18.868  0.00  0.00    +0.000 C 
ATOM      7  C   UNL     1       1.416   2.981  18.326  0.00  0.00    +0.000 C 
ATOM      8  C   UNL     1       2.312   1.912  17.726  0.00  0.00    +0.000 C 
ATOM      9  C   UNL     1       3.648   2.105  18.413  0.00  0.00    +0.000 C 
ATOM     10  N   UNL     1       3.681   3.513  18.752  0.00  0.00    +0.000 N 
ATOM     11  C   UNL     1       4.842   4.223  18.623  0.00  0.00    +0.000 A 
ATOM     12  N   UNL     1       5.800   3.794  17.789  0.00  0.00    +0.000 NA
ATOM     13  C   UNL     1       6.837   4.625  17.559  0.00  0.00    +0.000 A 
ATOM     14  C   UNL     1       6.975   5.857  18.149  0.00  0.00    +0.000 A 
ATOM     15  C   UNL     1       5.991   6.179  19.035  0.00  0.00    +0.000 A 
ATOM     16  N   UNL     1       4.938   5.382  19.281  0.00  0.00    +0.000 NA
ATOM     17  C   UNL     1       2.161   5.392  17.976  0.00  0.00    +0.000 C 
ATOM     18  C   UNL     1       2.358   6.757  18.651  0.00  0.00    +0.000 C 
ENDROOT
BRANCH   1  24
ATOM     19  C   UNL     1      -0.451  10.026  21.859  0.00  0.00    +0.000 C 
ATOM     20  N   UNL     1      -0.028  10.007  20.474  0.00  0.00    +0.000 N 
ATOM     21  C   UNL     1      -0.561  10.844  19.525  0.00  0.00    +0.000 A 
ATOM     22  C   UNL     1       0.183  10.714  18.383  0.00  0.00    +0.000 A 
ATOM     23  C   UNL     1       1.132   9.697  18.632  0.00  0.00    +0.000 A 
ATOM     24  C   UNL     1       0.982   9.216  19.926  0.00  0.00    +0.000 A 
ENDBRANCH   1  24
TORSDOF 1
ENDMDL
MODEL 3
REMARK VINA RESULT:      -6.6      3.157      6.818
REMARK  Name = 
REMARK  2 active torsions:
REMARK  status: ('A' for Active; 'I' for Inactive)
REMARK    1  A    between atoms: C_1  and  N_2
REMARK    2  A    between atoms: C_6  and  C_7
REMARK                            x       y       z     vdW  Elec       q    Type
REMARK                         _______ _______ _______ _____ _____    ______ ____
ROOT
ATOM      1  C   UNL     1       6.831   4.781  15.577  0.00  0.00    +0.000 C 
ATOM      2  O   UNL     1       7.956   4.774  16.081  0.00  0.00    +0.000 OA
ATOM      3  N   UNL     1       5.765   5.407  16.280  0.00  0.00    +0.000 N 
ATOM      4  C   UNL     1       6.168   6.068  17.520  0.00  0.00    +0.000 C 
ATOM      5  C   UNL     1       5.178   7.126  17.985  0.00  0.00    +0.000 C 
ATOM      6  C   UNL     1       3.697   6.700  17.990  0.00  0.00    +0.000 C 
ATOM      7  C   UNL     1       2.823   8.002  17.833  0.00  0.00    +0.000 C 
ATOM      8  C   UNL     1       1.822   8.026  18.976  0.00  0.00    +0.000 C 
ATOM      9  C   UNL     1       2.455   7.176  20.056  0.00  0.00    +0.000 C 
ATOM     10  N   UNL     1       3.286   6.233  19.335  0.00  0.00    +0.000 N 
ATOM     11  C   UNL     1       3.361   4.931  19.745  0.00  0.00    +0.000 A 
ATOM     12  N   UNL     1       2.375   4.403  20.484  0.00  0.00    +0.000 NA
ATOM     13  C   UNL     1       2.408   3.072  20.699  0.00  0.00    +0.000 A 
ATOM     14  C   UNL     1       3.401   2.246  20.232  0.00  0.00    +0.000 A 
ATOM     15  C   UNL     1       4.398   2.880  19.551  0.00  0.00    +0.000 A 
ATOM     16  N   UNL     1       4.393   4.201  19.308  0.00  0.00    +0.000 NA
ATOM     17  C   UNL     1       3.341   5.709  16.852  0.00  0.00    +0.000 C 
ATOM     18  C   UNL     1       4.458   4.770  16.373  0.00  0.00    +0.000 C 
ENDROOT
BRANCH   1  24
ATOM     19  C   UNL     1       8.368   5.650  13.047  0.00  0.00    +0.000 C 
ATOM     20  N   UNL     1       7.258   4.719  13.087  0.00  0.00    +0.000 N 
ATOM     21  C   UNL     1       6.730   4.148  11.956  0.00  0.00    +0.000 A 
ATOM     22  C   UNL     1       5.843   3.182  12.347  0.00  0.00    +0.000 A 
ATOM     23  C   UNL     1       5.772   3.245  13.757  0.00  0.00    +0.000 A 
ATOM     24  C   UNL     1       6.623   4.234  14.230  0.00  0.00    +0.000 A 
ENDBRANCH   1  24
TORSDOF 1
ENDMDL
MODEL 4
REMARK VINA RESULT:      -6.6      1.636      3.571
REMARK  Name = 
REMARK  2 active torsions:
REMARK  status: ('A' for Active; 'I' for Inactive)
REMARK    1  A    between atoms: C_1  and  N_2
REMARK    2  A    between atoms: C_6  and  C_7
REMARK                            x       y       z     vdW  Elec       q    Type
REMARK                         _______ _______ _______ _____ _____    ______ ____
ROOT
ATOM      1  C   UNL     1       1.581   8.258  20.441  0.00  0.00    +0.000 C 
ATOM      2  O   UNL     1       2.135   8.493  21.517  0.00  0.00    +0.000 OA
ATOM      3  N   UNL     1       1.747   6.977  19.845  0.00  0.00    +0.000 N 
ATOM      4  C   UNL     1       2.511   6.030  20.657  0.00  0.00    +0.000 C 
ATOM      5  C   UNL     1       2.260   4.578  20.279  0.00  0.00    +0.000 C 
ATOM      6  C   UNL     1       2.324   4.259  18.772  0.00  0.00    +0.000 C 
ATOM      7  C   UNL     1       1.432   2.986  18.513  0.00  0.00    +0.000 C 
ATOM      8  C   UNL     1       2.286   1.963  17.785  0.00  0.00    +0.000 C 
ATOM      9  C   UNL     1       3.710   2.329  18.145  0.00  0.00    +0.000 C 
ATOM     10  N   UNL     1       3.665   3.756  18.394  0.00  0.00    +0.000 N 
ATOM     11  C   UNL     1       4.688   4.559  17.972  0.00  0.00    +0.000 A 
ATOM     12  N   UNL     1       5.483   4.159  16.969  0.00  0.00    +0.000 NA
ATOM     13  C   UNL     1       6.350   5.064  16.469  0.00  0.00    +0.000 A 
ATOM     14  C   UNL     1       6.480   6.344  16.948  0.00  0.00    +0.000 A 
ATOM     15  C   UNL     1       5.682   6.639  18.013  0.00  0.00    +0.000 A 
ATOM     16  N   UNL     1       4.800   5.768  18.529  0.00  0.00    +0.000 NA
ATOM     17  C   UNL     1       1.821   5.422  17.878  0.00  0.00    +0.000 C 
ATOM     18  C   UNL     1       2.012   6.846  18.419  0.00  0.00    +0.000 C 
ENDROOT
BRANCH   1  24
ATOM     19  C   UNL     1       2.296  10.060  18.042  0.00  0.00    +0.000 C 
ATOM     20  N   UNL     1       1.077  10.129  18.820  0.00  0.00    +0.000 N 
ATOM     21  C   UNL     1       0.103  11.070  18.589  0.00  0.00    +0.000 A 
ATOM     22  C   UNL     1      -0.987  10.743  19.349  0.00  0.00    +0.000 A 
ATOM     23  C   UNL     1      -0.617   9.625  20.128  0.00  0.00    +0.000 A 
ATOM     24  C   UNL     1       0.690   9.256  19.837  0.00  0.00    +0.000 A 
ENDBRANCH   1  24
TORSDOF 1
ENDMDL
MODEL 5
REMARK VINA RESULT:      -6.5      2.396      7.515
REMARK  Name = 
REMARK  2 active torsions:
REMARK  status: ('A' for Active; 'I' for Inactive)
REMARK    1  A    between atoms: C_1  and  N_2
REMARK    2  A    between atoms: C_6  and  C_7
REMARK                            x       y       z     vdW  Elec       q    Type
REMARK                         _______ _______ _______ _____ _____    ______ ____
ROOT
ATOM      1  C   UNL     1       2.104   7.223  19.351  0.00  0.00    +0.000 C 
ATOM      2  O   UNL     1       1.616   6.509  20.228  0.00  0.00    +0.000 OA
ATOM      3  N   UNL     1       1.833   8.619  19.368  0.00  0.00    +0.000 N 
ATOM      4  C   UNL     1       1.052   9.066  20.521  0.00  0.00    +0.000 C 
ATOM      5  C   UNL     1       1.195  10.555  20.802  0.00  0.00    +0.000 C 
ATOM      6  C   UNL     1       1.041  11.483  19.581  0.00  0.00    +0.000 C 
ATOM      7  C   UNL     1       1.841  12.807  19.882  0.00  0.00    +0.000 C 
ATOM      8  C   UNL     1       0.893  13.976  19.680  0.00  0.00    +0.000 C 
ATOM      9  C   UNL     1      -0.488  13.385  19.870  0.00  0.00    +0.000 C 
ATOM     10  N   UNL     1      -0.344  11.997  19.478  0.00  0.00    +0.000 N 
ATOM     11  C   UNL     1      -1.335  11.379  18.767  0.00  0.00    +0.000 A 
ATOM     12  N   UNL     1      -2.198  12.109  18.047  0.00  0.00    +0.000 NA
ATOM     13  C   UNL     1      -3.031  11.444  17.220  0.00  0.00    +0.000 A 
ATOM     14  C   UNL     1      -3.060  10.076  17.101  0.00  0.00    +0.000 A 
ATOM     15  C   UNL     1      -2.196   9.414  17.923  0.00  0.00    +0.000 A 
ATOM     16  N   UNL     1      -1.346  10.042  18.750  0.00  0.00    +0.000 NA
ATOM     17  C   UNL     1       1.573  10.858  18.265  0.00  0.00    +0.000 C 
ATOM     18  C   UNL     1       1.494   9.329  18.142  0.00  0.00    +0.000 C 
ENDROOT
BRANCH   1  24
ATOM     19  C   UNL     1       1.798   4.453  18.029  0.00  0.00    +0.000 C 
ATOM     20  N   UNL     1       2.920   5.354  17.859  0.00  0.00    +0.000 N 
ATOM     21  C   UNL     1       4.020   5.032  17.103  0.00  0.00    +0.000 A 
ATOM     22  C   UNL     1       4.792   6.156  16.983  0.00  0.00    +0.000 A 
ATOM     23  C   UNL     1       4.179   7.154  17.772  0.00  0.00    +0.000 A 
ATOM     24  C   UNL     1       3.026   6.651  18.361  0.00  0.00    +0.000 A 
ENDBRANCH   1  24
TORSDOF 1
ENDMDL
MODEL 6
REMARK VINA RESULT:      -6.3      6.453     10.146
REMARK  Name = 
REMARK  2 active torsions:
REMARK  status: ('A' for Active; 'I' for Inactive)
REMARK    1  A    between atoms: C_1  and  N_2
REMARK    2  A    between atoms: C_6  and  C_7
REMARK                            x       y       z     vdW  Elec       q    Type
REMARK                         _______ _______ _______ _____ _____    ______ ____
ROOT
ATOM      1  C   UNL     1      -1.967  12.700  19.597  0.00  0.00    +0.000 C 
ATOM      2  O   UNL     1      -2.805  13.059  20.427  0.00  0.00    +0.000 OA
ATOM      3  N   UNL     1      -0.672  13.285  19.627  0.00  0.00    +0.000 N 
ATOM      4  C   UNL     1      -0.455  14.211  20.738  0.00  0.00    +0.000 C 
ATOM      5  C   UNL     1       1.015  14.430  21.060  0.00  0.00    +0.000 C 
ATOM      6  C   UNL     1       1.927  14.723  19.853  0.00  0.00    +0.000 C 
ATOM      7  C   UNL     1       3.387  14.267  20.232  0.00  0.00    +0.000 C 
ATOM      8  C   UNL     1       4.316  15.446  19.996  0.00  0.00    +0.000 C 
ATOM      9  C   UNL     1       3.419  16.662  20.086  0.00  0.00    +0.000 C 
ATOM     10  N   UNL     1       2.115  16.182  19.673  0.00  0.00    +0.000 N 
ATOM     11  C   UNL     1       1.313  16.962  18.889  0.00  0.00    +0.000 A 
ATOM     12  N   UNL     1       1.852  17.929  18.132  0.00  0.00    +0.000 NA
ATOM     13  C   UNL     1       1.045  18.539  17.240  0.00  0.00    +0.000 A 
ATOM     14  C   UNL     1      -0.288  18.246  17.090  0.00  0.00    +0.000 A 
ATOM     15  C   UNL     1      -0.765  17.301  17.950  0.00  0.00    +0.000 A 
ATOM     16  N   UNL     1       0.011  16.665  18.842  0.00  0.00    +0.000 NA
ATOM     17  C   UNL     1       1.486  13.990  18.559  0.00  0.00    +0.000 C 
ATOM     18  C   UNL     1      -0.015  13.708  18.398  0.00  0.00    +0.000 C 
ENDROOT
BRANCH   1  24
ATOM     19  C   UNL     1      -0.416  10.044  19.363  0.00  0.00    +0.000 C 
ATOM     20  N   UNL     1      -1.497  10.473  18.500  0.00  0.00    +0.000 N 
ATOM     21  C   UNL     1      -1.922   9.734  17.423  0.00  0.00    +0.000 A 
ATOM     22  C   UNL     1      -3.070  10.307  16.946  0.00  0.00    +0.000 A 
ATOM     23  C   UNL     1      -3.282  11.480  17.705  0.00  0.00    +0.000 A 
ATOM     24  C   UNL     1      -2.279  11.617  18.655  0.00  0.00    +0.000 A 
ENDBRANCH   1  24
TORSDOF 1
ENDMDL
MODEL 7
REMARK VINA RESULT:      -6.2      6.771      9.306
REMARK  Name = 
REMARK  2 active torsions:
REMARK  status: ('A' for Active; 'I' for Inactive)
REMARK    1  A    between atoms: C_1  and  N_2
REMARK    2  A    between atoms: C_6  and  C_7
REMARK                            x       y       z     vdW  Elec       q    Type
REMARK                         _______ _______ _______ _____ _____    ______ ____
ROOT
ATOM      1  C   UNL     1      -1.286  10.918  18.439  0.00  0.00    +0.000 C 
ATOM      2  O   UNL     1      -1.072   9.820  18.955  0.00  0.00    +0.000 OA
ATOM      3  N   UNL     1      -0.369  11.980  18.670  0.00  0.00    +0.000 N 
ATOM      4  C   UNL     1       0.809  11.598  19.448  0.00  0.00    +0.000 C 
ATOM      5  C   UNL     1       1.983  12.549  19.264  0.00  0.00    +0.000 C 
ATOM      6  C   UNL     1       1.653  14.049  19.380  0.00  0.00    +0.000 C 
ATOM      7  C   UNL     1       2.728  14.843  18.545  0.00  0.00    +0.000 C 
ATOM      8  C   UNL     1       3.340  15.892  19.457  0.00  0.00    +0.000 C 
ATOM      9  C   UNL     1       3.119  15.357  20.856  0.00  0.00    +0.000 C 
ATOM     10  N   UNL     1       1.922  14.547  20.749  0.00  0.00    +0.000 N 
ATOM     11  C   UNL     1       0.992  14.562  21.750  0.00  0.00    +0.000 A 
ATOM     12  N   UNL     1       0.924  15.608  22.586  0.00  0.00    +0.000 NA
ATOM     13  C   UNL     1      -0.127  15.658  23.430  0.00  0.00    +0.000 A 
ATOM     14  C   UNL     1      -1.100  14.692  23.497  0.00  0.00    +0.000 A 
ATOM     15  C   UNL     1      -0.911  13.632  22.661  0.00  0.00    +0.000 A 
ATOM     16  N   UNL     1       0.116  13.553  21.800  0.00  0.00    +0.000 NA
ATOM     17  C   UNL     1       0.238  14.407  18.855  0.00  0.00    +0.000 C 
ATOM     18  C   UNL     1      -0.842  13.322  18.976  0.00  0.00    +0.000 C 
ENDROOT
BRANCH   1  24
ATOM     19  C   UNL     1      -4.052  12.028  19.234  0.00  0.00    +0.000 C 
ATOM     20  N   UNL     1      -3.693  11.500  17.934  0.00  0.00    +0.000 N 
ATOM     21  C   UNL     1      -4.594  11.394  16.903  0.00  0.00    +0.000 A 
ATOM     22  C   UNL     1      -3.902  11.053  15.773  0.00  0.00    +0.000 A 
ATOM     23  C   UNL     1      -2.559  10.859  16.163  0.00  0.00    +0.000 A 
ATOM     24  C   UNL     1      -2.422  11.095  17.525  0.00  0.00    +0.000 A 
ENDBRANCH   1  24
TORSDOF 1
ENDMDL
MODEL 8
REMARK VINA RESULT:      -6.2      6.231      8.476
REMARK  Name = 
REMARK  2 active torsions:
REMARK  status: ('A' for Active; 'I' for Inactive)
REMARK    1  A    between atoms: C_1  and  N_2
REMARK    2  A    between atoms: C_6  and  C_7
REMARK                            x       y       z     vdW  Elec       q    Type
REMARK                         _______ _______ _______ _____ _____    ______ ____
ROOT
ATOM      1  C   UNL     1      -4.338  11.390  18.129  0.00  0.00    +0.000 C 
ATOM      2  O   UNL     1      -4.253  10.632  17.160  0.00  0.00    +0.000 OA
ATOM      3  N   UNL     1      -3.161  12.021  18.616  0.00  0.00    +0.000 N 
ATOM      4  C   UNL     1      -1.962  11.754  17.822  0.00  0.00    +0.000 C 
ATOM      5  C   UNL     1      -0.865  12.788  18.024  0.00  0.00    +0.000 C 
ATOM      6  C   UNL     1      -0.543  13.142  19.489  0.00  0.00    +0.000 C 
ATOM      7  C   UNL     1       0.058  14.600  19.509  0.00  0.00    +0.000 C 
ATOM      8  C   UNL     1       1.388  14.541  20.239  0.00  0.00    +0.000 C 
ATOM      9  C   UNL     1       1.837  13.102  20.100  0.00  0.00    +0.000 C 
ATOM     10  N   UNL     1       0.605  12.348  19.986  0.00  0.00    +0.000 N 
ATOM     11  C   UNL     1       0.480  11.138  20.610  0.00  0.00    +0.000 A 
ATOM     12  N   UNL     1       1.256  10.845  21.663  0.00  0.00    +0.000 NA
ATOM     13  C   UNL     1       0.963   9.724  22.354  0.00  0.00    +0.000 A 
ATOM     14  C   UNL     1      -0.055   8.864  22.020  0.00  0.00    +0.000 A 
ATOM     15  C   UNL     1      -0.745   9.206  20.895  0.00  0.00    +0.000 A 
ATOM     16  N   UNL     1      -0.489  10.319  20.189  0.00  0.00    +0.000 NA
ATOM     17  C   UNL     1      -1.783  13.092  20.419  0.00  0.00    +0.000 C 
ATOM     18  C   UNL     1      -2.890  12.096  20.045  0.00  0.00    +0.000 C 
ENDROOT
BRANCH   1  24
ATOM     19  C   UNL     1      -6.386  13.358  16.926  0.00  0.00    +0.000 C 
ATOM     20  N   UNL     1      -6.512  12.676  18.198  0.00  0.00    +0.000 N 
ATOM     21  C   UNL     1      -7.572  12.882  19.046  0.00  0.00    +0.000 A 
ATOM     22  C   UNL     1      -7.495  11.954  20.050  0.00  0.00    +0.000 A 
ATOM     23  C   UNL     1      -6.298  11.232  19.842  0.00  0.00    +0.000 A 
ATOM     24  C   UNL     1      -5.651  11.704  18.707  0.00  0.00    +0.000 A 
ENDBRANCH   1  24
TORSDOF 1
ENDMDL
MODEL 9
REMARK VINA RESULT:      -6.1      6.719     11.534
REMARK  Name = 
REMARK  2 active torsions:
REMARK  status: ('A' for Active; 'I' for Inactive)
REMARK    1  A    between atoms: C_1  and  N_2
REMARK    2  A    between atoms: C_6  and  C_7
REMARK                            x       y       z     vdW  Elec       q    Type
REMARK                         _______ _______ _______ _____ _____    ______ ____
ROOT
ATOM      1  C   UNL     1      -1.115  11.765  21.882  0.00  0.00    +0.000 C 
ATOM      2  O   UNL     1      -1.115  10.639  22.382  0.00  0.00    +0.000 OA
ATOM      3  N   UNL     1      -2.101  12.703  22.295  0.00  0.00    +0.000 N 
ATOM      4  C   UNL     1      -2.971  12.228  23.371  0.00  0.00    +0.000 C 
ATOM      5  C   UNL     1      -3.651  13.355  24.133  0.00  0.00    +0.000 C 
ATOM      6  C   UNL     1      -4.315  14.442  23.267  0.00  0.00    +0.000 C 
ATOM      7  C   UNL     1      -4.355  15.772  24.114  0.00  0.00    +0.000 C 
ATOM      8  C   UNL     1      -5.791  16.266  24.129  0.00  0.00    +0.000 C 
ATOM      9  C   UNL     1      -6.624  15.029  23.870  0.00  0.00    +0.000 C 
ATOM     10  N   UNL     1      -5.760  14.168  23.087  0.00  0.00    +0.000 N 
ATOM     11  C   UNL     1      -6.273  13.440  22.051  0.00  0.00    +0.000 A 
ATOM     12  N   UNL     1      -7.412  13.826  21.460  0.00  0.00    +0.000 NA
ATOM     13  C   UNL     1      -7.771  13.185  20.328  0.00  0.00    +0.000 A 
ATOM     14  C   UNL     1      -7.055  12.151  19.776  0.00  0.00    +0.000 A 
ATOM     15  C   UNL     1      -5.950  11.780  20.483  0.00  0.00    +0.000 A 
ATOM     16  N   UNL     1      -5.557  12.402  21.606  0.00  0.00    +0.000 NA
ATOM     17  C   UNL     1      -3.563  14.710  21.938  0.00  0.00    +0.000 C 
ATOM     18  C   UNL     1      -2.801  13.529  21.321  0.00  0.00    +0.000 C 
ENDROOT
BRANCH   1  24
ATOM     19  C   UNL     1      -0.867  10.778  18.970  0.00  0.00    +0.000 C 
ATOM     20  N   UNL     1       0.090  11.612  19.666  0.00  0.00    +0.000 N 
ATOM     21  C   UNL     1       1.269  12.022  19.094  0.00  0.00    +0.000 A 
ATOM     22  C   UNL     1       1.843  12.946  19.926  0.00  0.00    +0.000 A 
ATOM     23  C   UNL     1       1.024  13.019  21.075  0.00  0.00    +0.000 A 
ATOM     24  C   UNL     1      -0.056  12.155  20.943  0.00  0.00    +0.000 A 
ENDBRANCH   1  24
TORSDOF 1
ENDMDL
