MODEL 1
REMARK VINA RESULT:      -7.4      0.000      0.000
REMARK  Name = 
REMARK  8 active torsions:
REMARK  status: ('A' for Active; 'I' for Inactive)
REMARK    1  A    between atoms: N_1  and  C_2
REMARK    2  A    between atoms: C_5  and  C_6
REMARK    3  A    between atoms: C_6  and  O_7
REMARK    4  A    between atoms: O_7  and  C_8
REMARK    5  A    between atoms: C_8  and  C_10
REMARK    6  A    between atoms: C_10  and  O_11
REMARK    7  A    between atoms: C_10  and  C_12
REMARK    8  A    between atoms: C_10  and  C_18
REMARK                            x       y       z     vdW  Elec       q    Type
REMARK                         _______ _______ _______ _____ _____    ______ ____
ROOT
ATOM      1  C   UNL     1       4.201   5.049  16.833  0.00  0.00    +0.000 C 
ATOM      2  O   UNL     1       3.470   5.835  17.422  0.00  0.00    +0.000 OA
ENDROOT
BRANCH   1   3
ATOM      3  O   UNL     1       3.884   3.730  16.760  0.00  0.00    +0.000 OA
BRANCH   3   4
ATOM      4  C   UNL     1       4.165   2.782  17.727  0.00  0.00    +0.000 C 
BRANCH   4   8
ATOM      5  C   UNL     1       1.075   3.409  20.757  0.00  0.00    +0.000 C 
ATOM      6  C   UNL     1       0.663   2.802  19.401  0.00  0.00    +0.000 C 
ATOM      7  C   UNL     1       1.806   2.733  18.419  0.00  0.00    +0.000 C 
ATOM      8  C   UNL     1       3.102   2.833  18.787  0.00  0.00    +0.000 C 
ATOM      9  C   UNL     1       3.516   2.997  20.239  0.00  0.00    +0.000 C 
ATOM     10  C   UNL     1       2.365   2.732  21.225  0.00  0.00    +0.000 C 
BRANCH   5  11
ATOM     11  N   UNL     1       1.270   4.856  20.636  0.00  0.00    +0.000 NA
ATOM     12  H   UNL     1       0.921   5.316  21.510  0.00  0.00    +0.000 HD
ATOM     13  H   UNL     1       2.294   5.058  20.577  0.00  0.00    +0.000 HD
ENDBRANCH   5  11
ENDBRANCH   4   8
ENDBRANCH   3   4
ENDBRANCH   1   3
BRANCH   1  14
ATOM     14  C   UNL     1       5.467   5.557  16.155  0.00  0.00    +0.000 C 
BRANCH  14  15
ATOM     15  C   UNL     1       6.491   6.112  17.159  0.00  0.00    +0.000 A 
ATOM     16  C   UNL     1       7.059   7.407  17.044  0.00  0.00    +0.000 A 
ATOM     17  C   UNL     1       7.992   7.867  17.975  0.00  0.00    +0.000 A 
ATOM     18  C   UNL     1       8.387   7.049  19.032  0.00  0.00    +0.000 A 
ATOM     19  C   UNL     1       7.849   5.769  19.161  0.00  0.00    +0.000 A 
ATOM     20  C   UNL     1       6.909   5.302  18.233  0.00  0.00    +0.000 A 
ENDBRANCH  14  15
BRANCH  14  21
ATOM     21  C   UNL     1       6.117   4.355  15.399  0.00  0.00    +0.000 C 
ATOM     22  C   UNL     1       5.602   4.243  13.961  0.00  0.00    +0.000 C 
ATOM     23  C   UNL     1       7.062   4.583  14.218  0.00  0.00    +0.000 C 
ENDBRANCH  14  21
BRANCH  14  24
ATOM     24  O   UNL     1       5.130   6.584  15.243  0.00  0.00    +0.000 OA
ATOM     25  H   UNL     1       5.675   6.459  14.423  0.00  0.00    +0.000 HD
ENDBRANCH  14  24
ENDBRANCH   1  14
TORSDOF 8
ENDMDL
MODEL 2
REMARK VINA RESULT:      -7.4      2.801      5.750
REMARK  Name = 
REMARK  8 active torsions:
REMARK  status: ('A' for Active; 'I' for Inactive)
REMARK    1  A    between atoms: N_1  and  C_2
REMARK    2  A    between atoms: C_5  and  C_6
REMARK    3  A    between atoms: C_6  and  O_7
REMARK    4  A    between atoms: O_7  and  C_8
REMARK    5  A    between atoms: C_8  and  C_10
REMARK    6  A    between atoms: C_10  and  O_11
REMARK    7  A    between atoms: C_10  and  C_12
REMARK    8  A    between atoms: C_10  and  C_18
REMARK                            x       y       z     vdW  Elec       q    Type
REMARK                         _______ _______ _______ _____ _____    ______ ____
ROOT
ATOM      1  C   UNL     1       2.342   4.163  17.941  0.00  0.00    +0.000 C 
ATOM      2  O   UNL     1       1.244   4.118  17.401  0.00  0.00    +0.000 OA
ENDROOT
BRANCH   1   3
ATOM      3  O   UNL     1       3.449   3.705  17.301  0.00  0.00    +0.000 OA
BRANCH   3   4
ATOM      4  C   UNL     1       4.153   4.388  16.327  0.00  0.00    +0.000 C 
BRANCH   4   8
ATOM      5  C   UNL     1       7.681   5.797  18.493  0.00  0.00    +0.000 C 
ATOM      6  C   UNL     1       7.806   4.523  17.634  0.00  0.00    +0.000 C 
ATOM      7  C   UNL     1       6.494   4.097  17.024  0.00  0.00    +0.000 C 
ATOM      8  C   UNL     1       5.426   4.918  16.924  0.00  0.00    +0.000 C 
ATOM      9  C   UNL     1       5.472   6.360  17.398  0.00  0.00    +0.000 C 
ATOM     10  C   UNL     1       6.900   6.847  17.701  0.00  0.00    +0.000 C 
BRANCH   5  11
ATOM     11  N   UNL     1       7.005   5.501  19.758  0.00  0.00    +0.000 NA
ATOM     12  H   UNL     1       7.546   4.761  20.264  0.00  0.00    +0.000 HD
ATOM     13  H   UNL     1       7.022   6.355  20.362  0.00  0.00    +0.000 HD
ENDBRANCH   5  11
ENDBRANCH   4   8
ENDBRANCH   3   4
ENDBRANCH   1   3
BRANCH   1  14
ATOM     14  C   UNL     1       2.473   4.760  19.338  0.00  0.00    +0.000 C 
BRANCH  14  15
ATOM     15  C   UNL     1       2.154   6.264  19.368  0.00  0.00    +0.000 A 
ATOM     16  C   UNL     1       2.350   7.115  18.250  0.00  0.00    +0.000 A 
ATOM     17  C   UNL     1       2.056   8.478  18.324  0.00  0.00    +0.000 A 
ATOM     18  C   UNL     1       1.569   9.024  19.509  0.00  0.00    +0.000 A 
ATOM     19  C   UNL     1       1.375   8.208  20.625  0.00  0.00    +0.000 A 
ATOM     20  C   UNL     1       1.666   6.840  20.557  0.00  0.00    +0.000 A 
ENDBRANCH  14  15
BRANCH  14  21
ATOM     21  C   UNL     1       1.459   4.021  20.268  0.00  0.00    +0.000 C 
ATOM     22  C   UNL     1       1.723   2.513  20.310  0.00  0.00    +0.000 C 
ATOM     23  C   UNL     1       1.920   3.352  21.562  0.00  0.00    +0.000 C 
ENDBRANCH  14  21
BRANCH  14  24
ATOM     24  O   UNL     1       3.793   4.571  19.805  0.00  0.00    +0.000 OA
ATOM     25  H   UNL     1       3.858   4.966  20.713  0.00  0.00    +0.000 HD
ENDBRANCH  14  24
ENDBRANCH   1  14
TORSDOF 8
ENDMDL
MODEL 3
REMARK VINA RESULT:      -7.3      1.575      3.986
REMARK  Name = 
REMARK  8 active torsions:
REMARK  status: ('A' for Active; 'I' for Inactive)
REMARK    1  A    between atoms: N_1  and  C_2
REMARK    2  A    between atoms: C_5  and  C_6
REMARK    3  A    between atoms: C_6  and  O_7
REMARK    4  A    between atoms: O_7  and  C_8
REMARK    5  A    between atoms: C_8  and  C_10
REMARK    6  A    between atoms: C_10  and  O_11
REMARK    7  A    between atoms: C_10  and  C_12
REMARK    8  A    between atoms: C_10  and  C_18
REMARK                            x       y       z     vdW  Elec       q    Type
REMARK                         _______ _______ _______ _____ _____    ______ ____
ROOT
ATOM      1  C   UNL     1       5.168   5.988  16.484  0.00  0.00    +0.000 C 
ATOM      2  O   UNL     1       5.020   6.831  15.608  0.00  0.00    +0.000 OA
ENDROOT
BRANCH   1   3
ATOM      3  O   UNL     1       4.493   6.084  17.659  0.00  0.00    +0.000 OA
BRANCH   3   4
ATOM      4  C   UNL     1       3.117   6.091  17.796  0.00  0.00    +0.000 C 
BRANCH   4   8
ATOM      5  C   UNL     1       2.151   2.098  19.295  0.00  0.00    +0.000 C 
ATOM      6  C   UNL     1       2.983   3.038  20.190  0.00  0.00    +0.000 C 
ATOM      7  C   UNL     1       3.325   4.341  19.511  0.00  0.00    +0.000 C 
ATOM      8  C   UNL     1       2.679   4.794  18.415  0.00  0.00    +0.000 C 
ATOM      9  C   UNL     1       1.526   4.031  17.787  0.00  0.00    +0.000 C 
ATOM     10  C   UNL     1       0.998   2.897  18.684  0.00  0.00    +0.000 C 
BRANCH   5  11
ATOM     11  N   UNL     1       2.986   1.516  18.241  0.00  0.00    +0.000 NA
ATOM     12  H   UNL     1       3.565   0.749  18.656  0.00  0.00    +0.000 HD
ATOM     13  H   UNL     1       2.369   1.075  17.522  0.00  0.00    +0.000 HD
ENDBRANCH   5  11
ENDBRANCH   4   8
ENDBRANCH   3   4
ENDBRANCH   1   3
BRANCH   1  14
ATOM     14  C   UNL     1       6.100   4.806  16.246  0.00  0.00    +0.000 C 
BRANCH  14  15
ATOM     15  C   UNL     1       6.372   4.562  14.752  0.00  0.00    +0.000 A 
ATOM     16  C   UNL     1       5.566   3.712  13.952  0.00  0.00    +0.000 A 
ATOM     17  C   UNL     1       5.855   3.512  12.601  0.00  0.00    +0.000 A 
ATOM     18  C   UNL     1       6.952   4.143  12.020  0.00  0.00    +0.000 A 
ATOM     19  C   UNL     1       7.764   4.978  12.789  0.00  0.00    +0.000 A 
ATOM     20  C   UNL     1       7.479   5.186  14.144  0.00  0.00    +0.000 A 
ENDBRANCH  14  15
BRANCH  14  21
ATOM     21  C   UNL     1       7.458   5.122  16.951  0.00  0.00    +0.000 C 
ATOM     22  C   UNL     1       7.444   6.502  17.616  0.00  0.00    +0.000 C 
ATOM     23  C   UNL     1       7.546   5.249  18.471  0.00  0.00    +0.000 C 
ENDBRANCH  14  21
BRANCH  14  24
ATOM     24  O   UNL     1       5.524   3.638  16.795  0.00  0.00    +0.000 OA
ATOM     25  H   UNL     1       6.257   3.070  17.148  0.00  0.00    +0.000 HD
ENDBRANCH  14  24
ENDBRANCH   1  14
TORSDOF 8
ENDMDL
MODEL 4
REMARK VINA RESULT:      -7.2      1.979      3.865
REMARK  Name = 
REMARK  8 active torsions:
REMARK  status: ('A' for Active; 'I' for Inactive)
REMARK    1  A    between atoms: N_1  and  C_2
REMARK    2  A    between atoms: C_5  and  C_6
REMARK    3  A    between atoms: C_6  and  O_7
REMARK    4  A    between atoms: O_7  and  C_8
REMARK    5  A    between atoms: C_8  and  C_10
REMARK    6  A    between atoms: C_10  and  O_11
REMARK    7  A    between atoms: C_10  and  C_12
REMARK    8  A    between atoms: C_10  and  C_18
REMARK                            x       y       z     vdW  Elec       q    Type
REMARK                         _______ _______ _______ _____ _____    ______ ____
ROOT
ATOM      1  C   UNL     1       6.980   4.409  17.139  0.00  0.00    +0.000 C 
ATOM      2  O   UNL     1       8.159   4.166  17.366  0.00  0.00    +0.000 OA
ENDROOT
BRANCH   1   3
ATOM      3  O   UNL     1       5.996   3.766  17.821  0.00  0.00    +0.000 OA
BRANCH   3   4
ATOM      4  C   UNL     1       5.530   4.113  19.075  0.00  0.00    +0.000 C 
BRANCH   4   8
ATOM      5  C   UNL     1       1.229   3.353  18.858  0.00  0.00    +0.000 C 
ATOM      6  C   UNL     1       2.190   2.147  18.858  0.00  0.00    +0.000 C 
ATOM      7  C   UNL     1       3.641   2.556  18.837  0.00  0.00    +0.000 C 
ATOM      8  C   UNL     1       4.064   3.798  19.158  0.00  0.00    +0.000 C 
ATOM      9  C   UNL     1       3.100   4.887  19.596  0.00  0.00    +0.000 C 
ATOM     10  C   UNL     1       1.695   4.351  19.921  0.00  0.00    +0.000 C 
BRANCH   5  11
ATOM     11  N   UNL     1       1.198   3.988  17.538  0.00  0.00    +0.000 NA
ATOM     12  H   UNL     1       1.546   3.302  16.828  0.00  0.00    +0.000 HD
ATOM     13  H   UNL     1       0.207   4.207  17.289  0.00  0.00    +0.000 HD
ENDBRANCH   5  11
ENDBRANCH   4   8
ENDBRANCH   3   4
ENDBRANCH   1   3
BRANCH   1  14
ATOM     14  C   UNL     1       6.611   5.459  16.098  0.00  0.00    +0.000 C 
BRANCH  14  15
ATOM     15  C   UNL     1       6.710   4.923  14.660  0.00  0.00    +0.000 A 
ATOM     16  C   UNL     1       5.873   3.890  14.165  0.00  0.00    +0.000 A 
ATOM     17  C   UNL     1       6.004   3.427  12.854  0.00  0.00    +0.000 A 
ATOM     18  C   UNL     1       6.969   3.974  12.013  0.00  0.00    +0.000 A 
ATOM     19  C   UNL     1       7.809   4.986  12.480  0.00  0.00    +0.000 A 
ATOM     20  C   UNL     1       7.682   5.457  13.793  0.00  0.00    +0.000 A 
ENDBRANCH  14  15
BRANCH  14  21
ATOM     21  C   UNL     1       5.135   5.895  16.364  0.00  0.00    +0.000 C 
ATOM     22  C   UNL     1       5.062   7.146  17.243  0.00  0.00    +0.000 C 
ATOM     23  C   UNL     1       4.586   7.205  15.801  0.00  0.00    +0.000 C 
ENDBRANCH  14  21
BRANCH  14  24
ATOM     24  O   UNL     1       7.479   6.568  16.226  0.00  0.00    +0.000 OA
ATOM     25  H   UNL     1       6.972   7.385  15.980  0.00  0.00    +0.000 HD
ENDBRANCH  14  24
ENDBRANCH   1  14
TORSDOF 8
ENDMDL
MODEL 5
REMARK VINA RESULT:      -7.2      1.881      3.782
REMARK  Name = 
REMARK  8 active torsions:
REMARK  status: ('A' for Active; 'I' for Inactive)
REMARK    1  A    between atoms: N_1  and  C_2
REMARK    2  A    between atoms: C_5  and  C_6
REMARK    3  A    between atoms: C_6  and  O_7
REMARK    4  A    between atoms: O_7  and  C_8
REMARK    5  A    between atoms: C_8  and  C_10
REMARK    6  A    between atoms: C_10  and  O_11
REMARK    7  A    between atoms: C_10  and  C_12
REMARK    8  A    between atoms: C_10  and  C_18
REMARK                            x       y       z     vdW  Elec       q    Type
REMARK                         _______ _______ _______ _____ _____    ______ ____
ROOT
ATOM      1  C   UNL     1       5.534   4.615  19.020  0.00  0.00    +0.000 C 
ATOM      2  O   UNL     1       5.398   3.413  19.211  0.00  0.00    +0.000 OA
ENDROOT
BRANCH   1   3
ATOM      3  O   UNL     1       4.741   5.513  19.661  0.00  0.00    +0.000 OA
BRANCH   3   4
ATOM      4  C   UNL     1       3.523   5.978  19.204  0.00  0.00    +0.000 C 
BRANCH   4   8
ATOM      5  C   UNL     1       0.971   2.429  19.327  0.00  0.00    +0.000 C 
ATOM      6  C   UNL     1       1.200   3.216  20.633  0.00  0.00    +0.000 C 
ATOM      7  C   UNL     1       2.176   4.354  20.467  0.00  0.00    +0.000 C 
ATOM      8  C   UNL     1       2.518   4.863  19.263  0.00  0.00    +0.000 C 
ATOM      9  C   UNL     1       1.920   4.341  17.969  0.00  0.00    +0.000 C 
ATOM     10  C   UNL     1       0.704   3.425  18.196  0.00  0.00    +0.000 C 
BRANCH   5  11
ATOM     11  N   UNL     1       2.136   1.598  19.014  0.00  0.00    +0.000 NA
ATOM     12  H   UNL     1       2.853   1.729  19.766  0.00  0.00    +0.000 HD
ATOM     13  H   UNL     1       1.853   0.592  19.036  0.00  0.00    +0.000 HD
ENDBRANCH   5  11
ENDBRANCH   4   8
ENDBRANCH   3   4
ENDBRANCH   1   3
BRANCH   1  14
ATOM     14  C   UNL     1       6.619   5.112  18.071  0.00  0.00    +0.000 C 
BRANCH  14  15
ATOM     15  C   UNL     1       6.296   4.808  16.598  0.00  0.00    +0.000 A 
ATOM     16  C   UNL     1       4.972   4.631  16.121  0.00  0.00    +0.000 A 
ATOM     17  C   UNL     1       4.726   4.348  14.776  0.00  0.00    +0.000 A 
ATOM     18  C   UNL     1       5.787   4.226  13.882  0.00  0.00    +0.000 A 
ATOM     19  C   UNL     1       7.098   4.388  14.330  0.00  0.00    +0.000 A 
ATOM     20  C   UNL     1       7.353   4.676  15.676  0.00  0.00    +0.000 A 
ENDBRANCH  14  15
BRANCH  14  21
ATOM     21  C   UNL     1       6.729   6.660  18.244  0.00  0.00    +0.000 C 
ATOM     22  C   UNL     1       8.153   7.090  18.608  0.00  0.00    +0.000 C 
ATOM     23  C   UNL     1       7.555   7.505  17.274  0.00  0.00    +0.000 C 
ENDBRANCH  14  21
BRANCH  14  24
ATOM     24  O   UNL     1       7.847   4.494  18.400  0.00  0.00    +0.000 OA
ATOM     25  H   UNL     1       8.580   5.106  18.134  0.00  0.00    +0.000 HD
ENDBRANCH  14  24
ENDBRANCH   1  14
TORSDOF 8
ENDMDL
MODEL 6
REMARK VINA RESULT:      -7.2      1.580      3.911
REMARK  Name = 
REMARK  8 active torsions:
REMARK  status: ('A' for Active; 'I' for Inactive)
REMARK    1  A    between atoms: N_1  and  C_2
REMARK    2  A    between atoms: C_5  and  C_6
REMARK    3  A    between atoms: C_6  and  O_7
REMARK    4  A    between atoms: O_7  and  C_8
REMARK    5  A    between atoms: C_8  and  C_10
REMARK    6  A    between atoms: C_10  and  O_11
REMARK    7  A    between atoms: C_10  and  C_12
REMARK    8  A    between atoms: C_10  and  C_18
REMARK                            x       y       z     vdW  Elec       q    Type
REMARK                         _______ _______ _______ _____ _____    ______ ____
ROOT
ATOM      1  C   UNL     1       5.206   6.013  16.503  0.00  0.00    +0.000 C 
ATOM      2  O   UNL     1       5.060   6.850  15.621  0.00  0.00    +0.000 OA
ENDROOT
BRANCH   1   3
ATOM      3  O   UNL     1       4.519   6.110  17.671  0.00  0.00    +0.000 OA
BRANCH   3   4
ATOM      4  C   UNL     1       3.142   6.110  17.795  0.00  0.00    +0.000 C 
BRANCH   4   8
ATOM      5  C   UNL     1       2.165   2.102  19.246  0.00  0.00    +0.000 C 
ATOM      6  C   UNL     1       3.028   3.017  20.137  0.00  0.00    +0.000 C 
ATOM      7  C   UNL     1       3.370   4.328  19.473  0.00  0.00    +0.000 C 
ATOM      8  C   UNL     1       2.704   4.808  18.401  0.00  0.00    +0.000 C 
ATOM      9  C   UNL     1       1.527   4.069  17.787  0.00  0.00    +0.000 C 
ATOM     10  C   UNL     1       1.007   2.926  18.676  0.00  0.00    +0.000 C 
BRANCH   5  11
ATOM     11  N   UNL     1       2.968   1.530  18.162  0.00  0.00    +0.000 NA
ATOM     12  H   UNL     1       2.825   0.493  18.151  0.00  0.00    +0.000 HD
ATOM     13  H   UNL     1       2.616   1.895  17.248  0.00  0.00    +0.000 HD
ENDBRANCH   5  11
ENDBRANCH   4   8
ENDBRANCH   3   4
ENDBRANCH   1   3
BRANCH   1  14
ATOM     14  C   UNL     1       6.150   4.838  16.281  0.00  0.00    +0.000 C 
BRANCH  14  15
ATOM     15  C   UNL     1       6.458   4.603  14.792  0.00  0.00    +0.000 A 
ATOM     16  C   UNL     1       7.511   5.265  14.110  0.00  0.00    +0.000 A 
ATOM     17  C   UNL     1       7.750   5.028  12.755  0.00  0.00    +0.000 A 
ATOM     18  C   UNL     1       6.945   4.138  12.049  0.00  0.00    +0.000 A 
ATOM     19  C   UNL     1       5.898   3.481  12.696  0.00  0.00    +0.000 A 
ATOM     20  C   UNL     1       5.654   3.711  14.056  0.00  0.00    +0.000 A 
ENDBRANCH  14  15
BRANCH  14  21
ATOM     21  C   UNL     1       7.490   5.158  17.018  0.00  0.00    +0.000 C 
ATOM     22  C   UNL     1       7.487   6.569  17.613  0.00  0.00    +0.000 C 
ATOM     23  C   UNL     1       7.527   5.359  18.533  0.00  0.00    +0.000 C 
ENDBRANCH  14  21
BRANCH  14  24
ATOM     24  O   UNL     1       5.568   3.663  16.810  0.00  0.00    +0.000 OA
ATOM     25  H   UNL     1       4.797   3.930  17.375  0.00  0.00    +0.000 HD
ENDBRANCH  14  24
ENDBRANCH   1  14
TORSDOF 8
ENDMDL
MODEL 7
REMARK VINA RESULT:      -7.2      1.283      3.654
REMARK  Name = 
REMARK  8 active torsions:
REMARK  status: ('A' for Active; 'I' for Inactive)
REMARK    1  A    between atoms: N_1  and  C_2
REMARK    2  A    between atoms: C_5  and  C_6
REMARK    3  A    between atoms: C_6  and  O_7
REMARK    4  A    between atoms: O_7  and  C_8
REMARK    5  A    between atoms: C_8  and  C_10
REMARK    6  A    between atoms: C_10  and  O_11
REMARK    7  A    between atoms: C_10  and  C_12
REMARK    8  A    between atoms: C_10  and  C_18
REMARK                            x       y       z     vdW  Elec       q    Type
REMARK                         _______ _______ _______ _____ _____    ______ ____
ROOT
ATOM      1  C   UNL     1       5.180   6.029  16.423  0.00  0.00    +0.000 C 
ATOM      2  O   UNL     1       5.038   6.859  15.534  0.00  0.00    +0.000 OA
ENDROOT
BRANCH   1   3
ATOM      3  O   UNL     1       4.482   6.131  17.584  0.00  0.00    +0.000 OA
BRANCH   3   4
ATOM      4  C   UNL     1       3.106   6.067  17.702  0.00  0.00    +0.000 C 
BRANCH   4   8
ATOM      5  C   UNL     1       1.666   2.568  19.895  0.00  0.00    +0.000 C 
ATOM      6  C   UNL     1       1.380   2.658  18.382  0.00  0.00    +0.000 C 
ATOM      7  C   UNL     1       1.845   3.957  17.775  0.00  0.00    +0.000 C 
ATOM      8  C   UNL     1       2.731   4.779  18.378  0.00  0.00    +0.000 C 
ATOM      9  C   UNL     1       3.356   4.442  19.720  0.00  0.00    +0.000 C 
ATOM     10  C   UNL     1       3.119   2.982  20.144  0.00  0.00    +0.000 C 
BRANCH   5  11
ATOM     11  N   UNL     1       0.751   3.433  20.645  0.00  0.00    +0.000 NA
ATOM     12  H   UNL     1       1.123   3.552  21.617  0.00  0.00    +0.000 HD
ATOM     13  H   UNL     1       0.742   4.381  20.205  0.00  0.00    +0.000 HD
ENDBRANCH   5  11
ENDBRANCH   4   8
ENDBRANCH   3   4
ENDBRANCH   1   3
BRANCH   1  14
ATOM     14  C   UNL     1       6.133   4.857  16.218  0.00  0.00    +0.000 C 
BRANCH  14  15
ATOM     15  C   UNL     1       6.443   4.603  14.733  0.00  0.00    +0.000 A 
ATOM     16  C   UNL     1       7.517   5.234  14.053  0.00  0.00    +0.000 A 
ATOM     17  C   UNL     1       7.757   4.981  12.701  0.00  0.00    +0.000 A 
ATOM     18  C   UNL     1       6.934   4.107  11.996  0.00  0.00    +0.000 A 
ATOM     19  C   UNL     1       5.867   3.481  12.642  0.00  0.00    +0.000 A 
ATOM     20  C   UNL     1       5.621   3.727  13.998  0.00  0.00    +0.000 A 
ENDBRANCH  14  15
BRANCH  14  21
ATOM     21  C   UNL     1       7.469   5.195  16.952  0.00  0.00    +0.000 C 
ATOM     22  C   UNL     1       7.425   6.582  17.599  0.00  0.00    +0.000 C 
ATOM     23  C   UNL     1       7.518   5.342  18.473  0.00  0.00    +0.000 C 
ENDBRANCH  14  21
BRANCH  14  24
ATOM     24  O   UNL     1       5.558   3.686  16.763  0.00  0.00    +0.000 OA
ATOM     25  H   UNL     1       5.421   3.834  17.735  0.00  0.00    +0.000 HD
ENDBRANCH  14  24
ENDBRANCH   1  14
TORSDOF 8
ENDMDL
MODEL 8
REMARK VINA RESULT:      -7.2      3.281      6.252
REMARK  Name = 
REMARK  8 active torsions:
REMARK  status: ('A' for Active; 'I' for Inactive)
REMARK    1  A    between atoms: N_1  and  C_2
REMARK    2  A    between atoms: C_5  and  C_6
REMARK    3  A    between atoms: C_6  and  O_7
REMARK    4  A    between atoms: O_7  and  C_8
REMARK    5  A    between atoms: C_8  and  C_10
REMARK    6  A    between atoms: C_10  and  O_11
REMARK    7  A    between atoms: C_10  and  C_12
REMARK    8  A    between atoms: C_10  and  C_18
REMARK                            x       y       z     vdW  Elec       q    Type
REMARK                         _______ _______ _______ _____ _____    ______ ____
ROOT
ATOM      1  C   UNL     1       6.138   4.344  17.853  0.00  0.00    +0.000 C 
ATOM      2  O   UNL     1       7.036   4.736  18.587  0.00  0.00    +0.000 OA
ENDROOT
BRANCH   1   3
ATOM      3  O   UNL     1       6.368   4.131  16.531  0.00  0.00    +0.000 OA
BRANCH   3   4
ATOM      4  C   UNL     1       7.103   4.957  15.701  0.00  0.00    +0.000 C 
BRANCH   4   8
ATOM      5  C   UNL     1       6.408   3.559  11.616  0.00  0.00    +0.000 C 
ATOM      6  C   UNL     1       5.211   3.623  12.585  0.00  0.00    +0.000 C 
ATOM      7  C   UNL     1       5.610   4.027  13.983  0.00  0.00    +0.000 C 
ATOM      8  C   UNL     1       6.788   4.622  14.271  0.00  0.00    +0.000 C 
ATOM      9  C   UNL     1       7.804   4.960  13.194  0.00  0.00    +0.000 C 
ATOM     10  C   UNL     1       7.232   4.840  11.770  0.00  0.00    +0.000 C 
BRANCH   5  11
ATOM     11  N   UNL     1       7.234   2.382  11.893  0.00  0.00    +0.000 NA
ATOM     12  H   UNL     1       6.905   1.944  12.786  0.00  0.00    +0.000 HD
ATOM     13  H   UNL     1       7.087   1.676  11.136  0.00  0.00    +0.000 HD
ENDBRANCH   5  11
ENDBRANCH   4   8
ENDBRANCH   3   4
ENDBRANCH   1   3
BRANCH   1  14
ATOM     14  C   UNL     1       4.754   4.071  18.429  0.00  0.00    +0.000 C 
BRANCH  14  15
ATOM     15  C   UNL     1       3.920   5.353  18.590  0.00  0.00    +0.000 A 
ATOM     16  C   UNL     1       3.080   5.589  19.709  0.00  0.00    +0.000 A 
ATOM     17  C   UNL     1       2.332   6.764  19.810  0.00  0.00    +0.000 A 
ATOM     18  C   UNL     1       2.397   7.722  18.801  0.00  0.00    +0.000 A 
ATOM     19  C   UNL     1       3.209   7.508  17.688  0.00  0.00    +0.000 A 
ATOM     20  C   UNL     1       3.964   6.333  17.581  0.00  0.00    +0.000 A 
ENDBRANCH  14  15
BRANCH  14  21
ATOM     21  C   UNL     1       4.008   3.115  17.444  0.00  0.00    +0.000 C 
ATOM     22  C   UNL     1       3.323   1.962  18.183  0.00  0.00    +0.000 C 
ATOM     23  C   UNL     1       2.484   3.002  17.459  0.00  0.00    +0.000 C 
ENDBRANCH  14  21
BRANCH  14  24
ATOM     24  O   UNL     1       4.889   3.459  19.697  0.00  0.00    +0.000 OA
ATOM     25  H   UNL     1       5.731   2.936  19.698  0.00  0.00    +0.000 HD
ENDBRANCH  14  24
ENDBRANCH   1  14
TORSDOF 8
ENDMDL
MODEL 9
REMARK VINA RESULT:      -7.2      3.075      5.868
REMARK  Name = 
REMARK  8 active torsions:
REMARK  status: ('A' for Active; 'I' for Inactive)
REMARK    1  A    between atoms: N_1  and  C_2
REMARK    2  A    between atoms: C_5  and  C_6
REMARK    3  A    between atoms: C_6  and  O_7
REMARK    4  A    between atoms: O_7  and  C_8
REMARK    5  A    between atoms: C_8  and  C_10
REMARK    6  A    between atoms: C_10  and  O_11
REMARK    7  A    between atoms: C_10  and  C_12
REMARK    8  A    between atoms: C_10  and  C_18
REMARK                            x       y       z     vdW  Elec       q    Type
REMARK                         _______ _______ _______ _____ _____    ______ ____
ROOT
ATOM      1  C   UNL     1       4.474   4.050  19.752  0.00  0.00    +0.000 C 
ATOM      2  O   UNL     1       4.930   2.919  19.864  0.00  0.00    +0.000 OA
ENDROOT
BRANCH   1   3
ATOM      3  O   UNL     1       5.300   5.121  19.622  0.00  0.00    +0.000 OA
BRANCH   3   4
ATOM      4  C   UNL     1       6.495   5.133  18.929  0.00  0.00    +0.000 C 
BRANCH   4   8
ATOM      5  C   UNL     1       6.131   5.111  14.571  0.00  0.00    +0.000 C 
ATOM      6  C   UNL     1       5.990   3.775  15.328  0.00  0.00    +0.000 C 
ATOM      7  C   UNL     1       6.235   3.913  16.809  0.00  0.00    +0.000 C 
ATOM      8  C   UNL     1       6.208   5.099  17.455  0.00  0.00    +0.000 C 
ATOM      9  C   UNL     1       5.898   6.400  16.735  0.00  0.00    +0.000 C 
ATOM     10  C   UNL     1       5.336   6.184  15.319  0.00  0.00    +0.000 C 
BRANCH   5  11
ATOM     11  N   UNL     1       7.540   5.498  14.466  0.00  0.00    +0.000 NA
ATOM     12  H   UNL     1       8.018   5.276  15.371  0.00  0.00    +0.000 HD
ATOM     13  H   UNL     1       8.000   4.915  13.730  0.00  0.00    +0.000 HD
ENDBRANCH   5  11
ENDBRANCH   4   8
ENDBRANCH   3   4
ENDBRANCH   1   3
BRANCH   1  14
ATOM     14  C   UNL     1       2.964   4.257  19.734  0.00  0.00    +0.000 C 
BRANCH  14  15
ATOM     15  C   UNL     1       2.573   5.714  19.434  0.00  0.00    +0.000 A 
ATOM     16  C   UNL     1       2.730   6.305  18.153  0.00  0.00    +0.000 A 
ATOM     17  C   UNL     1       2.370   7.635  17.927  0.00  0.00    +0.000 A 
ATOM     18  C   UNL     1       1.855   8.406  18.966  0.00  0.00    +0.000 A 
ATOM     19  C   UNL     1       1.699   7.849  20.236  0.00  0.00    +0.000 A 
ATOM     20  C   UNL     1       2.055   6.515  20.470  0.00  0.00    +0.000 A 
ENDBRANCH  14  15
BRANCH  14  21
ATOM     21  C   UNL     1       2.371   3.345  18.614  0.00  0.00    +0.000 C 
ATOM     22  C   UNL     1       1.717   2.088  19.193  0.00  0.00    +0.000 C 
ATOM     23  C   UNL     1       0.863   3.130  18.488  0.00  0.00    +0.000 C 
ENDBRANCH  14  21
BRANCH  14  24
ATOM     24  O   UNL     1       2.428   3.899  20.992  0.00  0.00    +0.000 OA
ATOM     25  H   UNL     1       2.081   2.971  20.926  0.00  0.00    +0.000 HD
ENDBRANCH  14  24
ENDBRANCH   1  14
TORSDOF 8
ENDMDL
