MODEL 1
REMARK VINA RESULT:      -7.9      0.000      0.000
REMARK  Name = 
REMARK  7 active torsions:
REMARK  status: ('A' for Active; 'I' for Inactive)
REMARK    1  A    between atoms: C_1  and  O_2
REMARK    2  A    between atoms: O_2  and  C_3
REMARK    3  A    between atoms: C_6  and  C_7
REMARK    4  A    between atoms: C_12  and  N_13
REMARK    5  A    between atoms: C_21  and  C_22
REMARK    6  A    between atoms: C_23  and  C_24
REMARK    7  A    between atoms: C_27  and  N_28
REMARK                            x       y       z     vdW  Elec       q    Type
REMARK                         _______ _______ _______ _____ _____    ______ ____
ROOT
ATOM      1  C   UNL     1       1.206   8.671  20.143  0.00  0.00    +0.000 A 
ATOM      2  O   UNL     1       1.982   7.722  20.723  0.00  0.00    +0.000 OA
ATOM      3  C   UNL     1       2.630   7.063  19.744  0.00  0.00    +0.000 A 
ATOM      4  C   UNL     1       3.504   6.017  20.006  0.00  0.00    +0.000 A 
ATOM      5  C   UNL     1       4.183   5.487  18.917  0.00  0.00    +0.000 A 
ATOM      6  C   UNL     1       4.014   5.973  17.610  0.00  0.00    +0.000 A 
ATOM      7  C   UNL     1       3.038   6.999  17.392  0.00  0.00    +0.000 A 
ATOM      8  C   UNL     1       2.310   7.572  18.487  0.00  0.00    +0.000 A 
ATOM      9  C   UNL     1       1.265   8.557  18.756  0.00  0.00    +0.000 A 
ENDROOT
BRANCH   1  13
ATOM     10  C   UNL     1      -0.864  11.225  22.888  0.00  0.00    +0.000 A 
ATOM     11  C   UNL     1      -0.740   9.862  23.157  0.00  0.00    +0.000 A 
ATOM     12  C   UNL     1      -0.045   9.023  22.280  0.00  0.00    +0.000 A 
ATOM     13  C   UNL     1       0.536   9.535  21.114  0.00  0.00    +0.000 A 
ATOM     14  C   UNL     1       0.381  10.904  20.843  0.00  0.00    +0.000 A 
ATOM     15  C   UNL     1      -0.314  11.743  21.719  0.00  0.00    +0.000 A 
BRANCH  10  17
ATOM     16  C   UNL     1      -2.807  12.489  23.314  0.00  0.00    +0.000 C 
ATOM     17  O   UNL     1      -1.586  11.945  23.800  0.00  0.00    +0.000 OA
ENDBRANCH  10  17
ENDBRANCH   1  13
BRANCH   6  18
ATOM     18  N   UNL     1       4.772   5.362  16.615  0.00  0.00    +0.000 N 
ATOM     19  C   UNL     1       4.617   3.948  16.264  0.00  0.00    +0.000 C 
ATOM     20  C   UNL     1       5.964   3.430  15.713  0.00  0.00    +0.000 C 
ATOM     21  O   UNL     1       6.410   4.191  14.576  0.00  0.00    +0.000 OA
ATOM     22  C   UNL     1       6.579   5.573  14.935  0.00  0.00    +0.000 C 
ATOM     23  C   UNL     1       5.268   6.179  15.479  0.00  0.00    +0.000 C 
ENDBRANCH   6  18
BRANCH   9  24
ATOM     24  C   UNL     1       0.337   9.318  17.936  0.00  0.00    +0.000 C 
ATOM     25  C   UNL     1      -0.656   9.872  17.524  0.00  0.00    +0.000 C 
BRANCH  25  26
ATOM     26  C   UNL     1      -1.942  10.496  17.264  0.00  0.00    +0.000 A 
ATOM     27  C   UNL     1      -2.642  11.162  18.270  0.00  0.00    +0.000 A 
ATOM     28  C   UNL     1      -3.927  11.688  18.030  0.00  0.00    +0.000 A 
ATOM     29  C   UNL     1      -4.528  11.599  16.772  0.00  0.00    +0.000 A 
ATOM     30  C   UNL     1      -3.846  10.894  15.777  0.00  0.00    +0.000 A 
ATOM     31  C   UNL     1      -2.566  10.365  16.016  0.00  0.00    +0.000 A 
BRANCH  29  32
ATOM     32  N   UNL     1      -5.864  11.980  16.595  0.00  0.00    +0.000 N 
ATOM     33  H   UNL     1      -6.056  12.471  15.724  0.00  0.00    +0.000 HD
ATOM     34  H   UNL     1      -6.545  11.253  16.783  0.00  0.00    +0.000 HD
ENDBRANCH  29  32
ENDBRANCH  25  26
ENDBRANCH   9  24
TORSDOF 6
ENDMDL
MODEL 2
REMARK VINA RESULT:      -7.8      2.908      3.661
REMARK  Name = 
REMARK  7 active torsions:
REMARK  status: ('A' for Active; 'I' for Inactive)
REMARK    1  A    between atoms: C_1  and  O_2
REMARK    2  A    between atoms: O_2  and  C_3
REMARK    3  A    between atoms: C_6  and  C_7
REMARK    4  A    between atoms: C_12  and  N_13
REMARK    5  A    between atoms: C_21  and  C_22
REMARK    6  A    between atoms: C_23  and  C_24
REMARK    7  A    between atoms: C_27  and  N_28
REMARK                            x       y       z     vdW  Elec       q    Type
REMARK                         _______ _______ _______ _____ _____    ______ ____
ROOT
ATOM      1  C   UNL     1       1.270   8.825  19.903  0.00  0.00    +0.000 A 
ATOM      2  O   UNL     1       1.343   7.487  20.110  0.00  0.00    +0.000 OA
ATOM      3  C   UNL     1       2.252   6.985  19.253  0.00  0.00    +0.000 A 
ATOM      4  C   UNL     1       2.559   5.633  19.203  0.00  0.00    +0.000 A 
ATOM      5  C   UNL     1       3.584   5.258  18.344  0.00  0.00    +0.000 A 
ATOM      6  C   UNL     1       4.291   6.185  17.560  0.00  0.00    +0.000 A 
ATOM      7  C   UNL     1       3.873   7.556  17.594  0.00  0.00    +0.000 A 
ATOM      8  C   UNL     1       2.816   7.986  18.463  0.00  0.00    +0.000 A 
ATOM      9  C   UNL     1       2.064   9.187  18.816  0.00  0.00    +0.000 A 
ENDROOT
BRANCH   1  13
ATOM     10  C   UNL     1      -1.170  10.878  22.763  0.00  0.00    +0.000 A 
ATOM     11  C   UNL     1      -1.226  11.229  21.414  0.00  0.00    +0.000 A 
ATOM     12  C   UNL     1      -0.452  10.549  20.468  0.00  0.00    +0.000 A 
ATOM     13  C   UNL     1       0.396   9.505  20.858  0.00  0.00    +0.000 A 
ATOM     14  C   UNL     1       0.462   9.180  22.222  0.00  0.00    +0.000 A 
ATOM     15  C   UNL     1      -0.310   9.859  23.168  0.00  0.00    +0.000 A 
BRANCH  10  17
ATOM     16  C   UNL     1      -3.001  12.347  22.973  0.00  0.00    +0.000 C 
ATOM     17  O   UNL     1      -1.948  11.626  23.602  0.00  0.00    +0.000 OA
ENDBRANCH  10  17
ENDBRANCH   1  13
BRANCH   6  18
ATOM     18  N   UNL     1       5.307   5.675  16.758  0.00  0.00    +0.000 N 
ATOM     19  C   UNL     1       5.270   5.755  15.296  0.00  0.00    +0.000 C 
ATOM     20  C   UNL     1       6.076   4.569  14.719  0.00  0.00    +0.000 C 
ATOM     21  O   UNL     1       7.434   4.559  15.195  0.00  0.00    +0.000 OA
ATOM     22  C   UNL     1       7.460   4.459  16.629  0.00  0.00    +0.000 C 
ATOM     23  C   UNL     1       6.692   5.623  17.290  0.00  0.00    +0.000 C 
ENDBRANCH   6  18
BRANCH   9  24
ATOM     24  C   UNL     1       1.959  10.530  18.269  0.00  0.00    +0.000 C 
ATOM     25  C   UNL     1       1.897  11.733  18.162  0.00  0.00    +0.000 C 
BRANCH  25  26
ATOM     26  C   UNL     1       1.895  13.181  18.277  0.00  0.00    +0.000 A 
ATOM     27  C   UNL     1       3.055  13.928  18.064  0.00  0.00    +0.000 A 
ATOM     28  C   UNL     1       3.063  15.322  18.263  0.00  0.00    +0.000 A 
ATOM     29  C   UNL     1       1.907  16.012  18.641  0.00  0.00    +0.000 A 
ATOM     30  C   UNL     1       0.758  15.259  18.897  0.00  0.00    +0.000 A 
ATOM     31  C   UNL     1       0.750  13.867  18.702  0.00  0.00    +0.000 A 
BRANCH  29  32
ATOM     32  N   UNL     1       1.973  17.366  18.992  0.00  0.00    +0.000 N 
ATOM     33  H   UNL     1       1.441  17.618  19.823  0.00  0.00    +0.000 HD
ATOM     34  H   UNL     1       2.907  17.761  19.001  0.00  0.00    +0.000 HD
ENDBRANCH  29  32
ENDBRANCH  25  26
ENDBRANCH   9  24
TORSDOF 6
ENDMDL
MODEL 3
REMARK VINA RESULT:      -7.7      0.357      1.208
REMARK  Name = 
REMARK  7 active torsions:
REMARK  status: ('A' for Active; 'I' for Inactive)
REMARK    1  A    between atoms: C_1  and  O_2
REMARK    2  A    between atoms: O_2  and  C_3
REMARK    3  A    between atoms: C_6  and  C_7
REMARK    4  A    between atoms: C_12  and  N_13
REMARK    5  A    between atoms: C_21  and  C_22
REMARK    6  A    between atoms: C_23  and  C_24
REMARK    7  A    between atoms: C_27  and  N_28
REMARK                            x       y       z     vdW  Elec       q    Type
REMARK                         _______ _______ _______ _____ _____    ______ ____
ROOT
ATOM      1  C   UNL     1       1.095   8.665  20.073  0.00  0.00    +0.000 A 
ATOM      2  O   UNL     1       1.890   7.746  20.675  0.00  0.00    +0.000 OA
ATOM      3  C   UNL     1       2.586   7.110  19.713  0.00  0.00    +0.000 A 
ATOM      4  C   UNL     1       3.490   6.096  19.999  0.00  0.00    +0.000 A 
ATOM      5  C   UNL     1       4.215   5.590  18.928  0.00  0.00    +0.000 A 
ATOM      6  C   UNL     1       4.061   6.068  17.616  0.00  0.00    +0.000 A 
ATOM      7  C   UNL     1       3.054   7.058  17.372  0.00  0.00    +0.000 A 
ATOM      8  C   UNL     1       2.279   7.605  18.447  0.00  0.00    +0.000 A 
ATOM      9  C   UNL     1       1.193   8.552  18.688  0.00  0.00    +0.000 A 
ENDROOT
BRANCH   1  13
ATOM     10  C   UNL     1      -0.909  11.125  22.951  0.00  0.00    +0.000 A 
ATOM     11  C   UNL     1      -0.558  11.647  21.706  0.00  0.00    +0.000 A 
ATOM     12  C   UNL     1       0.075  10.847  20.750  0.00  0.00    +0.000 A 
ATOM     13  C   UNL     1       0.371   9.506  21.025  0.00  0.00    +0.000 A 
ATOM     14  C   UNL     1       0.035   9.001  22.292  0.00  0.00    +0.000 A 
ATOM     15  C   UNL     1      -0.596   9.801  23.248  0.00  0.00    +0.000 A 
BRANCH  10  17
ATOM     16  C   UNL     1      -2.807  12.430  23.452  0.00  0.00    +0.000 C 
ATOM     17  O   UNL     1      -1.499  12.004  23.816  0.00  0.00    +0.000 OA
ENDBRANCH  10  17
ENDBRANCH   1  13
BRANCH   6  18
ATOM     18  N   UNL     1       4.865   5.483  16.642  0.00  0.00    +0.000 N 
ATOM     19  C   UNL     1       5.368   6.227  15.486  0.00  0.00    +0.000 C 
ATOM     20  C   UNL     1       5.581   5.236  14.319  0.00  0.00    +0.000 C 
ATOM     21  O   UNL     1       6.484   4.174  14.673  0.00  0.00    +0.000 OA
ATOM     22  C   UNL     1       5.972   3.436  15.796  0.00  0.00    +0.000 C 
ATOM     23  C   UNL     1       5.749   4.350  17.018  0.00  0.00    +0.000 C 
ENDBRANCH   6  18
BRANCH   9  24
ATOM     24  C   UNL     1       0.259   9.278  17.843  0.00  0.00    +0.000 C 
ATOM     25  C   UNL     1      -0.732   9.830  17.423  0.00  0.00    +0.000 C 
BRANCH  25  26
ATOM     26  C   UNL     1      -2.008  10.474  17.160  0.00  0.00    +0.000 A 
ATOM     27  C   UNL     1      -2.690  11.170  18.159  0.00  0.00    +0.000 A 
ATOM     28  C   UNL     1      -3.965  11.716  17.916  0.00  0.00    +0.000 A 
ATOM     29  C   UNL     1      -4.575  11.618  16.663  0.00  0.00    +0.000 A 
ATOM     30  C   UNL     1      -3.912  10.884  15.676  0.00  0.00    +0.000 A 
ATOM     31  C   UNL     1      -2.641  10.335  15.918  0.00  0.00    +0.000 A 
BRANCH  29  32
ATOM     32  N   UNL     1      -5.904  12.021  16.487  0.00  0.00    +0.000 N 
ATOM     33  H   UNL     1      -6.026  13.009  16.270  0.00  0.00    +0.000 HD
ATOM     34  H   UNL     1      -6.455  11.426  15.879  0.00  0.00    +0.000 HD
ENDBRANCH  29  32
ENDBRANCH  25  26
ENDBRANCH   9  24
TORSDOF 6
ENDMDL
MODEL 4
REMARK VINA RESULT:      -7.6      2.866      3.602
REMARK  Name = 
REMARK  7 active torsions:
REMARK  status: ('A' for Active; 'I' for Inactive)
REMARK    1  A    between atoms: C_1  and  O_2
REMARK    2  A    between atoms: O_2  and  C_3
REMARK    3  A    between atoms: C_6  and  C_7
REMARK    4  A    between atoms: C_12  and  N_13
REMARK    5  A    between atoms: C_21  and  C_22
REMARK    6  A    between atoms: C_23  and  C_24
REMARK    7  A    between atoms: C_27  and  N_28
REMARK                            x       y       z     vdW  Elec       q    Type
REMARK                         _______ _______ _______ _____ _____    ______ ____
ROOT
ATOM      1  C   UNL     1       1.406   8.596  19.836  0.00  0.00    +0.000 A 
ATOM      2  O   UNL     1       1.410   7.251  20.011  0.00  0.00    +0.000 OA
ATOM      3  C   UNL     1       2.263   6.721  19.116  0.00  0.00    +0.000 A 
ATOM      4  C   UNL     1       2.492   5.355  19.027  0.00  0.00    +0.000 A 
ATOM      5  C   UNL     1       3.469   4.944  18.130  0.00  0.00    +0.000 A 
ATOM      6  C   UNL     1       4.204   5.849  17.346  0.00  0.00    +0.000 A 
ATOM      7  C   UNL     1       3.867   7.240  17.423  0.00  0.00    +0.000 A 
ATOM      8  C   UNL     1       2.860   7.707  18.332  0.00  0.00    +0.000 A 
ATOM      9  C   UNL     1       2.187   8.939  18.735  0.00  0.00    +0.000 A 
ENDROOT
BRANCH   1  13
ATOM     10  C   UNL     1      -0.831  10.714  22.812  0.00  0.00    +0.000 A 
ATOM     11  C   UNL     1      -0.921  11.087  21.470  0.00  0.00    +0.000 A 
ATOM     12  C   UNL     1      -0.215  10.387  20.487  0.00  0.00    +0.000 A 
ATOM     13  C   UNL     1       0.599   9.301  20.831  0.00  0.00    +0.000 A 
ATOM     14  C   UNL     1       0.701   8.954  22.188  0.00  0.00    +0.000 A 
ATOM     15  C   UNL     1      -0.004   9.653  23.171  0.00  0.00    +0.000 A 
BRANCH  10  17
ATOM     16  C   UNL     1      -2.689  12.127  23.141  0.00  0.00    +0.000 C 
ATOM     17  O   UNL     1      -1.543  11.484  23.688  0.00  0.00    +0.000 OA
ENDBRANCH  10  17
ENDBRANCH   1  13
BRANCH   6  18
ATOM     18  N   UNL     1       5.167   5.302  16.502  0.00  0.00    +0.000 N 
ATOM     19  C   UNL     1       6.603   5.448  16.747  0.00  0.00    +0.000 C 
ATOM     20  C   UNL     1       7.341   5.389  15.390  0.00  0.00    +0.000 C 
ATOM     21  O   UNL     1       7.067   4.168  14.680  0.00  0.00    +0.000 OA
ATOM     22  C   UNL     1       5.657   4.044  14.426  0.00  0.00    +0.000 C 
ATOM     23  C   UNL     1       4.843   4.072  15.736  0.00  0.00    +0.000 C 
ENDBRANCH   6  18
BRANCH   9  24
ATOM     24  C   UNL     1       2.143  10.298  18.221  0.00  0.00    +0.000 C 
ATOM     25  C   UNL     1       2.085  11.504  18.144  0.00  0.00    +0.000 C 
BRANCH  25  26
ATOM     26  C   UNL     1       2.054  12.948  18.304  0.00  0.00    +0.000 A 
ATOM     27  C   UNL     1       0.889  13.610  18.694  0.00  0.00    +0.000 A 
ATOM     28  C   UNL     1       0.847  15.017  18.762  0.00  0.00    +0.000 A 
ATOM     29  C   UNL     1       1.973  15.795  18.483  0.00  0.00    +0.000 A 
ATOM     30  C   UNL     1       3.126  15.135  18.050  0.00  0.00    +0.000 A 
ATOM     31  C   UNL     1       3.168  13.732  17.978  0.00  0.00    +0.000 A 
BRANCH  29  32
ATOM     32  N   UNL     1       1.868  17.189  18.397  0.00  0.00    +0.000 N 
ATOM     33  H   UNL     1       1.484  17.534  17.519  0.00  0.00    +0.000 HD
ATOM     34  H   UNL     1       1.444  17.637  19.202  0.00  0.00    +0.000 HD
ENDBRANCH  29  32
ENDBRANCH  25  26
ENDBRANCH   9  24
TORSDOF 6
ENDMDL
MODEL 5
REMARK VINA RESULT:      -7.6      4.764      8.112
REMARK  Name = 
REMARK  7 active torsions:
REMARK  status: ('A' for Active; 'I' for Inactive)
REMARK    1  A    between atoms: C_1  and  O_2
REMARK    2  A    between atoms: O_2  and  C_3
REMARK    3  A    between atoms: C_6  and  C_7
REMARK    4  A    between atoms: C_12  and  N_13
REMARK    5  A    between atoms: C_21  and  C_22
REMARK    6  A    between atoms: C_23  and  C_24
REMARK    7  A    between atoms: C_27  and  N_28
REMARK                            x       y       z     vdW  Elec       q    Type
REMARK                         _______ _______ _______ _____ _____    ______ ____
ROOT
ATOM      1  C   UNL     1      -0.576  12.525  18.580  0.00  0.00    +0.000 A 
ATOM      2  O   UNL     1      -0.544  13.873  18.730  0.00  0.00    +0.000 OA
ATOM      3  C   UNL     1       0.747  14.254  18.763  0.00  0.00    +0.000 A 
ATOM      4  C   UNL     1       1.125  15.580  18.917  0.00  0.00    +0.000 A 
ATOM      5  C   UNL     1       2.485  15.852  18.835  0.00  0.00    +0.000 A 
ATOM      6  C   UNL     1       3.444  14.852  18.605  0.00  0.00    +0.000 A 
ATOM      7  C   UNL     1       2.999  13.492  18.536  0.00  0.00    +0.000 A 
ATOM      8  C   UNL     1       1.605  13.165  18.620  0.00  0.00    +0.000 A 
ATOM      9  C   UNL     1       0.716  12.006  18.626  0.00  0.00    +0.000 A 
ENDROOT
BRANCH   1  13
ATOM     10  C   UNL     1      -4.591  11.124  18.068  0.00  0.00    +0.000 A 
ATOM     11  C   UNL     1      -3.610  10.796  17.133  0.00  0.00    +0.000 A 
ATOM     12  C   UNL     1      -2.291  11.227  17.302  0.00  0.00    +0.000 A 
ATOM     13  C   UNL     1      -1.931  12.000  18.413  0.00  0.00    +0.000 A 
ATOM     14  C   UNL     1      -2.934  12.345  19.333  0.00  0.00    +0.000 A 
ATOM     15  C   UNL     1      -4.253  11.915  19.163  0.00  0.00    +0.000 A 
BRANCH  10  17
ATOM     16  C   UNL     1      -6.761  10.693  18.882  0.00  0.00    +0.000 C 
ATOM     17  O   UNL     1      -5.851  10.672  17.788  0.00  0.00    +0.000 OA
ENDBRANCH  10  17
ENDBRANCH   1  13
BRANCH   6  18
ATOM     18  N   UNL     1       4.770  15.268  18.528  0.00  0.00    +0.000 N 
ATOM     19  C   UNL     1       5.782  14.535  17.763  0.00  0.00    +0.000 C 
ATOM     20  C   UNL     1       7.163  14.788  18.409  0.00  0.00    +0.000 C 
ATOM     21  O   UNL     1       7.484  16.189  18.464  0.00  0.00    +0.000 OA
ATOM     22  C   UNL     1       6.496  16.897  19.234  0.00  0.00    +0.000 C 
ATOM     23  C   UNL     1       5.083  16.715  18.643  0.00  0.00    +0.000 C 
ENDBRANCH   6  18
BRANCH   9  24
ATOM     24  C   UNL     1       0.906  10.568  18.718  0.00  0.00    +0.000 C 
ATOM     25  C   UNL     1       1.400   9.464  18.709  0.00  0.00    +0.000 C 
BRANCH  25  26
ATOM     26  C   UNL     1       2.217   8.262  18.687  0.00  0.00    +0.000 A 
ATOM     27  C   UNL     1       3.093   7.998  17.634  0.00  0.00    +0.000 A 
ATOM     28  C   UNL     1       3.815   6.790  17.580  0.00  0.00    +0.000 A 
ATOM     29  C   UNL     1       3.713   5.833  18.593  0.00  0.00    +0.000 A 
ATOM     30  C   UNL     1       2.803   6.078  19.625  0.00  0.00    +0.000 A 
ATOM     31  C   UNL     1       2.079   7.281  19.678  0.00  0.00    +0.000 A 
BRANCH  29  32
ATOM     32  N   UNL     1       4.308   4.575  18.443  0.00  0.00    +0.000 N 
ATOM     33  H   UNL     1       3.666   3.827  18.185  0.00  0.00    +0.000 HD
ATOM     34  H   UNL     1       5.152   4.565  17.881  0.00  0.00    +0.000 HD
ENDBRANCH  29  32
ENDBRANCH  25  26
ENDBRANCH   9  24
TORSDOF 6
ENDMDL
MODEL 6
REMARK VINA RESULT:      -7.6      3.707      5.587
REMARK  Name = 
REMARK  7 active torsions:
REMARK  status: ('A' for Active; 'I' for Inactive)
REMARK    1  A    between atoms: C_1  and  O_2
REMARK    2  A    between atoms: O_2  and  C_3
REMARK    3  A    between atoms: C_6  and  C_7
REMARK    4  A    between atoms: C_12  and  N_13
REMARK    5  A    between atoms: C_21  and  C_22
REMARK    6  A    between atoms: C_23  and  C_24
REMARK    7  A    between atoms: C_27  and  N_28
REMARK                            x       y       z     vdW  Elec       q    Type
REMARK                         _______ _______ _______ _____ _____    ______ ____
ROOT
ATOM      1  C   UNL     1       1.194  10.987  19.346  0.00  0.00    +0.000 A 
ATOM      2  O   UNL     1       1.981  10.362  18.436  0.00  0.00    +0.000 OA
ATOM      3  C   UNL     1       2.029   9.056  18.759  0.00  0.00    +0.000 A 
ATOM      4  C   UNL     1       2.764   8.136  18.024  0.00  0.00    +0.000 A 
ATOM      5  C   UNL     1       2.650   6.804  18.403  0.00  0.00    +0.000 A 
ATOM      6  C   UNL     1       1.835   6.388  19.468  0.00  0.00    +0.000 A 
ATOM      7  C   UNL     1       1.164   7.393  20.239  0.00  0.00    +0.000 A 
ATOM      8  C   UNL     1       1.258   8.780  19.887  0.00  0.00    +0.000 A 
ATOM      9  C   UNL     1       0.810  10.093  20.343  0.00  0.00    +0.000 A 
ENDROOT
BRANCH   1  13
ATOM     10  C   UNL     1       0.479  15.139  18.572  0.00  0.00    +0.000 A 
ATOM     11  C   UNL     1       1.785  14.655  18.645  0.00  0.00    +0.000 A 
ATOM     12  C   UNL     1       2.030  13.297  18.873  0.00  0.00    +0.000 A 
ATOM     13  C   UNL     1       0.969  12.398  19.035  0.00  0.00    +0.000 A 
ATOM     14  C   UNL     1      -0.340  12.904  18.985  0.00  0.00    +0.000 A 
ATOM     15  C   UNL     1      -0.586  14.261  18.759  0.00  0.00    +0.000 A 
BRANCH  10  17
ATOM     16  C   UNL     1       1.018  17.304  19.330  0.00  0.00    +0.000 C 
ATOM     17  O   UNL     1       0.358  16.486  18.372  0.00  0.00    +0.000 OA
ENDBRANCH  10  17
ENDBRANCH   1  13
BRANCH   6  18
ATOM     18  N   UNL     1       1.800   5.021  19.727  0.00  0.00    +0.000 N 
ATOM     19  C   UNL     1       1.766   4.018  18.660  0.00  0.00    +0.000 C 
ATOM     20  C   UNL     1       1.049   2.757  19.195  0.00  0.00    +0.000 C 
ATOM     21  O   UNL     1       1.691   2.230  20.369  0.00  0.00    +0.000 OA
ATOM     22  C   UNL     1       1.701   3.214  21.418  0.00  0.00    +0.000 C 
ATOM     23  C   UNL     1       2.421   4.504  20.974  0.00  0.00    +0.000 C 
ENDBRANCH   6  18
BRANCH   9  24
ATOM     24  C   UNL     1       0.157  10.595  21.541  0.00  0.00    +0.000 C 
ATOM     25  C   UNL     1      -0.503  11.260  22.306  0.00  0.00    +0.000 C 
BRANCH  25  26
ATOM     26  C   UNL     1      -1.385  12.172  23.014  0.00  0.00    +0.000 A 
ATOM     27  C   UNL     1      -2.666  11.783  23.409  0.00  0.00    +0.000 A 
ATOM     28  C   UNL     1      -3.544  12.701  24.017  0.00  0.00    +0.000 A 
ATOM     29  C   UNL     1      -3.156  14.016  24.283  0.00  0.00    +0.000 A 
ATOM     30  C   UNL     1      -1.890  14.418  23.848  0.00  0.00    +0.000 A 
ATOM     31  C   UNL     1      -1.014  13.504  23.238  0.00  0.00    +0.000 A 
BRANCH  29  32
ATOM     32  N   UNL     1      -4.091  14.954  24.736  0.00  0.00    +0.000 N 
ATOM     33  H   UNL     1      -4.831  14.571  25.321  0.00  0.00    +0.000 HD
ATOM     34  H   UNL     1      -3.694  15.801  25.127  0.00  0.00    +0.000 HD
ENDBRANCH  29  32
ENDBRANCH  25  26
ENDBRANCH   9  24
TORSDOF 6
ENDMDL
MODEL 7
REMARK VINA RESULT:      -7.5      3.140      9.226
REMARK  Name = 
REMARK  7 active torsions:
REMARK  status: ('A' for Active; 'I' for Inactive)
REMARK    1  A    between atoms: C_1  and  O_2
REMARK    2  A    between atoms: O_2  and  C_3
REMARK    3  A    between atoms: C_6  and  C_7
REMARK    4  A    between atoms: C_12  and  N_13
REMARK    5  A    between atoms: C_21  and  C_22
REMARK    6  A    between atoms: C_23  and  C_24
REMARK    7  A    between atoms: C_27  and  N_28
REMARK                            x       y       z     vdW  Elec       q    Type
REMARK                         _______ _______ _______ _____ _____    ______ ____
ROOT
ATOM      1  C   UNL     1       1.646   6.910  20.300  0.00  0.00    +0.000 A 
ATOM      2  O   UNL     1       0.928   7.250  21.398  0.00  0.00    +0.000 OA
ATOM      3  C   UNL     1       0.633   8.560  21.309  0.00  0.00    +0.000 A 
ATOM      4  C   UNL     1      -0.093   9.226  22.287  0.00  0.00    +0.000 A 
ATOM      5  C   UNL     1      -0.416  10.552  22.028  0.00  0.00    +0.000 A 
ATOM      6  C   UNL     1      -0.041  11.204  20.841  0.00  0.00    +0.000 A 
ATOM      7  C   UNL     1       0.777  10.488  19.906  0.00  0.00    +0.000 A 
ATOM      8  C   UNL     1       1.137   9.120  20.136  0.00  0.00    +0.000 A 
ATOM      9  C   UNL     1       1.918   8.042  19.534  0.00  0.00    +0.000 A 
ENDROOT
BRANCH   1  13
ATOM     10  C   UNL     1       2.395   2.707  19.952  0.00  0.00    +0.000 A 
ATOM     11  C   UNL     1       3.432   3.621  19.762  0.00  0.00    +0.000 A 
ATOM     12  C   UNL     1       3.204   4.994  19.897  0.00  0.00    +0.000 A 
ATOM     13  C   UNL     1       1.931   5.477  20.223  0.00  0.00    +0.000 A 
ATOM     14  C   UNL     1       0.891   4.547  20.385  0.00  0.00    +0.000 A 
ATOM     15  C   UNL     1       1.118   3.175  20.249  0.00  0.00    +0.000 A 
BRANCH  10  17
ATOM     16  C   UNL     1       3.741   1.150  18.802  0.00  0.00    +0.000 C 
ATOM     17  O   UNL     1       2.725   1.393  19.769  0.00  0.00    +0.000 OA
ENDBRANCH  10  17
ENDBRANCH   1  13
BRANCH   6  18
ATOM     18  N   UNL     1      -0.446  12.528  20.704  0.00  0.00    +0.000 N 
ATOM     19  C   UNL     1      -1.490  13.123  21.542  0.00  0.00    +0.000 C 
ATOM     20  C   UNL     1      -2.174  14.255  20.743  0.00  0.00    +0.000 C 
ATOM     21  O   UNL     1      -1.234  15.256  20.314  0.00  0.00    +0.000 OA
ATOM     22  C   UNL     1      -0.225  14.667  19.475  0.00  0.00    +0.000 C 
ATOM     23  C   UNL     1       0.526  13.535  20.206  0.00  0.00    +0.000 C 
ENDBRANCH   6  18
BRANCH   9  24
ATOM     24  C   UNL     1       2.867   7.952  18.437  0.00  0.00    +0.000 C 
ATOM     25  C   UNL     1       3.755   7.583  17.703  0.00  0.00    +0.000 C 
BRANCH  25  26
ATOM     26  C   UNL     1       4.813   6.923  16.957  0.00  0.00    +0.000 A 
ATOM     27  C   UNL     1       4.565   6.321  15.723  0.00  0.00    +0.000 A 
ATOM     28  C   UNL     1       5.577   5.609  15.050  0.00  0.00    +0.000 A 
ATOM     29  C   UNL     1       6.871   5.514  15.569  0.00  0.00    +0.000 A 
ATOM     30  C   UNL     1       7.108   6.079  16.824  0.00  0.00    +0.000 A 
ATOM     31  C   UNL     1       6.098   6.786  17.499  0.00  0.00    +0.000 A 
BRANCH  29  32
ATOM     32  N   UNL     1       7.814   4.670  14.970  0.00  0.00    +0.000 N 
ATOM     33  H   UNL     1       8.616   5.148  14.561  0.00  0.00    +0.000 HD
ATOM     34  H   UNL     1       8.091   3.871  15.531  0.00  0.00    +0.000 HD
ENDBRANCH  29  32
ENDBRANCH  25  26
ENDBRANCH   9  24
TORSDOF 6
ENDMDL
MODEL 8
REMARK VINA RESULT:      -7.4      2.891      3.605
REMARK  Name = 
REMARK  7 active torsions:
REMARK  status: ('A' for Active; 'I' for Inactive)
REMARK    1  A    between atoms: C_1  and  O_2
REMARK    2  A    between atoms: O_2  and  C_3
REMARK    3  A    between atoms: C_6  and  C_7
REMARK    4  A    between atoms: C_12  and  N_13
REMARK    5  A    between atoms: C_21  and  C_22
REMARK    6  A    between atoms: C_23  and  C_24
REMARK    7  A    between atoms: C_27  and  N_28
REMARK                            x       y       z     vdW  Elec       q    Type
REMARK                         _______ _______ _______ _____ _____    ______ ____
ROOT
ATOM      1  C   UNL     1       1.367   8.802  19.855  0.00  0.00    +0.000 A 
ATOM      2  O   UNL     1       1.341   7.463  20.068  0.00  0.00    +0.000 OA
ATOM      3  C   UNL     1       2.195   6.890  19.200  0.00  0.00    +0.000 A 
ATOM      4  C   UNL     1       2.396   5.517  19.153  0.00  0.00    +0.000 A 
ATOM      5  C   UNL     1       3.377   5.062  18.281  0.00  0.00    +0.000 A 
ATOM      6  C   UNL     1       4.141   5.928  17.482  0.00  0.00    +0.000 A 
ATOM      7  C   UNL     1       3.831   7.327  17.515  0.00  0.00    +0.000 A 
ATOM      8  C   UNL     1       2.823   7.840  18.396  0.00  0.00    +0.000 A 
ATOM      9  C   UNL     1       2.170   9.097  18.755  0.00  0.00    +0.000 A 
ENDROOT
BRANCH   1  13
ATOM     10  C   UNL     1      -1.112  10.942  22.615  0.00  0.00    +0.000 A 
ATOM     11  C   UNL     1      -0.298   9.902  23.065  0.00  0.00    +0.000 A 
ATOM     12  C   UNL     1       0.533   9.213  22.177  0.00  0.00    +0.000 A 
ATOM     13  C   UNL     1       0.562   9.551  20.819  0.00  0.00    +0.000 A 
ATOM     14  C   UNL     1      -0.282  10.582  20.375  0.00  0.00    +0.000 A 
ATOM     15  C   UNL     1      -1.113  11.271  21.262  0.00  0.00    +0.000 A 
BRANCH  10  17
ATOM     16  C   UNL     1      -2.140  12.919  23.383  0.00  0.00    +0.000 C 
ATOM     17  O   UNL     1      -1.902  11.528  23.564  0.00  0.00    +0.000 OA
ENDBRANCH  10  17
ENDBRANCH   1  13
BRANCH   6  18
ATOM     18  N   UNL     1       5.102   5.338  16.667  0.00  0.00    +0.000 N 
ATOM     19  C   UNL     1       6.539   5.475  16.919  0.00  0.00    +0.000 C 
ATOM     20  C   UNL     1       7.286   5.356  15.571  0.00  0.00    +0.000 C 
ATOM     21  O   UNL     1       7.002   4.113  14.905  0.00  0.00    +0.000 OA
ATOM     22  C   UNL     1       5.593   3.997  14.644  0.00  0.00    +0.000 C 
ATOM     23  C   UNL     1       4.769   4.084  15.945  0.00  0.00    +0.000 C 
ENDBRANCH   6  18
BRANCH   9  24
ATOM     24  C   UNL     1       2.160  10.442  18.203  0.00  0.00    +0.000 C 
ATOM     25  C   UNL     1       2.107  11.645  18.089  0.00  0.00    +0.000 C 
BRANCH  25  26
ATOM     26  C   UNL     1       2.064  13.092  18.207  0.00  0.00    +0.000 A 
ATOM     27  C   UNL     1       3.206  13.871  18.008  0.00  0.00    +0.000 A 
ATOM     28  C   UNL     1       3.173  15.264  18.210  0.00  0.00    +0.000 A 
ATOM     29  C   UNL     1       1.995  15.922  18.575  0.00  0.00    +0.000 A 
ATOM     30  C   UNL     1       0.864  15.138  18.816  0.00  0.00    +0.000 A 
ATOM     31  C   UNL     1       0.896  13.747  18.619  0.00  0.00    +0.000 A 
BRANCH  29  32
ATOM     32  N   UNL     1       2.019  17.276  18.928  0.00  0.00    +0.000 N 
ATOM     33  H   UNL     1       2.810  17.800  18.557  0.00  0.00    +0.000 HD
ATOM     34  H   UNL     1       1.141  17.768  18.801  0.00  0.00    +0.000 HD
ENDBRANCH  29  32
ENDBRANCH  25  26
ENDBRANCH   9  24
TORSDOF 6
ENDMDL
MODEL 9
REMARK VINA RESULT:      -7.4      7.474      8.441
REMARK  Name = 
REMARK  7 active torsions:
REMARK  status: ('A' for Active; 'I' for Inactive)
REMARK    1  A    between atoms: C_1  and  O_2
REMARK    2  A    between atoms: O_2  and  C_3
REMARK    3  A    between atoms: C_6  and  C_7
REMARK    4  A    between atoms: C_12  and  N_13
REMARK    5  A    between atoms: C_21  and  C_22
REMARK    6  A    between atoms: C_23  and  C_24
REMARK    7  A    between atoms: C_27  and  N_28
REMARK                            x       y       z     vdW  Elec       q    Type
REMARK                         _______ _______ _______ _____ _____    ______ ____
ROOT
ATOM      1  C   UNL     1       3.872  16.260  18.309  0.00  0.00    +0.000 A 
ATOM      2  O   UNL     1       4.829  17.191  18.545  0.00  0.00    +0.000 OA
ATOM      3  C   UNL     1       6.021  16.567  18.547  0.00  0.00    +0.000 A 
ATOM      4  C   UNL     1       7.213  17.243  18.770  0.00  0.00    +0.000 A 
ATOM      5  C   UNL     1       8.381  16.502  18.647  0.00  0.00    +0.000 A 
ATOM      6  C   UNL     1       8.380  15.139  18.310  0.00  0.00    +0.000 A 
ATOM      7  C   UNL     1       7.116  14.478  18.171  0.00  0.00    +0.000 A 
ATOM      8  C   UNL     1       5.885  15.203  18.295  0.00  0.00    +0.000 A 
ATOM      9  C   UNL     1       4.440  14.988  18.264  0.00  0.00    +0.000 A 
ENDROOT
BRANCH   1  13
ATOM     10  C   UNL     1      -0.066  17.859  17.776  0.00  0.00    +0.000 A 
ATOM     11  C   UNL     1       0.225  17.068  18.888  0.00  0.00    +0.000 A 
ATOM     12  C   UNL     1       1.513  16.561  19.085  0.00  0.00    +0.000 A 
ATOM     13  C   UNL     1       2.535  16.835  18.168  0.00  0.00    +0.000 A 
ATOM     14  C   UNL     1       2.222  17.610  17.040  0.00  0.00    +0.000 A 
ATOM     15  C   UNL     1       0.934  18.117  16.842  0.00  0.00    +0.000 A 
BRANCH  10  17
ATOM     16  C   UNL     1      -2.131  18.182  18.865  0.00  0.00    +0.000 C 
ATOM     17  O   UNL     1      -1.363  18.278  17.671  0.00  0.00    +0.000 OA
ENDBRANCH  10  17
ENDBRANCH   1  13
BRANCH   6  18
ATOM     18  N   UNL     1       9.624  14.523  18.202  0.00  0.00    +0.000 N 
ATOM     19  C   UNL     1      10.717  15.091  17.410  0.00  0.00    +0.000 C 
ATOM     20  C   UNL     1      11.620  13.936  16.921  0.00  0.00    +0.000 C 
ATOM     21  O   UNL     1      12.136  13.156  18.015  0.00  0.00    +0.000 OA
ATOM     22  C   UNL     1      11.056  12.586  18.774  0.00  0.00    +0.000 C 
ATOM     23  C   UNL     1      10.112  13.677  19.320  0.00  0.00    +0.000 C 
ENDBRANCH   6  18
BRANCH   9  24
ATOM     24  C   UNL     1       3.577  13.819  18.253  0.00  0.00    +0.000 C 
ATOM     25  C   UNL     1       2.615  13.090  18.341  0.00  0.00    +0.000 C 
BRANCH  25  26
ATOM     26  C   UNL     1       1.326  12.432  18.462  0.00  0.00    +0.000 A 
ATOM     27  C   UNL     1       1.227  11.045  18.582  0.00  0.00    +0.000 A 
ATOM     28  C   UNL     1      -0.030  10.410  18.611  0.00  0.00    +0.000 A 
ATOM     29  C   UNL     1      -1.219  11.143  18.562  0.00  0.00    +0.000 A 
ATOM     30  C   UNL     1      -1.120  12.527  18.398  0.00  0.00    +0.000 A 
ATOM     31  C   UNL     1       0.134  13.161  18.365  0.00  0.00    +0.000 A 
BRANCH  29  32
ATOM     32  N   UNL     1      -2.450  10.489  18.428  0.00  0.00    +0.000 N 
ATOM     33  H   UNL     1      -2.914  10.633  17.533  0.00  0.00    +0.000 HD
ATOM     34  H   UNL     1      -2.449   9.514  18.706  0.00  0.00    +0.000 HD
ENDBRANCH  29  32
ENDBRANCH  25  26
ENDBRANCH   9  24
TORSDOF 6
ENDMDL
