MODEL 1
REMARK VINA RESULT:      -8.9      0.000      0.000
REMARK  Name = 
REMARK  5 active torsions:
REMARK  status: ('A' for Active; 'I' for Inactive)
REMARK    1  A    between atoms: C_2  and  O_3
REMARK    2  A    between atoms: C_2  and  C_24
REMARK    3  A    between atoms: O_3  and  C_4
REMARK    4  A    between atoms: C_13  and  O_14
REMARK    5  A    between atoms: O_14  and  C_15
REMARK                            x       y       z     vdW  Elec       q    Type
REMARK                         _______ _______ _______ _____ _____    ______ ____
ROOT
ATOM      1  C   UNL     1       4.059   4.405  17.565  0.00  0.00    +0.000 C 
ATOM      2  C   UNL     1       4.353   3.113  17.770  0.00  0.00    +0.000 C 
ATOM      3  S   UNL     1       3.799   2.318  19.187  0.00  0.00    +0.000 S 
ATOM      4  O   UNL     1       4.814   2.400  20.215  0.00  0.00    +0.000 OA
ATOM      5  O   UNL     1       3.251   1.030  18.820  0.00  0.00    +0.000 OA
ATOM      6  N   UNL     1       2.492   3.219  19.757  0.00  0.00    +0.000 N 
ATOM      7  C   UNL     1       2.573   4.637  19.592  0.00  0.00    +0.000 A 
ATOM      8  C   UNL     1       1.747   5.414  20.410  0.00  0.00    +0.000 A 
ATOM      9  C   UNL     1       1.630   6.786  20.193  0.00  0.00    +0.000 A 
ATOM     10  C   UNL     1       2.372   7.400  19.186  0.00  0.00    +0.000 A 
ATOM     11  C   UNL     1       3.152   6.615  18.330  0.00  0.00    +0.000 A 
ATOM     12  C   UNL     1       3.251   5.221  18.503  0.00  0.00    +0.000 A 
ATOM     13  H   UNL     1       2.270   2.914  20.707  0.00  0.00    +0.000 HD
ENDROOT
BRANCH   1  14
ATOM     14  O   UNL     1       4.413   5.061  16.355  0.00  0.00    +0.000 OA
BRANCH  14  16
ATOM     15  O   UNL     1       6.128   4.425  14.943  0.00  0.00    +0.000 OA
ATOM     16  C   UNL     1       5.712   4.990  15.949  0.00  0.00    +0.000 C 
BRANCH  16  17
ATOM     17  C   UNL     1       6.602   5.714  16.902  0.00  0.00    +0.000 A 
ATOM     18  C   UNL     1       6.760   7.097  16.737  0.00  0.00    +0.000 A 
ATOM     19  C   UNL     1       7.551   7.832  17.623  0.00  0.00    +0.000 A 
ATOM     20  C   UNL     1       8.192   7.190  18.682  0.00  0.00    +0.000 A 
ATOM     21  C   UNL     1       8.051   5.813  18.850  0.00  0.00    +0.000 A 
ATOM     22  C   UNL     1       7.260   5.073  17.963  0.00  0.00    +0.000 A 
ENDBRANCH  16  17
ENDBRANCH  14  16
ENDBRANCH   1  14
BRANCH  10  23
ATOM     23  O   UNL     1       2.357   8.754  18.924  0.00  0.00    +0.000 OA
BRANCH  23  24
ATOM     24  C   UNL     1       1.193   9.463  19.127  0.00  0.00    +0.000 A 
ATOM     25  C   UNL     1       0.910  10.158  20.308  0.00  0.00    +0.000 A 
ATOM     26  C   UNL     1      -0.325  10.784  20.474  0.00  0.00    +0.000 A 
ATOM     27  C   UNL     1      -1.251  10.779  19.433  0.00  0.00    +0.000 A 
ATOM     28  C   UNL     1      -0.928  10.161  18.224  0.00  0.00    +0.000 A 
ATOM     29 BR   UNL     1      -2.163  10.215  16.793  0.00  0.00    +0.000 Br
ATOM     30  C   UNL     1       0.290   9.502  18.064  0.00  0.00    +0.000 A 
ENDBRANCH  23  24
ENDBRANCH  10  23
TORSDOF 5
ENDMDL
MODEL 2
REMARK VINA RESULT:      -8.8      1.545      2.599
REMARK  Name = 
REMARK  5 active torsions:
REMARK  status: ('A' for Active; 'I' for Inactive)
REMARK    1  A    between atoms: C_2  and  O_3
REMARK    2  A    between atoms: C_2  and  C_24
REMARK    3  A    between atoms: O_3  and  C_4
REMARK    4  A    between atoms: C_13  and  O_14
REMARK    5  A    between atoms: O_14  and  C_15
REMARK                            x       y       z     vdW  Elec       q    Type
REMARK                         _______ _______ _______ _____ _____    ______ ____
ROOT
ATOM      1  C   UNL     1       4.221   4.657  17.339  0.00  0.00    +0.000 C 
ATOM      2  C   UNL     1       4.570   3.380  17.556  0.00  0.00    +0.000 C 
ATOM      3  S   UNL     1       4.064   2.581  18.989  0.00  0.00    +0.000 S 
ATOM      4  O   UNL     1       5.086   2.718  20.005  0.00  0.00    +0.000 OA
ATOM      5  O   UNL     1       3.565   1.268  18.645  0.00  0.00    +0.000 OA
ATOM      6  N   UNL     1       2.728   3.436  19.563  0.00  0.00    +0.000 N 
ATOM      7  C   UNL     1       2.750   4.855  19.380  0.00  0.00    +0.000 A 
ATOM      8  C   UNL     1       1.902   5.608  20.197  0.00  0.00    +0.000 A 
ATOM      9  C   UNL     1       1.727   6.971  19.965  0.00  0.00    +0.000 A 
ATOM     10  C   UNL     1       2.433   7.601  18.941  0.00  0.00    +0.000 A 
ATOM     11  C   UNL     1       3.235   6.838  18.086  0.00  0.00    +0.000 A 
ATOM     12  C   UNL     1       3.392   5.452  18.276  0.00  0.00    +0.000 A 
ATOM     13  H   UNL     1       2.529   3.135  20.519  0.00  0.00    +0.000 HD
ENDROOT
BRANCH   1  14
ATOM     14  O   UNL     1       4.535   5.310  16.116  0.00  0.00    +0.000 OA
BRANCH  14  16
ATOM     15  O   UNL     1       6.636   6.168  16.552  0.00  0.00    +0.000 OA
ATOM     16  C   UNL     1       5.849   5.551  15.843  0.00  0.00    +0.000 C 
BRANCH  16  17
ATOM     17  C   UNL     1       6.234   4.946  14.535  0.00  0.00    +0.000 A 
ATOM     18  C   UNL     1       5.378   3.990  13.972  0.00  0.00    +0.000 A 
ATOM     19  C   UNL     1       5.670   3.419  12.731  0.00  0.00    +0.000 A 
ATOM     20  C   UNL     1       6.821   3.798  12.043  0.00  0.00    +0.000 A 
ATOM     21  C   UNL     1       7.686   4.741  12.598  0.00  0.00    +0.000 A 
ATOM     22  C   UNL     1       7.397   5.315  13.842  0.00  0.00    +0.000 A 
ENDBRANCH  16  17
ENDBRANCH  14  16
ENDBRANCH   1  14
BRANCH  10  23
ATOM     23  O   UNL     1       2.360   8.950  18.663  0.00  0.00    +0.000 OA
BRANCH  23  24
ATOM     24  C   UNL     1       1.179   9.620  18.894  0.00  0.00    +0.000 A 
ATOM     25  C   UNL     1       0.930  10.366  20.052  0.00  0.00    +0.000 A 
ATOM     26  C   UNL     1      -0.321  10.948  20.256  0.00  0.00    +0.000 A 
ATOM     27  C   UNL     1      -1.302  10.847  19.271  0.00  0.00    +0.000 A 
ATOM     28  C   UNL     1      -1.019  10.179  18.080  0.00  0.00    +0.000 A 
ATOM     29 BR   UNL     1      -2.332  10.103  16.720  0.00  0.00    +0.000 Br
ATOM     30  C   UNL     1       0.217   9.563  17.885  0.00  0.00    +0.000 A 
ENDBRANCH  23  24
ENDBRANCH  10  23
TORSDOF 5
ENDMDL
MODEL 3
REMARK VINA RESULT:      -8.8      1.068      1.391
REMARK  Name = 
REMARK  5 active torsions:
REMARK  status: ('A' for Active; 'I' for Inactive)
REMARK    1  A    between atoms: C_2  and  O_3
REMARK    2  A    between atoms: C_2  and  C_24
REMARK    3  A    between atoms: O_3  and  C_4
REMARK    4  A    between atoms: C_13  and  O_14
REMARK    5  A    between atoms: O_14  and  C_15
REMARK                            x       y       z     vdW  Elec       q    Type
REMARK                         _______ _______ _______ _____ _____    ______ ____
ROOT
ATOM      1  C   UNL     1       4.042   4.415  17.629  0.00  0.00    +0.000 C 
ATOM      2  C   UNL     1       4.331   3.115  17.791  0.00  0.00    +0.000 C 
ATOM      3  S   UNL     1       3.769   2.274  19.178  0.00  0.00    +0.000 S 
ATOM      4  O   UNL     1       4.780   2.318  20.212  0.00  0.00    +0.000 OA
ATOM      5  O   UNL     1       3.218   1.002  18.765  0.00  0.00    +0.000 OA
ATOM      6  N   UNL     1       2.463   3.160  19.773  0.00  0.00    +0.000 N 
ATOM      7  C   UNL     1       2.549   4.583  19.657  0.00  0.00    +0.000 A 
ATOM      8  C   UNL     1       1.723   5.335  20.498  0.00  0.00    +0.000 A 
ATOM      9  C   UNL     1       1.611   6.713  20.327  0.00  0.00    +0.000 A 
ATOM     10  C   UNL     1       2.359   7.359  19.344  0.00  0.00    +0.000 A 
ATOM     11  C   UNL     1       3.140   6.601  18.465  0.00  0.00    +0.000 A 
ATOM     12  C   UNL     1       3.233   5.202  18.591  0.00  0.00    +0.000 A 
ATOM     13  H   UNL     1       2.237   2.824  20.711  0.00  0.00    +0.000 HD
ENDROOT
BRANCH   1  14
ATOM     14  O   UNL     1       4.403   5.110  16.443  0.00  0.00    +0.000 OA
BRANCH  14  16
ATOM     15  O   UNL     1       6.101   4.445  15.024  0.00  0.00    +0.000 OA
ATOM     16  C   UNL     1       5.698   5.027  16.025  0.00  0.00    +0.000 C 
BRANCH  16  17
ATOM     17  C   UNL     1       6.600   5.762  16.958  0.00  0.00    +0.000 A 
ATOM     18  C   UNL     1       6.782   7.137  16.754  0.00  0.00    +0.000 A 
ATOM     19  C   UNL     1       7.587   7.882  17.619  0.00  0.00    +0.000 A 
ATOM     20  C   UNL     1       8.216   7.260  18.696  0.00  0.00    +0.000 A 
ATOM     21  C   UNL     1       8.050   5.891  18.903  0.00  0.00    +0.000 A 
ATOM     22  C   UNL     1       7.246   5.140  18.037  0.00  0.00    +0.000 A 
ENDBRANCH  16  17
ENDBRANCH  14  16
ENDBRANCH   1  14
BRANCH  10  23
ATOM     23  O   UNL     1       2.349   8.721  19.128  0.00  0.00    +0.000 OA
BRANCH  23  24
ATOM     24  C   UNL     1       1.153   9.402  19.193  0.00  0.00    +0.000 A 
ATOM     25  C   UNL     1       0.301   9.567  18.095  0.00  0.00    +0.000 A 
ATOM     26  C   UNL     1      -0.853  10.341  18.215  0.00  0.00    +0.000 A 
ATOM     27  C   UNL     1      -1.195  10.892  19.448  0.00  0.00    +0.000 A 
ATOM     28  C   UNL     1      -0.388  10.650  20.560  0.00  0.00    +0.000 A 
ATOM     29 BR   UNL     1      -0.893  11.344  22.246  0.00  0.00    +0.000 Br
ATOM     30  C   UNL     1       0.786   9.907  20.440  0.00  0.00    +0.000 A 
ENDBRANCH  23  24
ENDBRANCH  10  23
TORSDOF 5
ENDMDL
MODEL 4
REMARK VINA RESULT:      -8.7      1.827      2.853
REMARK  Name = 
REMARK  5 active torsions:
REMARK  status: ('A' for Active; 'I' for Inactive)
REMARK    1  A    between atoms: C_2  and  O_3
REMARK    2  A    between atoms: C_2  and  C_24
REMARK    3  A    between atoms: O_3  and  C_4
REMARK    4  A    between atoms: C_13  and  O_14
REMARK    5  A    between atoms: O_14  and  C_15
REMARK                            x       y       z     vdW  Elec       q    Type
REMARK                         _______ _______ _______ _____ _____    ______ ____
ROOT
ATOM      1  C   UNL     1       4.210   4.591  17.456  0.00  0.00    +0.000 C 
ATOM      2  C   UNL     1       4.541   3.301  17.618  0.00  0.00    +0.000 C 
ATOM      3  S   UNL     1       3.988   2.436  18.994  0.00  0.00    +0.000 S 
ATOM      4  O   UNL     1       4.983   2.511  20.043  0.00  0.00    +0.000 OA
ATOM      5  O   UNL     1       3.488   1.147  18.570  0.00  0.00    +0.000 OA
ATOM      6  N   UNL     1       2.644   3.275  19.573  0.00  0.00    +0.000 N 
ATOM      7  C   UNL     1       2.683   4.700  19.462  0.00  0.00    +0.000 A 
ATOM      8  C   UNL     1       1.819   5.420  20.293  0.00  0.00    +0.000 A 
ATOM      9  C   UNL     1       1.662   6.794  20.125  0.00  0.00    +0.000 A 
ATOM     10  C   UNL     1       2.402   7.469  19.155  0.00  0.00    +0.000 A 
ATOM     11  C   UNL     1       3.221   6.741  18.285  0.00  0.00    +0.000 A 
ATOM     12  C   UNL     1       3.361   5.346  18.408  0.00  0.00    +0.000 A 
ATOM     13  H   UNL     1       2.416   2.928  20.507  0.00  0.00    +0.000 HD
ENDROOT
BRANCH   1  14
ATOM     14  O   UNL     1       4.563   5.302  16.277  0.00  0.00    +0.000 OA
BRANCH  14  16
ATOM     15  O   UNL     1       6.742   5.925  16.730  0.00  0.00    +0.000 OA
ATOM     16  C   UNL     1       5.889   5.443  15.992  0.00  0.00    +0.000 C 
BRANCH  16  17
ATOM     17  C   UNL     1       6.195   4.913  14.633  0.00  0.00    +0.000 A 
ATOM     18  C   UNL     1       7.365   5.356  14.000  0.00  0.00    +0.000 A 
ATOM     19  C   UNL     1       7.720   4.864  12.741  0.00  0.00    +0.000 A 
ATOM     20  C   UNL     1       6.910   3.926  12.104  0.00  0.00    +0.000 A 
ATOM     21  C   UNL     1       5.738   3.486  12.720  0.00  0.00    +0.000 A 
ATOM     22  C   UNL     1       5.377   3.977  13.980  0.00  0.00    +0.000 A 
ENDBRANCH  16  17
ENDBRANCH  14  16
ENDBRANCH   1  14
BRANCH  10  23
ATOM     23  O   UNL     1       2.348   8.830  18.943  0.00  0.00    +0.000 OA
BRANCH  23  24
ATOM     24  C   UNL     1       1.136   9.478  19.045  0.00  0.00    +0.000 A 
ATOM     25  C   UNL     1       0.215   9.557  17.994  0.00  0.00    +0.000 A 
ATOM     26  C   UNL     1      -0.955  10.302  18.142  0.00  0.00    +0.000 A 
ATOM     27  C   UNL     1      -1.241  10.909  19.364  0.00  0.00    +0.000 A 
ATOM     28  C   UNL     1      -0.362  10.753  20.436  0.00  0.00    +0.000 A 
ATOM     29 BR   UNL     1      -0.788  11.523  22.109  0.00  0.00    +0.000 Br
ATOM     30  C   UNL     1       0.827  10.040  20.284  0.00  0.00    +0.000 A 
ENDBRANCH  23  24
ENDBRANCH  10  23
TORSDOF 5
ENDMDL
MODEL 5
REMARK VINA RESULT:      -8.6      1.189      1.710
REMARK  Name = 
REMARK  5 active torsions:
REMARK  status: ('A' for Active; 'I' for Inactive)
REMARK    1  A    between atoms: C_2  and  O_3
REMARK    2  A    between atoms: C_2  and  C_24
REMARK    3  A    between atoms: O_3  and  C_4
REMARK    4  A    between atoms: C_13  and  O_14
REMARK    5  A    between atoms: O_14  and  C_15
REMARK                            x       y       z     vdW  Elec       q    Type
REMARK                         _______ _______ _______ _____ _____    ______ ____
ROOT
ATOM      1  C   UNL     1       3.992   4.564  17.809  0.00  0.00    +0.000 C 
ATOM      2  C   UNL     1       4.387   3.281  17.821  0.00  0.00    +0.000 C 
ATOM      3  S   UNL     1       3.883   2.238  19.088  0.00  0.00    +0.000 S 
ATOM      4  O   UNL     1       4.878   2.240  20.139  0.00  0.00    +0.000 OA
ATOM      5  O   UNL     1       3.443   0.983  18.518  0.00  0.00    +0.000 OA
ATOM      6  N   UNL     1       2.503   2.938  19.760  0.00  0.00    +0.000 N 
ATOM      7  C   UNL     1       2.473   4.367  19.815  0.00  0.00    +0.000 A 
ATOM      8  C   UNL     1       1.580   4.943  20.723  0.00  0.00    +0.000 A 
ATOM      9  C   UNL     1       1.356   6.319  20.715  0.00  0.00    +0.000 A 
ATOM     10  C   UNL     1       2.058   7.135  19.829  0.00  0.00    +0.000 A 
ATOM     11  C   UNL     1       2.906   6.554  18.881  0.00  0.00    +0.000 A 
ATOM     12  C   UNL     1       3.114   5.162  18.842  0.00  0.00    +0.000 A 
ATOM     13  H   UNL     1       2.297   2.475  20.647  0.00  0.00    +0.000 HD
ENDROOT
BRANCH   1  14
ATOM     14  O   UNL     1       4.305   5.422  16.721  0.00  0.00    +0.000 OA
BRANCH  14  16
ATOM     15  O   UNL     1       5.923   4.816  15.186  0.00  0.00    +0.000 OA
ATOM     16  C   UNL     1       5.572   5.377  16.218  0.00  0.00    +0.000 C 
BRANCH  16  17
ATOM     17  C   UNL     1       6.515   6.126  17.098  0.00  0.00    +0.000 A 
ATOM     18  C   UNL     1       7.137   5.429  18.143  0.00  0.00    +0.000 A 
ATOM     19  C   UNL     1       8.058   6.072  18.974  0.00  0.00    +0.000 A 
ATOM     20  C   UNL     1       8.365   7.415  18.768  0.00  0.00    +0.000 A 
ATOM     21  C   UNL     1       7.745   8.121  17.737  0.00  0.00    +0.000 A 
ATOM     22  C   UNL     1       6.820   7.482  16.903  0.00  0.00    +0.000 A 
ENDBRANCH  16  17
ENDBRANCH  14  16
ENDBRANCH   1  14
BRANCH  10  23
ATOM     23  O   UNL     1       1.937   8.508  19.776  0.00  0.00    +0.000 OA
BRANCH  23  24
ATOM     24  C   UNL     1       1.149   9.150  20.706  0.00  0.00    +0.000 A 
ATOM     25  C   UNL     1       1.218   8.895  22.081  0.00  0.00    +0.000 A 
ATOM     26  C   UNL     1       0.330   9.521  22.955  0.00  0.00    +0.000 A 
ATOM     27  C   UNL     1      -0.580  10.457  22.467  0.00  0.00    +0.000 A 
ATOM     28  C   UNL     1      -0.584  10.774  21.108  0.00  0.00    +0.000 A 
ATOM     29 BR   UNL     1      -1.775  12.094  20.464  0.00  0.00    +0.000 Br
ATOM     30  C   UNL     1       0.276  10.125  20.223  0.00  0.00    +0.000 A 
ENDBRANCH  23  24
ENDBRANCH  10  23
TORSDOF 5
ENDMDL
MODEL 6
REMARK VINA RESULT:      -8.5      2.545      4.727
REMARK  Name = 
REMARK  5 active torsions:
REMARK  status: ('A' for Active; 'I' for Inactive)
REMARK    1  A    between atoms: C_2  and  O_3
REMARK    2  A    between atoms: C_2  and  C_24
REMARK    3  A    between atoms: O_3  and  C_4
REMARK    4  A    between atoms: C_13  and  O_14
REMARK    5  A    between atoms: O_14  and  C_15
REMARK                            x       y       z     vdW  Elec       q    Type
REMARK                         _______ _______ _______ _____ _____    ______ ____
ROOT
ATOM      1  C   UNL     1       5.239   4.496  18.408  0.00  0.00    +0.000 C 
ATOM      2  C   UNL     1       6.054   3.997  17.467  0.00  0.00    +0.000 C 
ATOM      3  S   UNL     1       6.178   4.768  15.939  0.00  0.00    +0.000 S 
ATOM      4  O   UNL     1       5.239   4.167  15.016  0.00  0.00    +0.000 OA
ATOM      5  O   UNL     1       7.575   4.871  15.576  0.00  0.00    +0.000 OA
ATOM      6  N   UNL     1       5.652   6.355  16.163  0.00  0.00    +0.000 N 
ATOM      7  C   UNL     1       4.583   6.548  17.093  0.00  0.00    +0.000 A 
ATOM      8  C   UNL     1       3.859   7.739  16.982  0.00  0.00    +0.000 A 
ATOM      9  C   UNL     1       2.924   8.089  17.954  0.00  0.00    +0.000 A 
ATOM     10  C   UNL     1       2.671   7.229  19.022  0.00  0.00    +0.000 A 
ATOM     11  C   UNL     1       3.437   6.068  19.166  0.00  0.00    +0.000 A 
ATOM     12  C   UNL     1       4.418   5.716  18.219  0.00  0.00    +0.000 A 
ATOM     13  H   UNL     1       5.501   6.784  15.248  0.00  0.00    +0.000 HD
ENDROOT
BRANCH   1  14
ATOM     14  O   UNL     1       5.193   3.942  19.717  0.00  0.00    +0.000 OA
BRANCH  14  16
ATOM     15  O   UNL     1       5.302   1.657  20.043  0.00  0.00    +0.000 OA
ATOM     16  C   UNL     1       4.670   2.692  19.861  0.00  0.00    +0.000 C 
BRANCH  16  17
ATOM     17  C   UNL     1       3.182   2.731  19.777  0.00  0.00    +0.000 A 
ATOM     18  C   UNL     1       2.470   3.205  20.888  0.00  0.00    +0.000 A 
ATOM     19  C   UNL     1       1.077   3.299  20.850  0.00  0.00    +0.000 A 
ATOM     20  C   UNL     1       0.383   2.920  19.703  0.00  0.00    +0.000 A 
ATOM     21  C   UNL     1       1.079   2.437  18.595  0.00  0.00    +0.000 A 
ATOM     22  C   UNL     1       2.475   2.340  18.629  0.00  0.00    +0.000 A 
ENDBRANCH  16  17
ENDBRANCH  14  16
ENDBRANCH   1  14
BRANCH  10  23
ATOM     23  O   UNL     1       1.736   7.468  20.007  0.00  0.00    +0.000 OA
BRANCH  23  24
ATOM     24  C   UNL     1       1.111   8.694  20.057  0.00  0.00    +0.000 A 
ATOM     25  C   UNL     1       1.047   9.571  18.968  0.00  0.00    +0.000 A 
ATOM     26  C   UNL     1       0.471  10.832  19.116  0.00  0.00    +0.000 A 
ATOM     27  C   UNL     1      -0.108  11.192  20.332  0.00  0.00    +0.000 A 
ATOM     28  C   UNL     1      -0.122  10.280  21.387  0.00  0.00    +0.000 A 
ATOM     29 BR   UNL     1      -0.968  10.749  23.013  0.00  0.00    +0.000 Br
ATOM     30  C   UNL     1       0.485   9.031  21.258  0.00  0.00    +0.000 A 
ENDBRANCH  23  24
ENDBRANCH  10  23
TORSDOF 5
ENDMDL
MODEL 7
REMARK VINA RESULT:      -8.4      2.313      4.604
REMARK  Name = 
REMARK  5 active torsions:
REMARK  status: ('A' for Active; 'I' for Inactive)
REMARK    1  A    between atoms: C_2  and  O_3
REMARK    2  A    between atoms: C_2  and  C_24
REMARK    3  A    between atoms: O_3  and  C_4
REMARK    4  A    between atoms: C_13  and  O_14
REMARK    5  A    between atoms: O_14  and  C_15
REMARK                            x       y       z     vdW  Elec       q    Type
REMARK                         _______ _______ _______ _____ _____    ______ ____
ROOT
ATOM      1  C   UNL     1       5.203   4.513  18.557  0.00  0.00    +0.000 C 
ATOM      2  C   UNL     1       6.050   4.124  17.593  0.00  0.00    +0.000 C 
ATOM      3  S   UNL     1       6.133   4.997  16.117  0.00  0.00    +0.000 S 
ATOM      4  O   UNL     1       5.235   4.401  15.151  0.00  0.00    +0.000 OA
ATOM      5  O   UNL     1       7.523   5.206  15.772  0.00  0.00    +0.000 OA
ATOM      6  N   UNL     1       5.512   6.532  16.438  0.00  0.00    +0.000 N 
ATOM      7  C   UNL     1       4.430   6.602  17.370  0.00  0.00    +0.000 A 
ATOM      8  C   UNL     1       3.636   7.752  17.329  0.00  0.00    +0.000 A 
ATOM      9  C   UNL     1       2.679   7.983  18.315  0.00  0.00    +0.000 A 
ATOM     10  C   UNL     1       2.474   7.044  19.325  0.00  0.00    +0.000 A 
ATOM     11  C   UNL     1       3.308   5.923  19.401  0.00  0.00    +0.000 A 
ATOM     12  C   UNL     1       4.311   5.692  18.440  0.00  0.00    +0.000 A 
ATOM     13  H   UNL     1       5.339   7.010  15.551  0.00  0.00    +0.000 HD
ENDROOT
BRANCH   1  14
ATOM     14  O   UNL     1       5.187   3.875  19.828  0.00  0.00    +0.000 OA
BRANCH  14  16
ATOM     15  O   UNL     1       5.310   1.576  20.021  0.00  0.00    +0.000 OA
ATOM     16  C   UNL     1       4.671   2.616  19.900  0.00  0.00    +0.000 C 
BRANCH  16  17
ATOM     17  C   UNL     1       3.182   2.650  19.823  0.00  0.00    +0.000 A 
ATOM     18  C   UNL     1       2.470   3.036  20.968  0.00  0.00    +0.000 A 
ATOM     19  C   UNL     1       1.076   3.122  20.940  0.00  0.00    +0.000 A 
ATOM     20  C   UNL     1       0.382   2.825  19.769  0.00  0.00    +0.000 A 
ATOM     21  C   UNL     1       1.079   2.431  18.627  0.00  0.00    +0.000 A 
ATOM     22  C   UNL     1       2.475   2.341  18.651  0.00  0.00    +0.000 A 
ENDBRANCH  16  17
ENDBRANCH  14  16
ENDBRANCH   1  14
BRANCH  10  23
ATOM     23  O   UNL     1       1.523   7.162  20.316  0.00  0.00    +0.000 OA
BRANCH  23  24
ATOM     24  C   UNL     1       1.114   8.419  20.707  0.00  0.00    +0.000 A 
ATOM     25  C   UNL     1       1.235   8.895  22.018  0.00  0.00    +0.000 A 
ATOM     26  C   UNL     1       0.721  10.146  22.359  0.00  0.00    +0.000 A 
ATOM     27  C   UNL     1       0.151  10.954  21.376  0.00  0.00    +0.000 A 
ATOM     28  C   UNL     1       0.114  10.511  20.054  0.00  0.00    +0.000 A 
ATOM     29 BR   UNL     1      -0.600  11.639  18.714  0.00  0.00    +0.000 Br
ATOM     30  C   UNL     1       0.593   9.246  19.712  0.00  0.00    +0.000 A 
ENDBRANCH  23  24
ENDBRANCH  10  23
TORSDOF 5
ENDMDL
MODEL 8
REMARK VINA RESULT:      -8.3      1.953      2.987
REMARK  Name = 
REMARK  5 active torsions:
REMARK  status: ('A' for Active; 'I' for Inactive)
REMARK    1  A    between atoms: C_2  and  O_3
REMARK    2  A    between atoms: C_2  and  C_24
REMARK    3  A    between atoms: O_3  and  C_4
REMARK    4  A    between atoms: C_13  and  O_14
REMARK    5  A    between atoms: O_14  and  C_15
REMARK                            x       y       z     vdW  Elec       q    Type
REMARK                         _______ _______ _______ _____ _____    ______ ____
ROOT
ATOM      1  C   UNL     1       4.266   4.724  17.245  0.00  0.00    +0.000 C 
ATOM      2  C   UNL     1       4.602   3.461  17.549  0.00  0.00    +0.000 C 
ATOM      3  S   UNL     1       4.120   2.780  19.049  0.00  0.00    +0.000 S 
ATOM      4  O   UNL     1       5.169   2.975  20.028  0.00  0.00    +0.000 OA
ATOM      5  O   UNL     1       3.594   1.452  18.816  0.00  0.00    +0.000 OA
ATOM      6  N   UNL     1       2.811   3.696  19.588  0.00  0.00    +0.000 N 
ATOM      7  C   UNL     1       2.848   5.097  19.300  0.00  0.00    +0.000 A 
ATOM      8  C   UNL     1       2.031   5.922  20.078  0.00  0.00    +0.000 A 
ATOM      9  C   UNL     1       1.870   7.266  19.748  0.00  0.00    +0.000 A 
ATOM     10  C   UNL     1       2.559   7.808  18.665  0.00  0.00    +0.000 A 
ATOM     11  C   UNL     1       3.329   6.970  17.850  0.00  0.00    +0.000 A 
ATOM     12  C   UNL     1       3.471   5.599  18.139  0.00  0.00    +0.000 A 
ATOM     13  H   UNL     1       2.632   3.470  20.569  0.00  0.00    +0.000 HD
ENDROOT
BRANCH   1  14
ATOM     14  O   UNL     1       4.559   5.280  15.970  0.00  0.00    +0.000 OA
BRANCH  14  16
ATOM     15  O   UNL     1       6.616   6.250  16.382  0.00  0.00    +0.000 OA
ATOM     16  C   UNL     1       5.860   5.577  15.689  0.00  0.00    +0.000 C 
BRANCH  16  17
ATOM     17  C   UNL     1       6.274   4.958  14.398  0.00  0.00    +0.000 A 
ATOM     18  C   UNL     1       5.446   3.973  13.842  0.00  0.00    +0.000 A 
ATOM     19  C   UNL     1       5.767   3.386  12.615  0.00  0.00    +0.000 A 
ATOM     20  C   UNL     1       6.917   3.778  11.934  0.00  0.00    +0.000 A 
ATOM     21  C   UNL     1       7.754   4.750  12.483  0.00  0.00    +0.000 A 
ATOM     22  C   UNL     1       7.438   5.339  13.712  0.00  0.00    +0.000 A 
ENDBRANCH  16  17
ENDBRANCH  14  16
ENDBRANCH   1  14
BRANCH  10  23
ATOM     23  O   UNL     1       2.498   9.133  18.288  0.00  0.00    +0.000 OA
BRANCH  23  24
ATOM     24  C   UNL     1       1.306   9.812  18.412  0.00  0.00    +0.000 A 
ATOM     25  C   UNL     1       0.121   9.409  17.784  0.00  0.00    +0.000 A 
ATOM     26  C   UNL     1      -1.028  10.193  17.887  0.00  0.00    +0.000 A 
ATOM     27  C   UNL     1      -1.016  11.343  18.675  0.00  0.00    +0.000 A 
ATOM     28  C   UNL     1       0.142  11.691  19.370  0.00  0.00    +0.000 A 
ATOM     29 BR   UNL     1       0.132  13.215  20.491  0.00  0.00    +0.000 Br
ATOM     30  C   UNL     1       1.305  10.932  19.244  0.00  0.00    +0.000 A 
ENDBRANCH  23  24
ENDBRANCH  10  23
TORSDOF 5
ENDMDL
MODEL 9
REMARK VINA RESULT:      -8.3      1.754      2.746
REMARK  Name = 
REMARK  5 active torsions:
REMARK  status: ('A' for Active; 'I' for Inactive)
REMARK    1  A    between atoms: C_2  and  O_3
REMARK    2  A    between atoms: C_2  and  C_24
REMARK    3  A    between atoms: O_3  and  C_4
REMARK    4  A    between atoms: C_13  and  O_14
REMARK    5  A    between atoms: O_14  and  C_15
REMARK                            x       y       z     vdW  Elec       q    Type
REMARK                         _______ _______ _______ _____ _____    ______ ____
ROOT
ATOM      1  C   UNL     1       4.141   4.560  17.775  0.00  0.00    +0.000 C 
ATOM      2  C   UNL     1       4.565   3.288  17.817  0.00  0.00    +0.000 C 
ATOM      3  S   UNL     1       4.050   2.251  19.085  0.00  0.00    +0.000 S 
ATOM      4  O   UNL     1       5.015   2.291  20.163  0.00  0.00    +0.000 OA
ATOM      5  O   UNL     1       3.656   0.978  18.520  0.00  0.00    +0.000 OA
ATOM      6  N   UNL     1       2.636   2.928  19.707  0.00  0.00    +0.000 N 
ATOM      7  C   UNL     1       2.571   4.356  19.740  0.00  0.00    +0.000 A 
ATOM      8  C   UNL     1       1.639   4.924  20.614  0.00  0.00    +0.000 A 
ATOM      9  C   UNL     1       1.384   6.293  20.580  0.00  0.00    +0.000 A 
ATOM     10  C   UNL     1       2.091   7.114  19.702  0.00  0.00    +0.000 A 
ATOM     11  C   UNL     1       2.979   6.539  18.787  0.00  0.00    +0.000 A 
ATOM     12  C   UNL     1       3.220   5.152  18.774  0.00  0.00    +0.000 A 
ATOM     13  H   UNL     1       2.416   2.472  20.595  0.00  0.00    +0.000 HD
ENDROOT
BRANCH   1  14
ATOM     14  O   UNL     1       4.465   5.411  16.683  0.00  0.00    +0.000 OA
BRANCH  14  16
ATOM     15  O   UNL     1       6.640   6.081  17.084  0.00  0.00    +0.000 OA
ATOM     16  C   UNL     1       5.782   5.572  16.370  0.00  0.00    +0.000 C 
BRANCH  16  17
ATOM     17  C   UNL     1       6.071   5.029  15.012  0.00  0.00    +0.000 A 
ATOM     18  C   UNL     1       7.272   5.404  14.393  0.00  0.00    +0.000 A 
ATOM     19  C   UNL     1       7.612   4.895  13.137  0.00  0.00    +0.000 A 
ATOM     20  C   UNL     1       6.754   4.008  12.489  0.00  0.00    +0.000 A 
ATOM     21  C   UNL     1       5.553   3.636  13.091  0.00  0.00    +0.000 A 
ATOM     22  C   UNL     1       5.207   4.144  14.348  0.00  0.00    +0.000 A 
ENDBRANCH  16  17
ENDBRANCH  14  16
ENDBRANCH   1  14
BRANCH  10  23
ATOM     23  O   UNL     1       1.940   8.482  19.626  0.00  0.00    +0.000 OA
BRANCH  23  24
ATOM     24  C   UNL     1       1.168   9.127  20.568  0.00  0.00    +0.000 A 
ATOM     25  C   UNL     1       1.245   8.859  21.939  0.00  0.00    +0.000 A 
ATOM     26  C   UNL     1       0.372   9.490  22.826  0.00  0.00    +0.000 A 
ATOM     27  C   UNL     1      -0.529  10.443  22.353  0.00  0.00    +0.000 A 
ATOM     28  C   UNL     1      -0.539  10.771  20.997  0.00  0.00    +0.000 A 
ATOM     29 BR   UNL     1      -1.717  12.112  20.373  0.00  0.00    +0.000 Br
ATOM     30  C   UNL     1       0.305  10.118  20.100  0.00  0.00    +0.000 A 
ENDBRANCH  23  24
ENDBRANCH  10  23
TORSDOF 5
ENDMDL
