MODEL 1
REMARK VINA RESULT:      -9.1      0.000      0.000
REMARK  Name = 
REMARK  3 active torsions:
REMARK  status: ('A' for Active; 'I' for Inactive)
REMARK    1  A    between atoms: C_1  and  N_2
REMARK    2  A    between atoms: C_7  and  C_8
REMARK    3  A    between atoms: N_14  and  C_15
REMARK                            x       y       z     vdW  Elec       q    Type
REMARK                         _______ _______ _______ _____ _____    ______ ____
ROOT
ATOM      1  C   UNL     1       2.482   6.770  19.424  0.00  0.00    +0.000 A 
ATOM      2  C   UNL     1       2.606   5.594  20.204  0.00  0.00    +0.000 A 
ATOM      3  C   UNL     1       3.343   4.469  19.788  0.00  0.00    +0.000 A 
ATOM      4  C   UNL     1       3.939   4.574  18.542  0.00  0.00    +0.000 A 
ATOM      5  O   UNL     1       4.692   3.643  17.887  0.00  0.00    +0.000 OA
ATOM      6  C   UNL     1       5.030   4.262  16.710  0.00  0.00    +0.000 A 
ATOM      7  N   UNL     1       5.764   3.527  15.857  0.00  0.00    +0.000 N 
ATOM      8  N   UNL     1       4.552   5.482  16.581  0.00  0.00    +0.000 NA
ATOM      9  C   UNL     1       3.855   5.690  17.734  0.00  0.00    +0.000 A 
ATOM     10  C   UNL     1       3.128   6.803  18.170  0.00  0.00    +0.000 A 
ATOM     11  H   UNL     1       5.932   2.561  16.101  0.00  0.00    +0.000 HD
ENDROOT
BRANCH   1  18
ATOM     12  C   UNL     1      -0.797  12.451  20.994  0.00  0.00    +0.000 C 
ATOM     13  N   UNL     1      -0.422  11.153  21.509  0.00  0.00    +0.000 N 
ATOM     14  C   UNL     1      -0.710  10.700  22.769  0.00  0.00    +0.000 A 
ATOM     15  C   UNL     1      -0.167   9.441  22.897  0.00  0.00    +0.000 A 
ATOM     16  C   UNL     1       0.470   9.118  21.669  0.00  0.00    +0.000 A 
ATOM     17  C   UNL     1       1.193   7.995  21.212  0.00  0.00    +0.000 A 
ATOM     18  C   UNL     1       1.708   7.945  19.901  0.00  0.00    +0.000 A 
ATOM     19  C   UNL     1       1.477   9.055  19.069  0.00  0.00    +0.000 A 
ATOM     20  C   UNL     1       0.782  10.194  19.501  0.00  0.00    +0.000 A 
ATOM     21  C   UNL     1       0.285  10.199  20.808  0.00  0.00    +0.000 A 
ENDBRANCH   1  18
BRANCH   7  22
ATOM     22  C   UNL     1       6.267   3.950  14.614  0.00  0.00    +0.000 A 
ATOM     23  C   UNL     1       5.867   3.385  13.397  0.00  0.00    +0.000 A 
ATOM     24  C   UNL     1       6.467   3.806  12.223  0.00  0.00    +0.000 A 
ATOM     25  N   UNL     1       7.442   4.735  12.171  0.00  0.00    +0.000 NA
ATOM     26  C   UNL     1       7.831   5.261  13.350  0.00  0.00    +0.000 A 
ATOM     27  C   UNL     1       7.280   4.909  14.574  0.00  0.00    +0.000 A 
ENDBRANCH   7  22
TORSDOF 2
ENDMDL
MODEL 2
REMARK VINA RESULT:      -8.7      0.480      1.483
REMARK  Name = 
REMARK  3 active torsions:
REMARK  status: ('A' for Active; 'I' for Inactive)
REMARK    1  A    between atoms: C_1  and  N_2
REMARK    2  A    between atoms: C_7  and  C_8
REMARK    3  A    between atoms: N_14  and  C_15
REMARK                            x       y       z     vdW  Elec       q    Type
REMARK                         _______ _______ _______ _____ _____    ______ ____
ROOT
ATOM      1  C   UNL     1       2.506   6.769  19.367  0.00  0.00    +0.000 A 
ATOM      2  C   UNL     1       2.607   5.583  20.135  0.00  0.00    +0.000 A 
ATOM      3  C   UNL     1       3.332   4.453  19.714  0.00  0.00    +0.000 A 
ATOM      4  C   UNL     1       3.940   4.563  18.475  0.00  0.00    +0.000 A 
ATOM      5  O   UNL     1       4.687   3.628  17.816  0.00  0.00    +0.000 OA
ATOM      6  C   UNL     1       5.043   4.254  16.649  0.00  0.00    +0.000 A 
ATOM      7  N   UNL     1       5.774   3.518  15.794  0.00  0.00    +0.000 N 
ATOM      8  N   UNL     1       4.583   5.482  16.528  0.00  0.00    +0.000 NA
ATOM      9  C   UNL     1       3.879   5.688  17.678  0.00  0.00    +0.000 A 
ATOM     10  C   UNL     1       3.163   6.806  18.118  0.00  0.00    +0.000 A 
ATOM     11  H   UNL     1       5.926   2.547  16.029  0.00  0.00    +0.000 HD
ENDROOT
BRANCH   1  18
ATOM     12  C   UNL     1      -1.119  11.731  22.147  0.00  0.00    +0.000 C 
ATOM     13  N   UNL     1      -0.441  11.336  20.932  0.00  0.00    +0.000 N 
ATOM     14  C   UNL     1      -0.411  12.074  19.779  0.00  0.00    +0.000 A 
ATOM     15  C   UNL     1       0.301  11.360  18.841  0.00  0.00    +0.000 A 
ATOM     16  C   UNL     1       0.720  10.146  19.450  0.00  0.00    +0.000 A 
ATOM     17  C   UNL     1       1.457   9.031  18.994  0.00  0.00    +0.000 A 
ATOM     18  C   UNL     1       1.744   7.949  19.849  0.00  0.00    +0.000 A 
ATOM     19  C   UNL     1       1.268   8.022  21.171  0.00  0.00    +0.000 A 
ATOM     20  C   UNL     1       0.515   9.105  21.647  0.00  0.00    +0.000 A 
ATOM     21  C   UNL     1       0.257  10.159  20.764  0.00  0.00    +0.000 A 
ENDBRANCH   1  18
BRANCH   7  22
ATOM     22  C   UNL     1       6.293   3.947  14.560  0.00  0.00    +0.000 A 
ATOM     23  C   UNL     1       5.929   3.370  13.337  0.00  0.00    +0.000 A 
ATOM     24  C   UNL     1       6.544   3.799  12.174  0.00  0.00    +0.000 A 
ATOM     25  N   UNL     1       7.502   4.746  12.137  0.00  0.00    +0.000 NA
ATOM     26  C   UNL     1       7.857   5.283  13.322  0.00  0.00    +0.000 A 
ATOM     27  C   UNL     1       7.288   4.924  14.536  0.00  0.00    +0.000 A 
ENDBRANCH   7  22
TORSDOF 2
ENDMDL
MODEL 3
REMARK VINA RESULT:      -8.5      1.066      1.657
REMARK  Name = 
REMARK  3 active torsions:
REMARK  status: ('A' for Active; 'I' for Inactive)
REMARK    1  A    between atoms: C_1  and  N_2
REMARK    2  A    between atoms: C_7  and  C_8
REMARK    3  A    between atoms: N_14  and  C_15
REMARK                            x       y       z     vdW  Elec       q    Type
REMARK                         _______ _______ _______ _____ _____    ______ ____
ROOT
ATOM      1  C   UNL     1       1.673   7.411  20.181  0.00  0.00    +0.000 A 
ATOM      2  C   UNL     1       1.519   6.253  20.982  0.00  0.00    +0.000 A 
ATOM      3  C   UNL     1       2.161   5.032  20.704  0.00  0.00    +0.000 A 
ATOM      4  C   UNL     1       2.957   5.023  19.571  0.00  0.00    +0.000 A 
ATOM      5  O   UNL     1       3.680   3.984  19.056  0.00  0.00    +0.000 OA
ATOM      6  C   UNL     1       4.278   4.518  17.944  0.00  0.00    +0.000 A 
ATOM      7  N   UNL     1       5.038   3.671  17.229  0.00  0.00    +0.000 N 
ATOM      8  N   UNL     1       3.988   5.784  17.726  0.00  0.00    +0.000 NA
ATOM      9  C   UNL     1       3.148   6.114  18.748  0.00  0.00    +0.000 A 
ATOM     10  C   UNL     1       2.511   7.323  19.048  0.00  0.00    +0.000 A 
ATOM     11  H   UNL     1       5.039   2.700  17.507  0.00  0.00    +0.000 HD
ENDROOT
BRANCH   1  18
ATOM     12  C   UNL     1      -1.085  13.494  21.111  0.00  0.00    +0.000 C 
ATOM     13  N   UNL     1      -0.923  12.193  21.721  0.00  0.00    +0.000 N 
ATOM     14  C   UNL     1      -1.402  11.844  22.956  0.00  0.00    +0.000 A 
ATOM     15  C   UNL     1      -1.026  10.542  23.200  0.00  0.00    +0.000 A 
ATOM     16  C   UNL     1      -0.295  10.084  22.071  0.00  0.00    +0.000 A 
ATOM     17  C   UNL     1       0.340   8.866  21.750  0.00  0.00    +0.000 A 
ATOM     18  C   UNL     1       0.991   8.687  20.513  0.00  0.00    +0.000 A 
ATOM     19  C   UNL     1       0.985   9.769  19.614  0.00  0.00    +0.000 A 
ATOM     20  C   UNL     1       0.382  10.999  19.912  0.00  0.00    +0.000 A 
ATOM     21  C   UNL     1      -0.256  11.130  21.150  0.00  0.00    +0.000 A 
ENDBRANCH   1  18
BRANCH   7  22
ATOM     22  C   UNL     1       5.783   3.988  16.080  0.00  0.00    +0.000 A 
ATOM     23  C   UNL     1       6.969   4.732  16.121  0.00  0.00    +0.000 A 
ATOM     24  C   UNL     1       7.601   5.067  14.937  0.00  0.00    +0.000 A 
ATOM     25  N   UNL     1       7.137   4.732  13.717  0.00  0.00    +0.000 NA
ATOM     26  C   UNL     1       5.986   4.029  13.688  0.00  0.00    +0.000 A 
ATOM     27  C   UNL     1       5.289   3.639  14.823  0.00  0.00    +0.000 A 
ENDBRANCH   7  22
TORSDOF 2
ENDMDL
MODEL 4
REMARK VINA RESULT:      -8.3      0.994      1.949
REMARK  Name = 
REMARK  3 active torsions:
REMARK  status: ('A' for Active; 'I' for Inactive)
REMARK    1  A    between atoms: C_1  and  N_2
REMARK    2  A    between atoms: C_7  and  C_8
REMARK    3  A    between atoms: N_14  and  C_15
REMARK                            x       y       z     vdW  Elec       q    Type
REMARK                         _______ _______ _______ _____ _____    ______ ____
ROOT
ATOM      1  C   UNL     1       1.956   7.074  20.096  0.00  0.00    +0.000 A 
ATOM      2  C   UNL     1       1.791   5.862  20.811  0.00  0.00    +0.000 A 
ATOM      3  C   UNL     1       2.395   4.651  20.423  0.00  0.00    +0.000 A 
ATOM      4  C   UNL     1       3.162   4.711  19.271  0.00  0.00    +0.000 A 
ATOM      5  O   UNL     1       3.844   3.698  18.660  0.00  0.00    +0.000 OA
ATOM      6  C   UNL     1       4.429   4.302  17.576  0.00  0.00    +0.000 A 
ATOM      7  N   UNL     1       5.148   3.494  16.778  0.00  0.00    +0.000 N 
ATOM      8  N   UNL     1       4.166   5.587  17.463  0.00  0.00    +0.000 NA
ATOM      9  C   UNL     1       3.361   5.857  18.529  0.00  0.00    +0.000 A 
ATOM     10  C   UNL     1       2.762   7.054  18.937  0.00  0.00    +0.000 A 
ATOM     11  H   UNL     1       5.131   2.505  16.981  0.00  0.00    +0.000 HD
ENDROOT
BRANCH   1  18
ATOM     12  C   UNL     1      -1.105  12.465  22.751  0.00  0.00    +0.000 C 
ATOM     13  N   UNL     1      -0.543  11.942  21.526  0.00  0.00    +0.000 N 
ATOM     14  C   UNL     1      -0.540  12.600  20.324  0.00  0.00    +0.000 A 
ATOM     15  C   UNL     1       0.052  11.775  19.395  0.00  0.00    +0.000 A 
ATOM     16  C   UNL     1       0.426  10.575  20.058  0.00  0.00    +0.000 A 
ATOM     17  C   UNL     1       1.047   9.380  19.635  0.00  0.00    +0.000 A 
ATOM     18  C   UNL     1       1.315   8.338  20.543  0.00  0.00    +0.000 A 
ATOM     19  C   UNL     1       0.938   8.531  21.884  0.00  0.00    +0.000 A 
ATOM     20  C   UNL     1       0.299   9.697  22.331  0.00  0.00    +0.000 A 
ATOM     21  C   UNL     1       0.056  10.708  21.396  0.00  0.00    +0.000 A 
ENDBRANCH   1  18
BRANCH   7  22
ATOM     22  C   UNL     1       5.873   3.881  15.637  0.00  0.00    +0.000 A 
ATOM     23  C   UNL     1       7.009   4.697  15.696  0.00  0.00    +0.000 A 
ATOM     24  C   UNL     1       7.620   5.096  14.520  0.00  0.00    +0.000 A 
ATOM     25  N   UNL     1       7.179   4.757  13.293  0.00  0.00    +0.000 NA
ATOM     26  C   UNL     1       6.074   3.985  13.247  0.00  0.00    +0.000 A 
ATOM     27  C   UNL     1       5.401   3.528  14.372  0.00  0.00    +0.000 A 
ENDBRANCH   7  22
TORSDOF 2
ENDMDL
MODEL 5
REMARK VINA RESULT:      -8.2      1.152      1.997
REMARK  Name = 
REMARK  3 active torsions:
REMARK  status: ('A' for Active; 'I' for Inactive)
REMARK    1  A    between atoms: C_1  and  N_2
REMARK    2  A    between atoms: C_7  and  C_8
REMARK    3  A    between atoms: N_14  and  C_15
REMARK                            x       y       z     vdW  Elec       q    Type
REMARK                         _______ _______ _______ _____ _____    ______ ____
ROOT
ATOM      1  C   UNL     1       1.630   7.317  20.360  0.00  0.00    +0.000 A 
ATOM      2  C   UNL     1       1.409   6.081  21.017  0.00  0.00    +0.000 A 
ATOM      3  C   UNL     1       2.020   4.877  20.619  0.00  0.00    +0.000 A 
ATOM      4  C   UNL     1       2.856   4.969  19.518  0.00  0.00    +0.000 A 
ATOM      5  O   UNL     1       3.561   3.971  18.910  0.00  0.00    +0.000 OA
ATOM      6  C   UNL     1       4.217   4.607  17.886  0.00  0.00    +0.000 A 
ATOM      7  N   UNL     1       4.973   3.820  17.103  0.00  0.00    +0.000 N 
ATOM      8  N   UNL     1       3.977   5.899  17.808  0.00  0.00    +0.000 NA
ATOM      9  C   UNL     1       3.112   6.140  18.834  0.00  0.00    +0.000 A 
ATOM     10  C   UNL     1       2.504   7.329  19.252  0.00  0.00    +0.000 A 
ATOM     11  H   UNL     1       4.932   2.824  17.266  0.00  0.00    +0.000 HD
ENDROOT
BRANCH   1  18
ATOM     12  C   UNL     1      -1.455  12.669  23.065  0.00  0.00    +0.000 C 
ATOM     13  N   UNL     1      -0.918  12.148  21.828  0.00  0.00    +0.000 N 
ATOM     14  C   UNL     1      -0.961  12.797  20.623  0.00  0.00    +0.000 A 
ATOM     15  C   UNL     1      -0.379  11.977  19.683  0.00  0.00    +0.000 A 
ATOM     16  C   UNL     1       0.035  10.788  20.343  0.00  0.00    +0.000 A 
ATOM     17  C   UNL     1       0.666   9.602  19.910  0.00  0.00    +0.000 A 
ATOM     18  C   UNL     1       0.979   8.571  20.817  0.00  0.00    +0.000 A 
ATOM     19  C   UNL     1       0.636   8.767  22.167  0.00  0.00    +0.000 A 
ATOM     20  C   UNL     1      -0.012   9.924  22.624  0.00  0.00    +0.000 A 
ATOM     21  C   UNL     1      -0.300  10.923  21.689  0.00  0.00    +0.000 A 
ENDBRANCH   1  18
BRANCH   7  22
ATOM     22  C   UNL     1       5.770   4.240  16.022  0.00  0.00    +0.000 A 
ATOM     23  C   UNL     1       5.531   3.846  14.700  0.00  0.00    +0.000 A 
ATOM     24  C   UNL     1       6.407   4.242  13.705  0.00  0.00    +0.000 A 
ATOM     25  N   UNL     1       7.508   4.986  13.928  0.00  0.00    +0.000 NA
ATOM     26  C   UNL     1       7.738   5.346  15.207  0.00  0.00    +0.000 A 
ATOM     27  C   UNL     1       6.909   5.006  16.267  0.00  0.00    +0.000 A 
ENDBRANCH   7  22
TORSDOF 2
ENDMDL
MODEL 6
REMARK VINA RESULT:      -8.1      4.071     10.077
REMARK  Name = 
REMARK  3 active torsions:
REMARK  status: ('A' for Active; 'I' for Inactive)
REMARK    1  A    between atoms: C_1  and  N_2
REMARK    2  A    between atoms: C_7  and  C_8
REMARK    3  A    between atoms: N_14  and  C_15
REMARK                            x       y       z     vdW  Elec       q    Type
REMARK                         _______ _______ _______ _____ _____    ______ ____
ROOT
ATOM      1  C   UNL     1       1.842   8.180  19.167  0.00  0.00    +0.000 A 
ATOM      2  C   UNL     1       2.205   8.967  18.046  0.00  0.00    +0.000 A 
ATOM      3  C   UNL     1       1.870  10.327  17.919  0.00  0.00    +0.000 A 
ATOM      4  C   UNL     1       1.138  10.861  18.967  0.00  0.00    +0.000 A 
ATOM      5  O   UNL     1       0.668  12.136  19.103  0.00  0.00    +0.000 OA
ATOM      6  C   UNL     1       0.025  12.121  20.315  0.00  0.00    +0.000 A 
ATOM      7  N   UNL     1      -0.562  13.276  20.675  0.00  0.00    +0.000 N 
ATOM      8  N   UNL     1       0.054  10.958  20.931  0.00  0.00    +0.000 NA
ATOM      9  C   UNL     1       0.753  10.150  20.085  0.00  0.00    +0.000 A 
ATOM     10  C   UNL     1       1.106   8.801  20.199  0.00  0.00    +0.000 A 
ATOM     11  H   UNL     1      -0.565  14.026  19.999  0.00  0.00    +0.000 HD
ENDROOT
BRANCH   1  18
ATOM     12  C   UNL     1       3.704   1.702  18.936  0.00  0.00    +0.000 C 
ATOM     13  N   UNL     1       3.126   2.708  19.799  0.00  0.00    +0.000 N 
ATOM     14  C   UNL     1       2.700   2.487  21.082  0.00  0.00    +0.000 A 
ATOM     15  C   UNL     1       2.188   3.670  21.565  0.00  0.00    +0.000 A 
ATOM     16  C   UNL     1       2.311   4.645  20.539  0.00  0.00    +0.000 A 
ATOM     17  C   UNL     1       1.959   6.009  20.443  0.00  0.00    +0.000 A 
ATOM     18  C   UNL     1       2.226   6.749  19.275  0.00  0.00    +0.000 A 
ATOM     19  C   UNL     1       2.854   6.079  18.210  0.00  0.00    +0.000 A 
ATOM     20  C   UNL     1       3.196   4.720  18.266  0.00  0.00    +0.000 A 
ATOM     21  C   UNL     1       2.916   4.025  19.447  0.00  0.00    +0.000 A 
ENDBRANCH   1  18
BRANCH   7  22
ATOM     22  C   UNL     1      -1.242  13.523  21.881  0.00  0.00    +0.000 A 
ATOM     23  C   UNL     1      -2.553  13.095  22.119  0.00  0.00    +0.000 A 
ATOM     24  C   UNL     1      -3.177  13.446  23.303  0.00  0.00    +0.000 A 
ATOM     25  N   UNL     1      -2.601  14.201  24.260  0.00  0.00    +0.000 NA
ATOM     26  C   UNL     1      -1.344  14.621  24.013  0.00  0.00    +0.000 A 
ATOM     27  C   UNL     1      -0.636  14.310  22.860  0.00  0.00    +0.000 A 
ENDBRANCH   7  22
TORSDOF 2
ENDMDL
MODEL 7
REMARK VINA RESULT:      -8.1      1.222      1.741
REMARK  Name = 
REMARK  3 active torsions:
REMARK  status: ('A' for Active; 'I' for Inactive)
REMARK    1  A    between atoms: C_1  and  N_2
REMARK    2  A    between atoms: C_7  and  C_8
REMARK    3  A    between atoms: N_14  and  C_15
REMARK                            x       y       z     vdW  Elec       q    Type
REMARK                         _______ _______ _______ _____ _____    ______ ____
ROOT
ATOM      1  C   UNL     1       1.461   7.801  20.231  0.00  0.00    +0.000 A 
ATOM      2  C   UNL     1       1.219   6.620  20.974  0.00  0.00    +0.000 A 
ATOM      3  C   UNL     1       1.828   5.386  20.680  0.00  0.00    +0.000 A 
ATOM      4  C   UNL     1       2.684   5.389  19.591  0.00  0.00    +0.000 A 
ATOM      5  O   UNL     1       3.393   4.343  19.073  0.00  0.00    +0.000 OA
ATOM      6  C   UNL     1       4.071   4.897  18.017  0.00  0.00    +0.000 A 
ATOM      7  N   UNL     1       4.836   4.048  17.309  0.00  0.00    +0.000 N 
ATOM      8  N   UNL     1       3.842   6.181  17.837  0.00  0.00    +0.000 NA
ATOM      9  C   UNL     1       2.961   6.504  18.826  0.00  0.00    +0.000 A 
ATOM     10  C   UNL     1       2.355   7.724  19.141  0.00  0.00    +0.000 A 
ATOM     11  H   UNL     1       4.784   3.068  17.546  0.00  0.00    +0.000 HD
ENDROOT
BRANCH   1  18
ATOM     12  C   UNL     1      -1.100  13.953  21.273  0.00  0.00    +0.000 C 
ATOM     13  N   UNL     1      -1.034  12.619  21.828  0.00  0.00    +0.000 N 
ATOM     14  C   UNL     1      -1.610  12.236  23.010  0.00  0.00    +0.000 A 
ATOM     15  C   UNL     1      -1.305  10.908  23.215  0.00  0.00    +0.000 A 
ATOM     16  C   UNL     1      -0.519  10.471  22.115  0.00  0.00    +0.000 A 
ATOM     17  C   UNL     1       0.086   9.241  21.778  0.00  0.00    +0.000 A 
ATOM     18  C   UNL     1       0.811   9.091  20.580  0.00  0.00    +0.000 A 
ATOM     19  C   UNL     1       0.911  10.212  19.736  0.00  0.00    +0.000 A 
ATOM     20  C   UNL     1       0.341  11.453  20.053  0.00  0.00    +0.000 A 
ATOM     21  C   UNL     1      -0.374  11.555  21.251  0.00  0.00    +0.000 A 
ENDBRANCH   1  18
BRANCH   7  22
ATOM     22  C   UNL     1       5.655   4.380  16.215  0.00  0.00    +0.000 A 
ATOM     23  C   UNL     1       5.352   4.016  14.897  0.00  0.00    +0.000 A 
ATOM     24  C   UNL     1       6.249   4.315  13.887  0.00  0.00    +0.000 A 
ATOM     25  N   UNL     1       7.428   4.935  14.090  0.00  0.00    +0.000 NA
ATOM     26  C   UNL     1       7.717   5.267  15.365  0.00  0.00    +0.000 A 
ATOM     27  C   UNL     1       6.875   5.017  16.440  0.00  0.00    +0.000 A 
ENDBRANCH   7  22
TORSDOF 2
ENDMDL
MODEL 8
REMARK VINA RESULT:      -8.0      3.260      5.035
REMARK  Name = 
REMARK  3 active torsions:
REMARK  status: ('A' for Active; 'I' for Inactive)
REMARK    1  A    between atoms: C_1  and  N_2
REMARK    2  A    between atoms: C_7  and  C_8
REMARK    3  A    between atoms: N_14  and  C_15
REMARK                            x       y       z     vdW  Elec       q    Type
REMARK                         _______ _______ _______ _____ _____    ______ ____
ROOT
ATOM      1  C   UNL     1       0.480  10.243  19.910  0.00  0.00    +0.000 A 
ATOM      2  C   UNL     1       1.123  10.923  18.846  0.00  0.00    +0.000 A 
ATOM      3  C   UNL     1       2.028  10.298  17.969  0.00  0.00    +0.000 A 
ATOM      4  C   UNL     1       2.271   8.958  18.218  0.00  0.00    +0.000 A 
ATOM      5  O   UNL     1       3.105   8.112  17.544  0.00  0.00    +0.000 OA
ATOM      6  C   UNL     1       2.960   6.915  18.198  0.00  0.00    +0.000 A 
ATOM      7  N   UNL     1       3.715   5.905  17.735  0.00  0.00    +0.000 N 
ATOM      8  N   UNL     1       2.119   6.949  19.211  0.00  0.00    +0.000 NA
ATOM      9  C   UNL     1       1.678   8.239  19.236  0.00  0.00    +0.000 A 
ATOM     10  C   UNL     1       0.772   8.874  20.091  0.00  0.00    +0.000 A 
ATOM     11  H   UNL     1       4.387   6.120  17.012  0.00  0.00    +0.000 HD
ENDROOT
BRANCH   1  18
ATOM     12  C   UNL     1      -3.710  12.873  24.494  0.00  0.00    +0.000 C 
ATOM     13  N   UNL     1      -3.334  12.939  23.100  0.00  0.00    +0.000 N 
ATOM     14  C   UNL     1      -3.929  13.748  22.168  0.00  0.00    +0.000 A 
ATOM     15  C   UNL     1      -3.321  13.510  20.956  0.00  0.00    +0.000 A 
ATOM     16  C   UNL     1      -2.318  12.524  21.161  0.00  0.00    +0.000 A 
ATOM     17  C   UNL     1      -1.394  11.882  20.309  0.00  0.00    +0.000 A 
ATOM     18  C   UNL     1      -0.482  10.931  20.808  0.00  0.00    +0.000 A 
ATOM     19  C   UNL     1      -0.529  10.646  22.185  0.00  0.00    +0.000 A 
ATOM     20  C   UNL     1      -1.450  11.251  23.053  0.00  0.00    +0.000 A 
ATOM     21  C   UNL     1      -2.334  12.192  22.514  0.00  0.00    +0.000 A 
ENDBRANCH   1  18
BRANCH   7  22
ATOM     22  C   UNL     1       3.713   4.580  18.208  0.00  0.00    +0.000 A 
ATOM     23  C   UNL     1       4.486   4.158  19.295  0.00  0.00    +0.000 A 
ATOM     24  C   UNL     1       4.487   2.820  19.649  0.00  0.00    +0.000 A 
ATOM     25  N   UNL     1       3.788   1.871  18.996  0.00  0.00    +0.000 NA
ATOM     26  C   UNL     1       3.059   2.286  17.940  0.00  0.00    +0.000 A 
ATOM     27  C   UNL     1       2.989   3.607  17.518  0.00  0.00    +0.000 A 
ENDBRANCH   7  22
TORSDOF 2
ENDMDL
MODEL 9
REMARK VINA RESULT:      -7.9      3.479     10.551
REMARK  Name = 
REMARK  3 active torsions:
REMARK  status: ('A' for Active; 'I' for Inactive)
REMARK    1  A    between atoms: C_1  and  N_2
REMARK    2  A    between atoms: C_7  and  C_8
REMARK    3  A    between atoms: N_14  and  C_15
REMARK                            x       y       z     vdW  Elec       q    Type
REMARK                         _______ _______ _______ _____ _____    ______ ____
ROOT
ATOM      1  C   UNL     1       1.597   9.471  18.779  0.00  0.00    +0.000 A 
ATOM      2  C   UNL     1       2.167  10.626  18.189  0.00  0.00    +0.000 A 
ATOM      3  C   UNL     1       1.552  11.891  18.223  0.00  0.00    +0.000 A 
ATOM      4  C   UNL     1       0.326  11.941  18.865  0.00  0.00    +0.000 A 
ATOM      5  O   UNL     1      -0.494  13.019  19.035  0.00  0.00    +0.000 OA
ATOM      6  C   UNL     1      -1.560  12.516  19.736  0.00  0.00    +0.000 A 
ATOM      7  N   UNL     1      -2.541  13.392  20.010  0.00  0.00    +0.000 N 
ATOM      8  N   UNL     1      -1.472  11.230  20.008  0.00  0.00    +0.000 NA
ATOM      9  C   UNL     1      -0.283  10.853  19.458  0.00  0.00    +0.000 A 
ATOM     10  C   UNL     1       0.349   9.606  19.425  0.00  0.00    +0.000 A 
ATOM     11  H   UNL     1      -2.466  14.315  19.608  0.00  0.00    +0.000 HD
ENDROOT
BRANCH   1  18
ATOM     12  C   UNL     1       4.503   3.406  19.284  0.00  0.00    +0.000 C 
ATOM     13  N   UNL     1       4.384   4.562  18.425  0.00  0.00    +0.000 N 
ATOM     14  C   UNL     1       5.033   4.716  17.228  0.00  0.00    +0.000 A 
ATOM     15  C   UNL     1       4.693   5.950  16.721  0.00  0.00    +0.000 A 
ATOM     16  C   UNL     1       3.803   6.566  17.643  0.00  0.00    +0.000 A 
ATOM     17  C   UNL     1       3.142   7.812  17.674  0.00  0.00    +0.000 A 
ATOM     18  C   UNL     1       2.282   8.153  18.737  0.00  0.00    +0.000 A 
ATOM     19  C   UNL     1       2.111   7.207  19.764  0.00  0.00    +0.000 A 
ATOM     20  C   UNL     1       2.771   5.970  19.772  0.00  0.00    +0.000 A 
ATOM     21  C   UNL     1       3.612   5.672  18.695  0.00  0.00    +0.000 A 
ENDBRANCH   1  18
BRANCH   7  22
ATOM     22  C   UNL     1      -3.710  13.129  20.747  0.00  0.00    +0.000 A 
ATOM     23  C   UNL     1      -3.784  13.277  22.137  0.00  0.00    +0.000 A 
ATOM     24  C   UNL     1      -4.948  12.924  22.796  0.00  0.00    +0.000 A 
ATOM     25  N   UNL     1      -6.036  12.423  22.180  0.00  0.00    +0.000 NA
ATOM     26  C   UNL     1      -5.949  12.269  20.843  0.00  0.00    +0.000 A 
ATOM     27  C   UNL     1      -4.828  12.605  20.097  0.00  0.00    +0.000 A 
ENDBRANCH   7  22
TORSDOF 2
ENDMDL
