MODEL 1
REMARK VINA RESULT:      -9.0      0.000      0.000
REMARK  Name = 
REMARK  5 active torsions:
REMARK  status: ('A' for Active; 'I' for Inactive)
REMARK    1  A    between atoms: C_2  and  C_4
REMARK    2  A    between atoms: C_7  and  N_8
REMARK    3  A    between atoms: N_8  and  C_9
REMARK    4  A    between atoms: C_14  and  C_15
REMARK    5  A    between atoms: C_19  and  C_20
REMARK                            x       y       z     vdW  Elec       q    Type
REMARK                         _______ _______ _______ _____ _____    ______ ____
ROOT
ATOM      1  N   UNL     1       2.358   6.647  19.962  0.00  0.00    +0.000 N 
ATOM      2  H   UNL     1       2.493   6.524  20.962  0.00  0.00    +0.000 HD
ENDROOT
BRANCH   1   6
ATOM      3  C   UNL     1       1.207  10.719  19.019  0.00  0.00    +0.000 A 
ATOM      4  C   UNL     1       1.773   9.849  18.073  0.00  0.00    +0.000 A 
ATOM      5  C   UNL     1       2.044   8.506  18.378  0.00  0.00    +0.000 A 
ATOM      6  C   UNL     1       1.860   7.987  19.661  0.00  0.00    +0.000 A 
ATOM      7  C   UNL     1       1.107   8.846  20.573  0.00  0.00    +0.000 A 
ATOM      8  C   UNL     1       0.595   8.484  21.818  0.00  0.00    +0.000 A 
ATOM      9  N   UNL     1      -0.136   9.274  22.646  0.00  0.00    +0.000 NA
ATOM     10  C   UNL     1      -0.366  10.520  22.222  0.00  0.00    +0.000 A 
ATOM     11  N   UNL     1       0.090  11.027  21.078  0.00  0.00    +0.000 NA
ATOM     12  C   UNL     1       0.795  10.217  20.249  0.00  0.00    +0.000 A 
BRANCH   3  14
ATOM     13  N   UNL     1      -0.124  12.662  18.206  0.00  0.00    +0.000 N 
ATOM     14  C   UNL     1       1.092  12.165  18.592  0.00  0.00    +0.000 C 
ATOM     15  O   UNL     1       2.063  12.915  18.613  0.00  0.00    +0.000 OA
ATOM     16  H   UNL     1      -0.185  13.628  17.911  0.00  0.00    +0.000 HD
ATOM     17  H   UNL     1      -0.936  12.062  18.117  0.00  0.00    +0.000 HD
ENDBRANCH   3  14
ENDBRANCH   1   6
BRANCH   1  18
ATOM     18  C   UNL     1       3.612   6.150  19.138  0.00  0.00    +0.000 C 
ATOM     19  C   UNL     1       4.208   4.934  19.872  0.00  0.00    +0.000 C 
ATOM     20  N   UNL     1       3.170   3.897  20.017  0.00  0.00    +0.000 NA
ATOM     21  C   UNL     1       2.614   3.434  18.743  0.00  0.00    +0.000 C 
ATOM     22  C   UNL     1       2.327   4.504  17.671  0.00  0.00    +0.000 C 
ATOM     23  C   UNL     1       3.413   5.595  17.631  0.00  0.00    +0.000 C 
ATOM     24  H   UNL     1       2.422   4.308  20.571  0.00  0.00    +0.000 HD
BRANCH  23  25
ATOM     25  C   UNL     1       4.747   5.028  16.959  0.00  0.00    +0.000 A 
ATOM     26  C   UNL     1       5.976   4.895  17.659  0.00  0.00    +0.000 A 
ATOM     27  C   UNL     1       7.193   4.596  17.028  0.00  0.00    +0.000 A 
ATOM     28  C   UNL     1       7.219   4.317  15.674  0.00  0.00    +0.000 A 
ATOM     29  C   UNL     1       6.018   4.318  14.953  0.00  0.00    +0.000 A 
ATOM     30  C   UNL     1       4.799   4.689  15.593  0.00  0.00    +0.000 A 
BRANCH  29  31
ATOM     31  C   UNL     1       6.038   3.917  13.495  0.00  0.00    +0.000 C 
ATOM     32  F   UNL     1       4.830   4.042  12.873  0.00  0.00    +0.000 F 
ATOM     33  F   UNL     1       6.906   4.671  12.766  0.00  0.00    +0.000 F 
ATOM     34  F   UNL     1       6.416   2.622  13.314  0.00  0.00    +0.000 F 
ENDBRANCH  29  31
ENDBRANCH  23  25
ENDBRANCH   1  18
TORSDOF 5
ENDMDL
MODEL 2
REMARK VINA RESULT:      -8.9      4.559      8.707
REMARK  Name = 
REMARK  5 active torsions:
REMARK  status: ('A' for Active; 'I' for Inactive)
REMARK    1  A    between atoms: C_2  and  C_4
REMARK    2  A    between atoms: C_7  and  N_8
REMARK    3  A    between atoms: N_8  and  C_9
REMARK    4  A    between atoms: C_14  and  C_15
REMARK    5  A    between atoms: C_19  and  C_20
REMARK                            x       y       z     vdW  Elec       q    Type
REMARK                         _______ _______ _______ _____ _____    ______ ____
ROOT
ATOM      1  N   UNL     1       1.813   7.923  20.766  0.00  0.00    +0.000 N 
ATOM      2  H   UNL     1       1.740   7.893  21.780  0.00  0.00    +0.000 HD
ENDROOT
BRANCH   1   6
ATOM      3  C   UNL     1       3.037   3.970  19.472  0.00  0.00    +0.000 A 
ATOM      4  C   UNL     1       2.091   4.180  20.488  0.00  0.00    +0.000 A 
ATOM      5  C   UNL     1       1.639   5.467  20.819  0.00  0.00    +0.000 A 
ATOM      6  C   UNL     1       2.175   6.613  20.228  0.00  0.00    +0.000 A 
ATOM      7  C   UNL     1       3.015   6.370  19.057  0.00  0.00    +0.000 A 
ATOM      8  C   UNL     1       3.482   7.329  18.158  0.00  0.00    +0.000 A 
ATOM      9  N   UNL     1       4.231   7.094  17.051  0.00  0.00    +0.000 NA
ATOM     10  C   UNL     1       4.558   5.820  16.820  0.00  0.00    +0.000 A 
ATOM     11  N   UNL     1       4.225   4.796  17.605  0.00  0.00    +0.000 NA
ATOM     12  C   UNL     1       3.452   5.043  18.692  0.00  0.00    +0.000 A 
BRANCH   3  14
ATOM     13  N   UNL     1       4.801   2.224  19.688  0.00  0.00    +0.000 N 
ATOM     14  C   UNL     1       3.524   2.547  19.315  0.00  0.00    +0.000 C 
ATOM     15  O   UNL     1       2.787   1.664  18.887  0.00  0.00    +0.000 OA
ATOM     16  H   UNL     1       5.118   1.271  19.567  0.00  0.00    +0.000 HD
ATOM     17  H   UNL     1       5.459   2.934  19.989  0.00  0.00    +0.000 HD
ENDBRANCH   3  14
ENDBRANCH   1   6
BRANCH   1  18
ATOM     18  C   UNL     1       0.571   8.645  20.110  0.00  0.00    +0.000 C 
ATOM     19  C   UNL     1      -0.628   8.483  21.064  0.00  0.00    +0.000 C 
ATOM     20  N   UNL     1      -0.277   9.034  22.385  0.00  0.00    +0.000 NA
ATOM     21  C   UNL     1       0.094  10.451  22.355  0.00  0.00    +0.000 C 
ATOM     22  C   UNL     1       0.988  10.919  21.190  0.00  0.00    +0.000 C 
ATOM     23  C   UNL     1       0.613  10.243  19.858  0.00  0.00    +0.000 C 
ATOM     24  H   UNL     1       0.516   8.494  22.725  0.00  0.00    +0.000 HD
BRANCH  23  25
ATOM     25  C   UNL     1      -0.750  10.854  19.289  0.00  0.00    +0.000 A 
ATOM     26  C   UNL     1      -1.535  11.802  20.000  0.00  0.00    +0.000 A 
ATOM     27  C   UNL     1      -2.825  12.185  19.605  0.00  0.00    +0.000 A 
ATOM     28  C   UNL     1      -3.355  11.708  18.420  0.00  0.00    +0.000 A 
ATOM     29  C   UNL     1      -2.580  10.861  17.617  0.00  0.00    +0.000 A 
ATOM     30  C   UNL     1      -1.296  10.427  18.065  0.00  0.00    +0.000 A 
BRANCH  29  31
ATOM     31  C   UNL     1      -3.124  10.421  16.277  0.00  0.00    +0.000 C 
ATOM     32  F   UNL     1      -2.475  10.973  15.211  0.00  0.00    +0.000 F 
ATOM     33  F   UNL     1      -3.035   9.074  16.103  0.00  0.00    +0.000 F 
ATOM     34  F   UNL     1      -4.437  10.739  16.116  0.00  0.00    +0.000 F 
ENDBRANCH  29  31
ENDBRANCH  23  25
ENDBRANCH   1  18
TORSDOF 5
ENDMDL
MODEL 3
REMARK VINA RESULT:      -8.3      2.430      2.897
REMARK  Name = 
REMARK  5 active torsions:
REMARK  status: ('A' for Active; 'I' for Inactive)
REMARK    1  A    between atoms: C_2  and  C_4
REMARK    2  A    between atoms: C_7  and  N_8
REMARK    3  A    between atoms: N_8  and  C_9
REMARK    4  A    between atoms: C_14  and  C_15
REMARK    5  A    between atoms: C_19  and  C_20
REMARK                            x       y       z     vdW  Elec       q    Type
REMARK                         _______ _______ _______ _____ _____    ______ ____
ROOT
ATOM      1  N   UNL     1       1.310   7.214  20.355  0.00  0.00    +0.000 N 
ATOM      2  H   UNL     1       1.208   6.955  21.333  0.00  0.00    +0.000 HD
ENDROOT
BRANCH   1   6
ATOM      3  C   UNL     1       0.815  11.475  19.731  0.00  0.00    +0.000 A 
ATOM      4  C   UNL     1       1.276  10.607  18.728  0.00  0.00    +0.000 A 
ATOM      5  C   UNL     1       1.332   9.219  18.925  0.00  0.00    +0.000 A 
ATOM      6  C   UNL     1       1.029   8.634  20.156  0.00  0.00    +0.000 A 
ATOM      7  C   UNL     1       0.383   9.522  21.120  0.00  0.00    +0.000 A 
ATOM      8  C   UNL     1      -0.220   9.145  22.320  0.00  0.00    +0.000 A 
ATOM      9  N   UNL     1      -0.852   9.969  23.194  0.00  0.00    +0.000 NA
ATOM     10  C   UNL     1      -0.878  11.264  22.871  0.00  0.00    +0.000 A 
ATOM     11  N   UNL     1      -0.312  11.786  21.783  0.00  0.00    +0.000 NA
ATOM     12  C   UNL     1       0.291  10.947  20.905  0.00  0.00    +0.000 A 
BRANCH   3  14
ATOM     13  N   UNL     1       1.794  13.728  20.152  0.00  0.00    +0.000 N 
ATOM     14  C   UNL     1       0.933  12.951  19.424  0.00  0.00    +0.000 C 
ATOM     15  O   UNL     1       0.294  13.465  18.511  0.00  0.00    +0.000 OA
ATOM     16  H   UNL     1       1.854  14.716  19.944  0.00  0.00    +0.000 HD
ATOM     17  H   UNL     1       2.294  13.355  20.951  0.00  0.00    +0.000 HD
ENDBRANCH   3  14
ENDBRANCH   1   6
BRANCH   1  18
ATOM     18  C   UNL     1       2.656   6.660  19.740  0.00  0.00    +0.000 C 
ATOM     19  C   UNL     1       2.980   5.325  20.437  0.00  0.00    +0.000 C 
ATOM     20  N   UNL     1       1.846   4.398  20.263  0.00  0.00    +0.000 NA
ATOM     21  C   UNL     1       1.523   4.115  18.862  0.00  0.00    +0.000 C 
ATOM     22  C   UNL     1       1.558   5.303  17.880  0.00  0.00    +0.000 C 
ATOM     23  C   UNL     1       2.721   6.268  18.171  0.00  0.00    +0.000 C 
ATOM     24  H   UNL     1       1.041   4.836  20.703  0.00  0.00    +0.000 HD
BRANCH  23  25
ATOM     25  C   UNL     1       4.108   5.622  17.712  0.00  0.00    +0.000 A 
ATOM     26  C   UNL     1       4.218   4.693  16.643  0.00  0.00    +0.000 A 
ATOM     27  C   UNL     1       5.389   3.969  16.370  0.00  0.00    +0.000 A 
ATOM     28  C   UNL     1       6.540   4.216  17.096  0.00  0.00    +0.000 A 
ATOM     29  C   UNL     1       6.523   5.206  18.087  0.00  0.00    +0.000 A 
ATOM     30  C   UNL     1       5.308   5.886  18.399  0.00  0.00    +0.000 A 
BRANCH  29  31
ATOM     31  C   UNL     1       7.808   5.540  18.811  0.00  0.00    +0.000 C 
ATOM     32  F   UNL     1       7.670   5.626  20.165  0.00  0.00    +0.000 F 
ATOM     33  F   UNL     1       8.775   4.606  18.599  0.00  0.00    +0.000 F 
ATOM     34  F   UNL     1       8.336   6.730  18.416  0.00  0.00    +0.000 F 
ENDBRANCH  29  31
ENDBRANCH  23  25
ENDBRANCH   1  18
TORSDOF 5
ENDMDL
MODEL 4
REMARK VINA RESULT:      -8.2      2.632      3.590
REMARK  Name = 
REMARK  5 active torsions:
REMARK  status: ('A' for Active; 'I' for Inactive)
REMARK    1  A    between atoms: C_2  and  C_4
REMARK    2  A    between atoms: C_7  and  N_8
REMARK    3  A    between atoms: N_8  and  C_9
REMARK    4  A    between atoms: C_14  and  C_15
REMARK    5  A    between atoms: C_19  and  C_20
REMARK                            x       y       z     vdW  Elec       q    Type
REMARK                         _______ _______ _______ _____ _____    ______ ____
ROOT
ATOM      1  N   UNL     1       1.164   6.495  20.433  0.00  0.00    +0.000 N 
ATOM      2  H   UNL     1       0.959   5.902  21.234  0.00  0.00    +0.000 HD
ENDROOT
BRANCH   1   6
ATOM      3  C   UNL     1       0.067  10.579  21.387  0.00  0.00    +0.000 A 
ATOM      4  C   UNL     1      -0.004   9.533  22.321  0.00  0.00    +0.000 A 
ATOM      5  C   UNL     1       0.451   8.242  22.016  0.00  0.00    +0.000 A 
ATOM      6  C   UNL     1       0.906   7.900  20.741  0.00  0.00    +0.000 A 
ATOM      7  C   UNL     1       1.143   9.030  19.845  0.00  0.00    +0.000 A 
ATOM      8  C   UNL     1       1.800   8.990  18.616  0.00  0.00    +0.000 A 
ATOM      9  N   UNL     1       2.051  10.050  17.805  0.00  0.00    +0.000 NA
ATOM     10  C   UNL     1       1.606  11.235  18.229  0.00  0.00    +0.000 A 
ATOM     11  N   UNL     1       0.926  11.431  19.358  0.00  0.00    +0.000 NA
ATOM     12  C   UNL     1       0.709  10.368  20.172  0.00  0.00    +0.000 A 
BRANCH   3  14
ATOM     13  N   UNL     1      -1.439  12.517  20.957  0.00  0.00    +0.000 N 
ATOM     14  C   UNL     1      -0.578  11.880  21.810  0.00  0.00    +0.000 C 
ATOM     15  O   UNL     1      -0.369  12.364  22.918  0.00  0.00    +0.000 OA
ATOM     16  H   UNL     1      -1.854  13.393  21.248  0.00  0.00    +0.000 HD
ATOM     17  H   UNL     1      -1.590  12.183  20.012  0.00  0.00    +0.000 HD
ENDBRANCH   3  14
ENDBRANCH   1   6
BRANCH   1  18
ATOM     18  C   UNL     1       2.568   6.150  19.796  0.00  0.00    +0.000 C 
ATOM     19  C   UNL     1       3.049   4.818  20.402  0.00  0.00    +0.000 C 
ATOM     20  N   UNL     1       2.036   3.777  20.154  0.00  0.00    +0.000 NA
ATOM     21  C   UNL     1       1.751   3.555  18.734  0.00  0.00    +0.000 C 
ATOM     22  C   UNL     1       1.643   4.803  17.836  0.00  0.00    +0.000 C 
ATOM     23  C   UNL     1       2.681   5.879  18.204  0.00  0.00    +0.000 C 
ATOM     24  H   UNL     1       1.183   4.084  20.616  0.00  0.00    +0.000 HD
BRANCH  23  25
ATOM     25  C   UNL     1       4.137   5.437  17.715  0.00  0.00    +0.000 A 
ATOM     26  C   UNL     1       4.364   4.665  16.544  0.00  0.00    +0.000 A 
ATOM     27  C   UNL     1       5.608   4.102  16.223  0.00  0.00    +0.000 A 
ATOM     28  C   UNL     1       6.712   4.369  17.011  0.00  0.00    +0.000 A 
ATOM     29  C   UNL     1       6.574   5.220  18.115  0.00  0.00    +0.000 A 
ATOM     30  C   UNL     1       5.289   5.731  18.468  0.00  0.00    +0.000 A 
BRANCH  29  31
ATOM     31  C   UNL     1       7.803   5.587  18.917  0.00  0.00    +0.000 C 
ATOM     32  F   UNL     1       7.581   5.658  20.261  0.00  0.00    +0.000 F 
ATOM     33  F   UNL     1       8.808   4.684  18.758  0.00  0.00    +0.000 F 
ATOM     34  F   UNL     1       8.317   6.796  18.561  0.00  0.00    +0.000 F 
ENDBRANCH  29  31
ENDBRANCH  23  25
ENDBRANCH   1  18
TORSDOF 5
ENDMDL
MODEL 5
REMARK VINA RESULT:      -8.2      5.671      9.537
REMARK  Name = 
REMARK  5 active torsions:
REMARK  status: ('A' for Active; 'I' for Inactive)
REMARK    1  A    between atoms: C_2  and  C_4
REMARK    2  A    between atoms: C_7  and  N_8
REMARK    3  A    between atoms: N_8  and  C_9
REMARK    4  A    between atoms: C_14  and  C_15
REMARK    5  A    between atoms: C_19  and  C_20
REMARK                            x       y       z     vdW  Elec       q    Type
REMARK                         _______ _______ _______ _____ _____    ______ ____
ROOT
ATOM      1  N   UNL     1       2.083   8.172  20.185  0.00  0.00    +0.000 N 
ATOM      2  H   UNL     1       2.346   8.349  21.152  0.00  0.00    +0.000 HD
ENDROOT
BRANCH   1   6
ATOM      3  C   UNL     1       3.156   4.056  19.348  0.00  0.00    +0.000 A 
ATOM      4  C   UNL     1       2.193   4.413  20.306  0.00  0.00    +0.000 A 
ATOM      5  C   UNL     1       1.793   5.746  20.487  0.00  0.00    +0.000 A 
ATOM      6  C   UNL     1       2.397   6.799  19.798  0.00  0.00    +0.000 A 
ATOM      7  C   UNL     1       3.257   6.398  18.686  0.00  0.00    +0.000 A 
ATOM      8  C   UNL     1       3.793   7.236  17.709  0.00  0.00    +0.000 A 
ATOM      9  N   UNL     1       4.560   6.854  16.656  0.00  0.00    +0.000 NA
ATOM     10  C   UNL     1       4.834   5.549  16.569  0.00  0.00    +0.000 A 
ATOM     11  N   UNL     1       4.432   4.630  17.445  0.00  0.00    +0.000 NA
ATOM     12  C   UNL     1       3.642   5.023  18.475  0.00  0.00    +0.000 A 
BRANCH   3  14
ATOM     13  N   UNL     1       4.869   2.278  19.683  0.00  0.00    +0.000 N 
ATOM     14  C   UNL     1       3.580   2.605  19.356  0.00  0.00    +0.000 C 
ATOM     15  O   UNL     1       2.784   1.706  19.103  0.00  0.00    +0.000 OA
ATOM     16  H   UNL     1       5.143   1.304  19.672  0.00  0.00    +0.000 HD
ATOM     17  H   UNL     1       5.572   2.992  19.838  0.00  0.00    +0.000 HD
ENDBRANCH   3  14
ENDBRANCH   1   6
BRANCH   1  18
ATOM     18  C   UNL     1       0.621   8.684  19.874  0.00  0.00    +0.000 C 
ATOM     19  C   UNL     1      -0.036   9.079  21.211  0.00  0.00    +0.000 C 
ATOM     20  N   UNL     1       0.797  10.095  21.880  0.00  0.00    +0.000 NA
ATOM     21  C   UNL     1       0.993  11.314  21.091  0.00  0.00    +0.000 C 
ATOM     22  C   UNL     1       1.258  11.138  19.582  0.00  0.00    +0.000 C 
ATOM     23  C   UNL     1       0.410  10.008  18.968  0.00  0.00    +0.000 C 
ATOM     24  H   UNL     1       1.703   9.664  22.050  0.00  0.00    +0.000 HD
BRANCH  23  25
ATOM     25  C   UNL     1      -1.113  10.471  18.825  0.00  0.00    +0.000 A 
ATOM     26  C   UNL     1      -1.999   9.943  17.848  0.00  0.00    +0.000 A 
ATOM     27  C   UNL     1      -3.265  10.486  17.583  0.00  0.00    +0.000 A 
ATOM     28  C   UNL     1      -3.746  11.528  18.355  0.00  0.00    +0.000 A 
ATOM     29  C   UNL     1      -2.963  12.013  19.411  0.00  0.00    +0.000 A 
ATOM     30  C   UNL     1      -1.651  11.496  19.626  0.00  0.00    +0.000 A 
BRANCH  29  31
ATOM     31  C   UNL     1      -3.533  13.085  20.313  0.00  0.00    +0.000 C 
ATOM     32  F   UNL     1      -3.716  12.678  21.602  0.00  0.00    +0.000 F 
ATOM     33  F   UNL     1      -2.726  14.179  20.384  0.00  0.00    +0.000 F 
ATOM     34  F   UNL     1      -4.746  13.533  19.890  0.00  0.00    +0.000 F 
ENDBRANCH  29  31
ENDBRANCH  23  25
ENDBRANCH   1  18
TORSDOF 5
ENDMDL
MODEL 6
REMARK VINA RESULT:      -8.2      4.615      8.499
REMARK  Name = 
REMARK  5 active torsions:
REMARK  status: ('A' for Active; 'I' for Inactive)
REMARK    1  A    between atoms: C_2  and  C_4
REMARK    2  A    between atoms: C_7  and  N_8
REMARK    3  A    between atoms: N_8  and  C_9
REMARK    4  A    between atoms: C_14  and  C_15
REMARK    5  A    between atoms: C_19  and  C_20
REMARK                            x       y       z     vdW  Elec       q    Type
REMARK                         _______ _______ _______ _____ _____    ______ ____
ROOT
ATOM      1  N   UNL     1       1.717   7.644  20.919  0.00  0.00    +0.000 N 
ATOM      2  H   UNL     1       1.485   7.299  21.848  0.00  0.00    +0.000 HD
ENDROOT
BRANCH   1   6
ATOM      3  C   UNL     1       3.162   4.565  18.231  0.00  0.00    +0.000 A 
ATOM      4  C   UNL     1       3.248   5.935  17.937  0.00  0.00    +0.000 A 
ATOM      5  C   UNL     1       2.864   6.913  18.866  0.00  0.00    +0.000 A 
ATOM      6  C   UNL     1       2.285   6.581  20.092  0.00  0.00    +0.000 A 
ATOM      7  C   UNL     1       2.371   5.168  20.454  0.00  0.00    +0.000 A 
ATOM      8  C   UNL     1       2.081   4.612  21.700  0.00  0.00    +0.000 A 
ATOM      9  N   UNL     1       2.199   3.303  22.042  0.00  0.00    +0.000 NA
ATOM     10  C   UNL     1       2.618   2.478  21.080  0.00  0.00    +0.000 A 
ATOM     11  N   UNL     1       2.895   2.847  19.830  0.00  0.00    +0.000 NA
ATOM     12  C   UNL     1       2.800   4.162  19.511  0.00  0.00    +0.000 A 
BRANCH   3  14
ATOM     13  N   UNL     1       4.795   3.386  16.764  0.00  0.00    +0.000 N 
ATOM     14  C   UNL     1       3.487   3.628  17.089  0.00  0.00    +0.000 C 
ATOM     15  O   UNL     1       2.601   3.054  16.464  0.00  0.00    +0.000 OA
ATOM     16  H   UNL     1       4.998   2.766  15.990  0.00  0.00    +0.000 HD
ATOM     17  H   UNL     1       5.553   3.885  17.215  0.00  0.00    +0.000 HD
ENDBRANCH   3  14
ENDBRANCH   1   6
BRANCH   1  18
ATOM     18  C   UNL     1       0.532   8.479  20.293  0.00  0.00    +0.000 C 
ATOM     19  C   UNL     1      -0.705   8.293  21.192  0.00  0.00    +0.000 C 
ATOM     20  N   UNL     1      -0.374   8.710  22.567  0.00  0.00    +0.000 NA
ATOM     21  C   UNL     1       0.062  10.105  22.673  0.00  0.00    +0.000 C 
ATOM     22  C   UNL     1       1.015  10.628  21.580  0.00  0.00    +0.000 C 
ATOM     23  C   UNL     1       0.654  10.089  20.184  0.00  0.00    +0.000 C 
ATOM     24  H   UNL     1       0.381   8.106  22.881  0.00  0.00    +0.000 HD
BRANCH  23  25
ATOM     25  C   UNL     1      -0.659  10.812  19.630  0.00  0.00    +0.000 A 
ATOM     26  C   UNL     1      -1.350  11.826  20.347  0.00  0.00    +0.000 A 
ATOM     27  C   UNL     1      -2.608  12.315  19.967  0.00  0.00    +0.000 A 
ATOM     28  C   UNL     1      -3.193  11.881  18.792  0.00  0.00    +0.000 A 
ATOM     29  C   UNL     1      -2.504  10.968  17.983  0.00  0.00    +0.000 A 
ATOM     30  C   UNL     1      -1.256  10.428  18.415  0.00  0.00    +0.000 A 
BRANCH  29  31
ATOM     31  C   UNL     1      -3.103  10.571  16.652  0.00  0.00    +0.000 C 
ATOM     32  F   UNL     1      -4.391  10.988  16.482  0.00  0.00    +0.000 F 
ATOM     33  F   UNL     1      -2.408  11.086  15.602  0.00  0.00    +0.000 F 
ATOM     34  F   UNL     1      -3.123   9.222  16.470  0.00  0.00    +0.000 F 
ENDBRANCH  29  31
ENDBRANCH  23  25
ENDBRANCH   1  18
TORSDOF 5
ENDMDL
MODEL 7
REMARK VINA RESULT:      -8.1      1.617      2.608
REMARK  Name = 
REMARK  5 active torsions:
REMARK  status: ('A' for Active; 'I' for Inactive)
REMARK    1  A    between atoms: C_2  and  C_4
REMARK    2  A    between atoms: C_7  and  N_8
REMARK    3  A    between atoms: N_8  and  C_9
REMARK    4  A    between atoms: C_14  and  C_15
REMARK    5  A    between atoms: C_19  and  C_20
REMARK                            x       y       z     vdW  Elec       q    Type
REMARK                         _______ _______ _______ _____ _____    ______ ____
ROOT
ATOM      1  N   UNL     1       1.167   6.586  20.592  0.00  0.00    +0.000 N 
ATOM      2  H   UNL     1       0.883   6.024  21.391  0.00  0.00    +0.000 HD
ENDROOT
BRANCH   1   6
ATOM      3  C   UNL     1       0.191  10.731  21.403  0.00  0.00    +0.000 A 
ATOM      4  C   UNL     1       0.127   9.727  22.383  0.00  0.00    +0.000 A 
ATOM      5  C   UNL     1       0.544   8.414  22.119  0.00  0.00    +0.000 A 
ATOM      6  C   UNL     1       0.950   8.008  20.847  0.00  0.00    +0.000 A 
ATOM      7  C   UNL     1       1.183   9.094  19.897  0.00  0.00    +0.000 A 
ATOM      8  C   UNL     1       1.800   8.987  18.651  0.00  0.00    +0.000 A 
ATOM      9  N   UNL     1       2.048  10.005  17.788  0.00  0.00    +0.000 NA
ATOM     10  C   UNL     1       1.643  11.218  18.174  0.00  0.00    +0.000 A 
ATOM     11  N   UNL     1       1.004  11.476  19.314  0.00  0.00    +0.000 NA
ATOM     12  C   UNL     1       0.789  10.454  20.179  0.00  0.00    +0.000 A 
BRANCH   3  14
ATOM     13  N   UNL     1      -1.068  12.808  20.847  0.00  0.00    +0.000 N 
ATOM     14  C   UNL     1      -0.411  12.063  21.790  0.00  0.00    +0.000 C 
ATOM     15  O   UNL     1      -0.351  12.479  22.943  0.00  0.00    +0.000 OA
ATOM     16  H   UNL     1      -1.456  13.703  21.117  0.00  0.00    +0.000 HD
ATOM     17  H   UNL     1      -1.088  12.529  19.873  0.00  0.00    +0.000 HD
ENDBRANCH   3  14
ENDBRANCH   1   6
BRANCH   1  18
ATOM     18  C   UNL     1       2.594   6.166  20.060  0.00  0.00    +0.000 C 
ATOM     19  C   UNL     1       2.878   4.732  20.546  0.00  0.00    +0.000 C 
ATOM     20  N   UNL     1       1.805   3.838  20.074  0.00  0.00    +0.000 NA
ATOM     21  C   UNL     1       1.660   3.805  18.616  0.00  0.00    +0.000 C 
ATOM     22  C   UNL     1       1.771   5.149  17.869  0.00  0.00    +0.000 C 
ATOM     23  C   UNL     1       2.858   6.061  18.467  0.00  0.00    +0.000 C 
ATOM     24  H   UNL     1       0.938   4.181  20.482  0.00  0.00    +0.000 HD
BRANCH  23  25
ATOM     25  C   UNL     1       4.311   5.524  18.075  0.00  0.00    +0.000 A 
ATOM     26  C   UNL     1       5.380   5.421  19.006  0.00  0.00    +0.000 A 
ATOM     27  C   UNL     1       6.704   5.149  18.630  0.00  0.00    +0.000 A 
ATOM     28  C   UNL     1       7.005   4.868  17.310  0.00  0.00    +0.000 A 
ATOM     29  C   UNL     1       5.970   4.840  16.365  0.00  0.00    +0.000 A 
ATOM     30  C   UNL     1       4.640   5.184  16.750  0.00  0.00    +0.000 A 
BRANCH  29  31
ATOM     31  C   UNL     1       6.288   4.437  14.942  0.00  0.00    +0.000 C 
ATOM     32  F   UNL     1       6.341   3.087  14.752  0.00  0.00    +0.000 F 
ATOM     33  F   UNL     1       5.359   4.896  14.059  0.00  0.00    +0.000 F 
ATOM     34  F   UNL     1       7.487   4.919  14.518  0.00  0.00    +0.000 F 
ENDBRANCH  29  31
ENDBRANCH  23  25
ENDBRANCH   1  18
TORSDOF 5
ENDMDL
MODEL 8
REMARK VINA RESULT:      -8.1      5.728      9.484
REMARK  Name = 
REMARK  5 active torsions:
REMARK  status: ('A' for Active; 'I' for Inactive)
REMARK    1  A    between atoms: C_2  and  C_4
REMARK    2  A    between atoms: C_7  and  N_8
REMARK    3  A    between atoms: N_8  and  C_9
REMARK    4  A    between atoms: C_14  and  C_15
REMARK    5  A    between atoms: C_19  and  C_20
REMARK                            x       y       z     vdW  Elec       q    Type
REMARK                         _______ _______ _______ _____ _____    ______ ____
ROOT
ATOM      1  N   UNL     1       2.001   7.793  20.649  0.00  0.00    +0.000 N 
ATOM      2  H   UNL     1       2.038   7.833  21.665  0.00  0.00    +0.000 HD
ENDROOT
BRANCH   1   6
ATOM      3  C   UNL     1       3.259   3.804  19.510  0.00  0.00    +0.000 A 
ATOM      4  C   UNL     1       2.330   4.046  20.534  0.00  0.00    +0.000 A 
ATOM      5  C   UNL     1       1.866   5.340  20.816  0.00  0.00    +0.000 A 
ATOM      6  C   UNL     1       2.372   6.465  20.163  0.00  0.00    +0.000 A 
ATOM      7  C   UNL     1       3.193   6.182  18.988  0.00  0.00    +0.000 A 
ATOM      8  C   UNL     1       3.628   7.106  18.038  0.00  0.00    +0.000 A 
ATOM      9  N   UNL     1       4.358   6.832  16.927  0.00  0.00    +0.000 NA
ATOM     10  C   UNL     1       4.701   5.553  16.747  0.00  0.00    +0.000 A 
ATOM     11  N   UNL     1       4.398   4.562  17.584  0.00  0.00    +0.000 NA
ATOM     12  C   UNL     1       3.643   4.846  18.674  0.00  0.00    +0.000 A 
BRANCH   3  14
ATOM     13  N   UNL     1       3.222   1.536  18.478  0.00  0.00    +0.000 N 
ATOM     14  C   UNL     1       3.765   2.382  19.407  0.00  0.00    +0.000 C 
ATOM     15  O   UNL     1       4.677   1.977  20.121  0.00  0.00    +0.000 OA
ATOM     16  H   UNL     1       3.562   0.584  18.428  0.00  0.00    +0.000 HD
ATOM     17  H   UNL     1       2.428   1.812  17.912  0.00  0.00    +0.000 HD
ENDBRANCH   3  14
ENDBRANCH   1   6
BRANCH   1  18
ATOM     18  C   UNL     1       0.660   8.409  20.087  0.00  0.00    +0.000 C 
ATOM     19  C   UNL     1      -0.406   8.313  21.196  0.00  0.00    +0.000 C 
ATOM     20  N   UNL     1       0.083   9.007  22.401  0.00  0.00    +0.000 NA
ATOM     21  C   UNL     1       0.390  10.423  22.185  0.00  0.00    +0.000 C 
ATOM     22  C   UNL     1       1.114  10.793  20.876  0.00  0.00    +0.000 C 
ATOM     23  C   UNL     1       0.606   9.973  19.675  0.00  0.00    +0.000 C 
ATOM     24  H   UNL     1       0.932   8.527  22.690  0.00  0.00    +0.000 HD
BRANCH  23  25
ATOM     25  C   UNL     1      -0.840  10.485  19.226  0.00  0.00    +0.000 A 
ATOM     26  C   UNL     1      -1.475  10.067  18.025  0.00  0.00    +0.000 A 
ATOM     27  C   UNL     1      -2.642  10.663  17.524  0.00  0.00    +0.000 A 
ATOM     28  C   UNL     1      -3.286  11.645  18.255  0.00  0.00    +0.000 A 
ATOM     29  C   UNL     1      -2.770  12.015  19.503  0.00  0.00    +0.000 A 
ATOM     30  C   UNL     1      -1.546  11.449  19.969  0.00  0.00    +0.000 A 
BRANCH  29  31
ATOM     31  C   UNL     1      -3.530  13.018  20.343  0.00  0.00    +0.000 C 
ATOM     32  F   UNL     1      -4.740  13.369  19.818  0.00  0.00    +0.000 F 
ATOM     33  F   UNL     1      -3.794  12.547  21.592  0.00  0.00    +0.000 F 
ATOM     34  F   UNL     1      -2.847  14.182  20.512  0.00  0.00    +0.000 F 
ENDBRANCH  29  31
ENDBRANCH  23  25
ENDBRANCH   1  18
TORSDOF 5
ENDMDL
MODEL 9
REMARK VINA RESULT:      -8.1      1.168      1.431
REMARK  Name = 
REMARK  5 active torsions:
REMARK  status: ('A' for Active; 'I' for Inactive)
REMARK    1  A    between atoms: C_2  and  C_4
REMARK    2  A    between atoms: C_7  and  N_8
REMARK    3  A    between atoms: N_8  and  C_9
REMARK    4  A    between atoms: C_14  and  C_15
REMARK    5  A    between atoms: C_19  and  C_20
REMARK                            x       y       z     vdW  Elec       q    Type
REMARK                         _______ _______ _______ _____ _____    ______ ____
ROOT
ATOM      1  N   UNL     1       2.823   6.564  19.033  0.00  0.00    +0.000 N 
ATOM      2  H   UNL     1       3.141   6.340  19.973  0.00  0.00    +0.000 HD
ENDROOT
BRANCH   1   6
ATOM      3  C   UNL     1       1.289  10.614  18.852  0.00  0.00    +0.000 A 
ATOM      4  C   UNL     1       1.833   9.955  17.739  0.00  0.00    +0.000 A 
ATOM      5  C   UNL     1       2.231   8.612  17.800  0.00  0.00    +0.000 A 
ATOM      6  C   UNL     1       2.200   7.885  18.992  0.00  0.00    +0.000 A 
ATOM      7  C   UNL     1       1.468   8.522  20.085  0.00  0.00    +0.000 A 
ATOM      8  C   UNL     1       1.095   7.927  21.290  0.00  0.00    +0.000 A 
ATOM      9  N   UNL     1       0.382   8.510  22.287  0.00  0.00    +0.000 NA
ATOM     10  C   UNL     1       0.023   9.781  22.089  0.00  0.00    +0.000 A 
ATOM     11  N   UNL     1       0.337  10.499  21.011  0.00  0.00    +0.000 NA
ATOM     12  C   UNL     1       1.025   9.893  20.012  0.00  0.00    +0.000 A 
BRANCH   3  14
ATOM     13  N   UNL     1       2.058  12.984  18.813  0.00  0.00    +0.000 N 
ATOM     14  C   UNL     1       1.027  12.094  18.675  0.00  0.00    +0.000 C 
ATOM     15  O   UNL     1      -0.087  12.513  18.380  0.00  0.00    +0.000 OA
ATOM     16  H   UNL     1       1.867  13.972  18.703  0.00  0.00    +0.000 HD
ATOM     17  H   UNL     1       2.978  12.685  19.115  0.00  0.00    +0.000 HD
ENDBRANCH   3  14
ENDBRANCH   1   6
BRANCH   1  18
ATOM     18  C   UNL     1       3.936   6.266  17.953  0.00  0.00    +0.000 C 
ATOM     19  C   UNL     1       5.270   6.055  18.694  0.00  0.00    +0.000 C 
ATOM     20  N   UNL     1       5.116   4.964  19.673  0.00  0.00    +0.000 NA
ATOM     21  C   UNL     1       4.718   3.686  19.078  0.00  0.00    +0.000 C 
ATOM     22  C   UNL     1       3.647   3.730  17.970  0.00  0.00    +0.000 C 
ATOM     23  C   UNL     1       3.826   4.939  17.033  0.00  0.00    +0.000 C 
ATOM     24  H   UNL     1       4.395   5.260  20.328  0.00  0.00    +0.000 HD
BRANCH  23  25
ATOM     25  C   UNL     1       5.073   4.708  16.061  0.00  0.00    +0.000 A 
ATOM     26  C   UNL     1       6.402   5.081  16.397  0.00  0.00    +0.000 A 
ATOM     27  C   UNL     1       7.461   5.072  15.477  0.00  0.00    +0.000 A 
ATOM     28  C   UNL     1       7.259   4.594  14.195  0.00  0.00    +0.000 A 
ATOM     29  C   UNL     1       5.996   4.103  13.841  0.00  0.00    +0.000 A 
ATOM     30  C   UNL     1       4.912   4.181  14.766  0.00  0.00    +0.000 A 
BRANCH  29  31
ATOM     31  C   UNL     1       5.805   3.491  12.471  0.00  0.00    +0.000 C 
ATOM     32  F   UNL     1       5.796   2.127  12.474  0.00  0.00    +0.000 F 
ATOM     33  F   UNL     1       4.627   3.865  11.901  0.00  0.00    +0.000 F 
ATOM     34  F   UNL     1       6.783   3.854  11.596  0.00  0.00    +0.000 F 
ENDBRANCH  29  31
ENDBRANCH  23  25
ENDBRANCH   1  18
TORSDOF 5
ENDMDL
