MODEL 1
REMARK VINA RESULT:      -8.1      0.000      0.000
REMARK  Name = 
REMARK  5 active torsions:
REMARK  status: ('A' for Active; 'I' for Inactive)
REMARK    1  A    between atoms: C_1  and  N_2
REMARK    2  A    between atoms: N_2  and  C_3
REMARK    3  A    between atoms: N_2  and  C_4
REMARK    4  A    between atoms: C_9  and  S_10
REMARK    5  A    between atoms: S_10  and  N_13
REMARK                            x       y       z     vdW  Elec       q    Type
REMARK                         _______ _______ _______ _____ _____    ______ ____
ROOT
ATOM      1  C   UNL     1       2.680   3.751  19.183  0.00  0.00    +0.000 A 
ATOM      2  C   UNL     1       3.461   2.691  19.678  0.00  0.00    +0.000 A 
ATOM      3  C   UNL     1       4.845   2.746  19.680  0.00  0.00    +0.000 A 
ATOM      4  C   UNL     1       5.496   3.848  19.142  0.00  0.00    +0.000 A 
ATOM      5  C   UNL     1       4.797   4.924  18.550  0.00  0.00    +0.000 A 
ATOM      6  C   UNL     1       5.422   6.049  17.926  0.00  0.00    +0.000 A 
ATOM      7  C   UNL     1       4.655   7.089  17.369  0.00  0.00    +0.000 A 
ATOM      8  C   UNL     1       3.278   7.064  17.471  0.00  0.00    +0.000 A 
ATOM      9  C   UNL     1       2.654   5.992  18.102  0.00  0.00    +0.000 A 
ATOM     10  C   UNL     1       3.363   4.879  18.606  0.00  0.00    +0.000 A 
ENDROOT
BRANCH   1  12
ATOM     11  C   UNL     1       0.681   4.205  20.540  0.00  0.00    +0.000 C 
ATOM     12  N   UNL     1       1.266   3.698  19.295  0.00  0.00    +0.000 N 
ATOM     13  C   UNL     1       0.620   2.492  18.762  0.00  0.00    +0.000 C 
ENDBRANCH   1  12
BRANCH   6  14
ATOM     14  S   UNL     1       7.196   6.223  17.689  0.00  0.00    +0.000 S 
ATOM     15  O   UNL     1       7.499   7.347  16.825  0.00  0.00    +0.000 OA
ATOM     16  O   UNL     1       7.805   6.149  19.000  0.00  0.00    +0.000 OA
BRANCH  14  17
ATOM     17  N   UNL     1       7.650   4.799  16.910  0.00  0.00    +0.000 N 
ATOM     18  C   UNL     1       7.083   4.554  15.642  0.00  0.00    +0.000 A 
ATOM     19  C   UNL     1       7.539   5.165  14.488  0.00  0.00    +0.000 A 
ATOM     20  C   UNL     1       6.948   4.796  13.282  0.00  0.00    +0.000 A 
ATOM     21  C   UNL     1       5.929   3.861  13.316  0.00  0.00    +0.000 A 
ATOM     22 CL   UNL     1       5.154   3.324  11.890  0.00  0.00    +0.000 Cl
ATOM     23  N   UNL     1       5.498   3.297  14.463  0.00  0.00    +0.000 NA
ATOM     24  N   UNL     1       6.087   3.648  15.647  0.00  0.00    +0.000 NA
ATOM     25  H   UNL     1       7.520   4.003  17.530  0.00  0.00    +0.000 HD
ENDBRANCH  14  17
ENDBRANCH   6  14
TORSDOF 3
ENDMDL
MODEL 2
REMARK VINA RESULT:      -7.4      1.351      1.448
REMARK  Name = 
REMARK  5 active torsions:
REMARK  status: ('A' for Active; 'I' for Inactive)
REMARK    1  A    between atoms: C_1  and  N_2
REMARK    2  A    between atoms: N_2  and  C_3
REMARK    3  A    between atoms: N_2  and  C_4
REMARK    4  A    between atoms: C_9  and  S_10
REMARK    5  A    between atoms: S_10  and  N_13
REMARK                            x       y       z     vdW  Elec       q    Type
REMARK                         _______ _______ _______ _____ _____    ______ ____
ROOT
ATOM      1  C   UNL     1       2.712   3.370  19.886  0.00  0.00    +0.000 A 
ATOM      2  C   UNL     1       3.609   2.328  20.185  0.00  0.00    +0.000 A 
ATOM      3  C   UNL     1       4.959   2.422  19.891  0.00  0.00    +0.000 A 
ATOM      4  C   UNL     1       5.450   3.548  19.244  0.00  0.00    +0.000 A 
ATOM      5  C   UNL     1       4.613   4.610  18.832  0.00  0.00    +0.000 A 
ATOM      6  C   UNL     1       5.060   5.758  18.108  0.00  0.00    +0.000 A 
ATOM      7  C   UNL     1       4.165   6.781  17.745  0.00  0.00    +0.000 A 
ATOM      8  C   UNL     1       2.843   6.717  18.139  0.00  0.00    +0.000 A 
ATOM      9  C   UNL     1       2.397   5.621  18.872  0.00  0.00    +0.000 A 
ATOM     10  C   UNL     1       3.226   4.523  19.194  0.00  0.00    +0.000 A 
ENDROOT
BRANCH   1  12
ATOM     11  C   UNL     1       1.112   2.832  21.673  0.00  0.00    +0.000 C 
ATOM     12  N   UNL     1       1.357   3.276  20.298  0.00  0.00    +0.000 N 
ATOM     13  C   UNL     1       0.417   2.742  19.306  0.00  0.00    +0.000 C 
ENDBRANCH   1  12
BRANCH   6  14
ATOM     14  S   UNL     1       6.737   5.985  17.498  0.00  0.00    +0.000 S 
ATOM     15  O   UNL     1       7.428   7.018  18.245  0.00  0.00    +0.000 OA
ATOM     16  O   UNL     1       7.328   4.668  17.392  0.00  0.00    +0.000 OA
BRANCH  14  17
ATOM     17  N   UNL     1       6.531   6.506  15.908  0.00  0.00    +0.000 N 
ATOM     18  C   UNL     1       6.450   5.509  14.914  0.00  0.00    +0.000 A 
ATOM     19  C   UNL     1       5.298   4.781  14.675  0.00  0.00    +0.000 A 
ATOM     20  C   UNL     1       5.312   3.870  13.622  0.00  0.00    +0.000 A 
ATOM     21  C   UNL     1       6.482   3.733  12.897  0.00  0.00    +0.000 A 
ATOM     22 CL   UNL     1       6.598   2.660  11.571  0.00  0.00    +0.000 Cl
ATOM     23  N   UNL     1       7.594   4.448  13.167  0.00  0.00    +0.000 NA
ATOM     24  N   UNL     1       7.576   5.355  14.192  0.00  0.00    +0.000 NA
ATOM     25  H   UNL     1       7.234   7.202  15.674  0.00  0.00    +0.000 HD
ENDBRANCH  14  17
ENDBRANCH   6  14
TORSDOF 3
ENDMDL
MODEL 3
REMARK VINA RESULT:      -7.4      4.656      5.918
REMARK  Name = 
REMARK  5 active torsions:
REMARK  status: ('A' for Active; 'I' for Inactive)
REMARK    1  A    between atoms: C_1  and  N_2
REMARK    2  A    between atoms: N_2  and  C_3
REMARK    3  A    between atoms: N_2  and  C_4
REMARK    4  A    between atoms: C_9  and  S_10
REMARK    5  A    between atoms: S_10  and  N_13
REMARK                            x       y       z     vdW  Elec       q    Type
REMARK                         _______ _______ _______ _____ _____    ______ ____
ROOT
ATOM      1  C   UNL     1       0.262  10.819  20.837  0.00  0.00    +0.000 A 
ATOM      2  C   UNL     1      -0.013  10.328  22.127  0.00  0.00    +0.000 A 
ATOM      3  C   UNL     1       0.396   9.068  22.529  0.00  0.00    +0.000 A 
ATOM      4  C   UNL     1       1.056   8.235  21.635  0.00  0.00    +0.000 A 
ATOM      5  C   UNL     1       1.305   8.610  20.295  0.00  0.00    +0.000 A 
ATOM      6  C   UNL     1       1.922   7.766  19.321  0.00  0.00    +0.000 A 
ATOM      7  C   UNL     1       2.148   8.217  18.007  0.00  0.00    +0.000 A 
ATOM      8  C   UNL     1       1.827   9.514  17.657  0.00  0.00    +0.000 A 
ATOM      9  C   UNL     1       1.254  10.360  18.602  0.00  0.00    +0.000 A 
ATOM     10  C   UNL     1       0.925   9.940  19.910  0.00  0.00    +0.000 A 
ENDROOT
BRANCH   1  12
ATOM     11  C   UNL     1       0.673  13.221  21.163  0.00  0.00    +0.000 C 
ATOM     12  N   UNL     1      -0.084  12.154  20.500  0.00  0.00    +0.000 N 
ATOM     13  C   UNL     1      -1.517  12.429  20.339  0.00  0.00    +0.000 C 
ENDBRANCH   1  12
BRANCH   6  14
ATOM     14  S   UNL     1       2.376   6.049  19.606  0.00  0.00    +0.000 S 
ATOM     15  O   UNL     1       1.968   5.615  20.927  0.00  0.00    +0.000 OA
ATOM     16  O   UNL     1       1.942   5.301  18.445  0.00  0.00    +0.000 OA
BRANCH  14  17
ATOM     17  N   UNL     1       4.060   6.049  19.527  0.00  0.00    +0.000 N 
ATOM     18  C   UNL     1       4.643   5.720  18.286  0.00  0.00    +0.000 A 
ATOM     19  C   UNL     1       4.734   6.620  17.240  0.00  0.00    +0.000 A 
ATOM     20  C   UNL     1       5.391   6.206  16.083  0.00  0.00    +0.000 A 
ATOM     21  C   UNL     1       5.888   4.916  16.044  0.00  0.00    +0.000 A 
ATOM     22 CL   UNL     1       6.730   4.318  14.681  0.00  0.00    +0.000 Cl
ATOM     23  N   UNL     1       5.767   4.058  17.078  0.00  0.00    +0.000 NA
ATOM     24  N   UNL     1       5.135   4.468  18.220  0.00  0.00    +0.000 NA
ATOM     25  H   UNL     1       4.446   5.480  20.276  0.00  0.00    +0.000 HD
ENDBRANCH  14  17
ENDBRANCH   6  14
TORSDOF 3
ENDMDL
MODEL 4
REMARK VINA RESULT:      -7.3      6.680      8.923
REMARK  Name = 
REMARK  5 active torsions:
REMARK  status: ('A' for Active; 'I' for Inactive)
REMARK    1  A    between atoms: C_1  and  N_2
REMARK    2  A    between atoms: N_2  and  C_3
REMARK    3  A    between atoms: N_2  and  C_4
REMARK    4  A    between atoms: C_9  and  S_10
REMARK    5  A    between atoms: S_10  and  N_13
REMARK                            x       y       z     vdW  Elec       q    Type
REMARK                         _______ _______ _______ _____ _____    ______ ____
ROOT
ATOM      1  C   UNL     1       3.211   5.367  18.660  0.00  0.00    +0.000 A 
ATOM      2  C   UNL     1       3.062   4.507  19.763  0.00  0.00    +0.000 A 
ATOM      3  C   UNL     1       2.354   4.885  20.891  0.00  0.00    +0.000 A 
ATOM      4  C   UNL     1       1.809   6.159  20.973  0.00  0.00    +0.000 A 
ATOM      5  C   UNL     1       1.975   7.120  19.949  0.00  0.00    +0.000 A 
ATOM      6  C   UNL     1       1.489   8.463  20.013  0.00  0.00    +0.000 A 
ATOM      7  C   UNL     1       1.684   9.357  18.944  0.00  0.00    +0.000 A 
ATOM      8  C   UNL     1       2.302   8.927  17.786  0.00  0.00    +0.000 A 
ATOM      9  C   UNL     1       2.754   7.614  17.694  0.00  0.00    +0.000 A 
ATOM     10  C   UNL     1       2.663   6.694  18.763  0.00  0.00    +0.000 A 
ENDROOT
BRANCH   1  12
ATOM     11  C   UNL     1       3.411   3.609  16.953  0.00  0.00    +0.000 C 
ATOM     12  N   UNL     1       3.855   4.902  17.483  0.00  0.00    +0.000 N 
ATOM     13  C   UNL     1       5.303   5.131  17.407  0.00  0.00    +0.000 C 
ENDBRANCH   1  12
BRANCH   6  14
ATOM     14  S   UNL     1       0.690   9.186  21.452  0.00  0.00    +0.000 S 
ATOM     15  O   UNL     1      -0.637   8.633  21.644  0.00  0.00    +0.000 OA
ATOM     16  O   UNL     1       1.647   9.132  22.536  0.00  0.00    +0.000 OA
BRANCH  14  17
ATOM     17  N   UNL     1       0.549  10.821  21.068  0.00  0.00    +0.000 N 
ATOM     18  C   UNL     1      -0.664  11.456  21.405  0.00  0.00    +0.000 A 
ATOM     19  C   UNL     1      -0.957  11.877  22.690  0.00  0.00    +0.000 A 
ATOM     20  C   UNL     1      -2.158  12.553  22.893  0.00  0.00    +0.000 A 
ATOM     21  C   UNL     1      -2.991  12.741  21.805  0.00  0.00    +0.000 A 
ATOM     22 CL   UNL     1      -4.475  13.578  21.943  0.00  0.00    +0.000 Cl
ATOM     23  N   UNL     1      -2.681  12.302  20.567  0.00  0.00    +0.000 NA
ATOM     24  N   UNL     1      -1.495  11.651  20.364  0.00  0.00    +0.000 NA
ATOM     25  H   UNL     1       0.784  10.973  20.091  0.00  0.00    +0.000 HD
ENDBRANCH  14  17
ENDBRANCH   6  14
TORSDOF 3
ENDMDL
MODEL 5
REMARK VINA RESULT:      -7.0      6.720      8.911
REMARK  Name = 
REMARK  5 active torsions:
REMARK  status: ('A' for Active; 'I' for Inactive)
REMARK    1  A    between atoms: C_1  and  N_2
REMARK    2  A    between atoms: N_2  and  C_3
REMARK    3  A    between atoms: N_2  and  C_4
REMARK    4  A    between atoms: C_9  and  S_10
REMARK    5  A    between atoms: S_10  and  N_13
REMARK                            x       y       z     vdW  Elec       q    Type
REMARK                         _______ _______ _______ _____ _____    ______ ____
ROOT
ATOM      1  C   UNL     1       3.317   5.633  18.716  0.00  0.00    +0.000 A 
ATOM      2  C   UNL     1       3.160   4.739  19.791  0.00  0.00    +0.000 A 
ATOM      3  C   UNL     1       2.334   5.028  20.864  0.00  0.00    +0.000 A 
ATOM      4  C   UNL     1       1.673   6.247  20.922  0.00  0.00    +0.000 A 
ATOM      5  C   UNL     1       1.833   7.241  19.930  0.00  0.00    +0.000 A 
ATOM      6  C   UNL     1       1.226   8.535  19.976  0.00  0.00    +0.000 A 
ATOM      7  C   UNL     1       1.423   9.467  18.941  0.00  0.00    +0.000 A 
ATOM      8  C   UNL     1       2.165   9.119  17.828  0.00  0.00    +0.000 A 
ATOM      9  C   UNL     1       2.738   7.853  17.753  0.00  0.00    +0.000 A 
ATOM     10  C   UNL     1       2.646   6.904  18.796  0.00  0.00    +0.000 A 
ENDROOT
BRANCH   1  12
ATOM     11  C   UNL     1       3.798   3.944  16.996  0.00  0.00    +0.000 C 
ATOM     12  N   UNL     1       4.089   5.254  17.588  0.00  0.00    +0.000 N 
ATOM     13  C   UNL     1       5.515   5.600  17.635  0.00  0.00    +0.000 C 
ENDBRANCH   1  12
BRANCH   6  14
ATOM     14  S   UNL     1       0.255   9.152  21.358  0.00  0.00    +0.000 S 
ATOM     15  O   UNL     1      -0.687   8.152  21.821  0.00  0.00    +0.000 OA
ATOM     16  O   UNL     1       1.186   9.742  22.296  0.00  0.00    +0.000 OA
BRANCH  14  17
ATOM     17  N   UNL     1      -0.603  10.452  20.712  0.00  0.00    +0.000 N 
ATOM     18  C   UNL     1      -0.326  11.729  21.243  0.00  0.00    +0.000 A 
ATOM     19  C   UNL     1       0.787  12.465  20.881  0.00  0.00    +0.000 A 
ATOM     20  C   UNL     1       0.923  13.743  21.418  0.00  0.00    +0.000 A 
ATOM     21  C   UNL     1      -0.049  14.186  22.297  0.00  0.00    +0.000 A 
ATOM     22 CL   UNL     1       0.012  15.746  22.994  0.00  0.00    +0.000 Cl
ATOM     23  N   UNL     1      -1.115  13.434  22.641  0.00  0.00    +0.000 NA
ATOM     24  N   UNL     1      -1.257  12.184  22.103  0.00  0.00    +0.000 NA
ATOM     25  H   UNL     1      -1.600  10.256  20.727  0.00  0.00    +0.000 HD
ENDBRANCH  14  17
ENDBRANCH   6  14
TORSDOF 3
ENDMDL
MODEL 6
REMARK VINA RESULT:      -6.9      2.904      4.162
REMARK  Name = 
REMARK  5 active torsions:
REMARK  status: ('A' for Active; 'I' for Inactive)
REMARK    1  A    between atoms: C_1  and  N_2
REMARK    2  A    between atoms: N_2  and  C_3
REMARK    3  A    between atoms: N_2  and  C_4
REMARK    4  A    between atoms: C_9  and  S_10
REMARK    5  A    between atoms: S_10  and  N_13
REMARK                            x       y       z     vdW  Elec       q    Type
REMARK                         _______ _______ _______ _____ _____    ______ ____
ROOT
ATOM      1  C   UNL     1       1.630   8.046  19.905  0.00  0.00    +0.000 A 
ATOM      2  C   UNL     1       2.137   8.773  18.813  0.00  0.00    +0.000 A 
ATOM      3  C   UNL     1       2.924   8.176  17.842  0.00  0.00    +0.000 A 
ATOM      4  C   UNL     1       3.271   6.837  17.958  0.00  0.00    +0.000 A 
ATOM      5  C   UNL     1       2.877   6.047  19.062  0.00  0.00    +0.000 A 
ATOM      6  C   UNL     1       3.262   4.684  19.259  0.00  0.00    +0.000 A 
ATOM      7  C   UNL     1       2.817   3.959  20.380  0.00  0.00    +0.000 A 
ATOM      8  C   UNL     1       1.947   4.542  21.281  0.00  0.00    +0.000 A 
ATOM      9  C   UNL     1       1.537   5.858  21.087  0.00  0.00    +0.000 A 
ATOM     10  C   UNL     1       2.015   6.664  20.030  0.00  0.00    +0.000 A 
ENDROOT
BRANCH   1  12
ATOM     11  C   UNL     1      -0.213   9.632  20.263  0.00  0.00    +0.000 C 
ATOM     12  N   UNL     1       0.743   8.670  20.820  0.00  0.00    +0.000 N 
ATOM     13  C   UNL     1       1.317   9.057  22.114  0.00  0.00    +0.000 C 
ENDBRANCH   1  12
BRANCH   6  14
ATOM     14  S   UNL     1       4.404   3.788  18.198  0.00  0.00    +0.000 S 
ATOM     15  O   UNL     1       5.777   4.164  18.474  0.00  0.00    +0.000 OA
ATOM     16  O   UNL     1       4.025   2.392  18.255  0.00  0.00    +0.000 OA
BRANCH  14  17
ATOM     17  N   UNL     1       4.003   4.291  16.641  0.00  0.00    +0.000 N 
ATOM     18  C   UNL     1       5.065   4.460  15.729  0.00  0.00    +0.000 A 
ATOM     19  C   UNL     1       5.668   3.399  15.078  0.00  0.00    +0.000 A 
ATOM     20  C   UNL     1       6.663   3.689  14.147  0.00  0.00    +0.000 A 
ATOM     21  C   UNL     1       7.001   5.015  13.949  0.00  0.00    +0.000 A 
ATOM     22 CL   UNL     1       8.191   5.480  12.814  0.00  0.00    +0.000 Cl
ATOM     23  N   UNL     1       6.402   6.026  14.613  0.00  0.00    +0.000 NA
ATOM     24  N   UNL     1       5.415   5.742  15.517  0.00  0.00    +0.000 NA
ATOM     25  H   UNL     1       3.418   5.122  16.681  0.00  0.00    +0.000 HD
ENDBRANCH  14  17
ENDBRANCH   6  14
TORSDOF 3
ENDMDL
MODEL 7
REMARK VINA RESULT:      -6.7      2.881      4.153
REMARK  Name = 
REMARK  5 active torsions:
REMARK  status: ('A' for Active; 'I' for Inactive)
REMARK    1  A    between atoms: C_1  and  N_2
REMARK    2  A    between atoms: N_2  and  C_3
REMARK    3  A    between atoms: N_2  and  C_4
REMARK    4  A    between atoms: C_9  and  S_10
REMARK    5  A    between atoms: S_10  and  N_13
REMARK                            x       y       z     vdW  Elec       q    Type
REMARK                         _______ _______ _______ _____ _____    ______ ____
ROOT
ATOM      1  C   UNL     1       1.574   8.131  19.877  0.00  0.00    +0.000 A 
ATOM      2  C   UNL     1       2.089   8.839  18.776  0.00  0.00    +0.000 A 
ATOM      3  C   UNL     1       2.925   8.238  17.850  0.00  0.00    +0.000 A 
ATOM      4  C   UNL     1       3.313   6.916  18.021  0.00  0.00    +0.000 A 
ATOM      5  C   UNL     1       2.912   6.150  19.139  0.00  0.00    +0.000 A 
ATOM      6  C   UNL     1       3.335   4.808  19.394  0.00  0.00    +0.000 A 
ATOM      7  C   UNL     1       2.880   4.105  20.525  0.00  0.00    +0.000 A 
ATOM      8  C   UNL     1       1.964   4.688  21.379  0.00  0.00    +0.000 A 
ATOM      9  C   UNL     1       1.518   5.982  21.130  0.00  0.00    +0.000 A 
ATOM     10  C   UNL     1       2.000   6.769  20.060  0.00  0.00    +0.000 A 
ENDROOT
BRANCH   1  12
ATOM     11  C   UNL     1      -0.306   9.694  20.132  0.00  0.00    +0.000 C 
ATOM     12  N   UNL     1       0.639   8.755  20.744  0.00  0.00    +0.000 N 
ATOM     13  C   UNL     1       1.151   9.170  22.055  0.00  0.00    +0.000 C 
ENDBRANCH   1  12
BRANCH   6  14
ATOM     14  S   UNL     1       4.538   3.916  18.398  0.00  0.00    +0.000 S 
ATOM     15  O   UNL     1       5.248   2.934  19.193  0.00  0.00    +0.000 OA
ATOM     16  O   UNL     1       3.858   3.498  17.191  0.00  0.00    +0.000 OA
BRANCH  14  17
ATOM     17  N   UNL     1       5.626   5.105  17.902  0.00  0.00    +0.000 N 
ATOM     18  C   UNL     1       6.029   5.081  16.551  0.00  0.00    +0.000 A 
ATOM     19  C   UNL     1       5.241   5.573  15.526  0.00  0.00    +0.000 A 
ATOM     20  C   UNL     1       5.769   5.559  14.237  0.00  0.00    +0.000 A 
ATOM     21  C   UNL     1       7.037   5.034  14.060  0.00  0.00    +0.000 A 
ATOM     22 CL   UNL     1       7.785   4.991  12.524  0.00  0.00    +0.000 Cl
ATOM     23  N   UNL     1       7.772   4.547  15.081  0.00  0.00    +0.000 NA
ATOM     24  N   UNL     1       7.259   4.574  16.350  0.00  0.00    +0.000 NA
ATOM     25  H   UNL     1       6.429   5.127  18.525  0.00  0.00    +0.000 HD
ENDBRANCH  14  17
ENDBRANCH   6  14
TORSDOF 3
ENDMDL
MODEL 8
REMARK VINA RESULT:      -6.7      3.369      4.904
REMARK  Name = 
REMARK  5 active torsions:
REMARK  status: ('A' for Active; 'I' for Inactive)
REMARK    1  A    between atoms: C_1  and  N_2
REMARK    2  A    between atoms: N_2  and  C_3
REMARK    3  A    between atoms: N_2  and  C_4
REMARK    4  A    between atoms: C_9  and  S_10
REMARK    5  A    between atoms: S_10  and  N_13
REMARK                            x       y       z     vdW  Elec       q    Type
REMARK                         _______ _______ _______ _____ _____    ______ ____
ROOT
ATOM      1  C   UNL     1       1.676   7.475  20.259  0.00  0.00    +0.000 A 
ATOM      2  C   UNL     1       1.939   8.249  19.114  0.00  0.00    +0.000 A 
ATOM      3  C   UNL     1       2.375   7.676  17.932  0.00  0.00    +0.000 A 
ATOM      4  C   UNL     1       2.610   6.309  17.869  0.00  0.00    +0.000 A 
ATOM      5  C   UNL     1       2.451   5.463  18.990  0.00  0.00    +0.000 A 
ATOM      6  C   UNL     1       2.740   4.062  18.993  0.00  0.00    +0.000 A 
ATOM      7  C   UNL     1       2.544   3.283  20.148  0.00  0.00    +0.000 A 
ATOM      8  C   UNL     1       2.007   3.855  21.286  0.00  0.00    +0.000 A 
ATOM      9  C   UNL     1       1.691   5.210  21.290  0.00  0.00    +0.000 A 
ATOM     10  C   UNL     1       1.944   6.062  20.191  0.00  0.00    +0.000 A 
ENDROOT
BRANCH   1  12
ATOM     11  C   UNL     1      -0.328   8.229  21.467  0.00  0.00    +0.000 C 
ATOM     12  N   UNL     1       1.130   8.088  21.417  0.00  0.00    +0.000 N 
ATOM     13  C   UNL     1       1.874   9.235  21.951  0.00  0.00    +0.000 C 
ENDBRANCH   1  12
BRANCH   6  14
ATOM     14  S   UNL     1       3.464   3.172  17.609  0.00  0.00    +0.000 S 
ATOM     15  O   UNL     1       2.976   1.808  17.554  0.00  0.00    +0.000 OA
ATOM     16  O   UNL     1       3.331   4.022  16.445  0.00  0.00    +0.000 OA
BRANCH  14  17
ATOM     17  N   UNL     1       5.114   3.147  17.951  0.00  0.00    +0.000 N 
ATOM     18  C   UNL     1       5.790   4.385  17.935  0.00  0.00    +0.000 A 
ATOM     19  C   UNL     1       5.729   5.285  18.983  0.00  0.00    +0.000 A 
ATOM     20  C   UNL     1       6.492   6.446  18.886  0.00  0.00    +0.000 A 
ATOM     21  C   UNL     1       7.243   6.637  17.740  0.00  0.00    +0.000 A 
ATOM     22 CL   UNL     1       8.231   8.017  17.531  0.00  0.00    +0.000 Cl
ATOM     23  N   UNL     1       7.266   5.745  16.728  0.00  0.00    +0.000 NA
ATOM     24  N   UNL     1       6.529   4.597  16.829  0.00  0.00    +0.000 NA
ATOM     25  H   UNL     1       5.584   2.464  17.363  0.00  0.00    +0.000 HD
ENDBRANCH  14  17
ENDBRANCH   6  14
TORSDOF 3
ENDMDL
MODEL 9
REMARK VINA RESULT:      -6.7      1.597      1.768
REMARK  Name = 
REMARK  5 active torsions:
REMARK  status: ('A' for Active; 'I' for Inactive)
REMARK    1  A    between atoms: C_1  and  N_2
REMARK    2  A    between atoms: N_2  and  C_3
REMARK    3  A    between atoms: N_2  and  C_4
REMARK    4  A    between atoms: C_9  and  S_10
REMARK    5  A    between atoms: S_10  and  N_13
REMARK                            x       y       z     vdW  Elec       q    Type
REMARK                         _______ _______ _______ _____ _____    ______ ____
ROOT
ATOM      1  C   UNL     1       2.396   3.352  18.639  0.00  0.00    +0.000 A 
ATOM      2  C   UNL     1       3.071   2.162  18.315  0.00  0.00    +0.000 A 
ATOM      3  C   UNL     1       4.351   2.171  17.785  0.00  0.00    +0.000 A 
ATOM      4  C   UNL     1       4.981   3.378  17.516  0.00  0.00    +0.000 A 
ATOM      5  C   UNL     1       4.351   4.625  17.732  0.00  0.00    +0.000 A 
ATOM      6  C   UNL     1       4.932   5.891  17.412  0.00  0.00    +0.000 A 
ATOM      7  C   UNL     1       4.244   7.091  17.670  0.00  0.00    +0.000 A 
ATOM      8  C   UNL     1       3.013   7.063  18.296  0.00  0.00    +0.000 A 
ATOM      9  C   UNL     1       2.446   5.840  18.643  0.00  0.00    +0.000 A 
ATOM     10  C   UNL     1       3.048   4.599  18.335  0.00  0.00    +0.000 A 
ENDROOT
BRANCH   1  12
ATOM     11  C   UNL     1       1.096   3.594  20.712  0.00  0.00    +0.000 C 
ATOM     12  N   UNL     1       1.129   3.296  19.277  0.00  0.00    +0.000 N 
ATOM     13  C   UNL     1       0.245   2.201  18.859  0.00  0.00    +0.000 C 
ENDBRANCH   1  12
BRANCH   6  14
ATOM     14  S   UNL     1       6.509   6.102  16.575  0.00  0.00    +0.000 S 
ATOM     15  O   UNL     1       7.201   7.282  17.055  0.00  0.00    +0.000 OA
ATOM     16  O   UNL     1       7.180   4.820  16.612  0.00  0.00    +0.000 OA
BRANCH  14  17
ATOM     17  N   UNL     1       6.091   6.335  14.959  0.00  0.00    +0.000 N 
ATOM     18  C   UNL     1       6.305   5.254  14.079  0.00  0.00    +0.000 A 
ATOM     19  C   UNL     1       5.447   4.172  13.999  0.00  0.00    +0.000 A 
ATOM     20  C   UNL     1       5.722   3.194  13.046  0.00  0.00    +0.000 A 
ATOM     21  C   UNL     1       6.847   3.354  12.257  0.00  0.00    +0.000 A 
ATOM     22 CL   UNL     1       7.262   2.224  11.043  0.00  0.00    +0.000 Cl
ATOM     23  N   UNL     1       7.673   4.415  12.373  0.00  0.00    +0.000 NA
ATOM     24  N   UNL     1       7.395   5.383  13.299  0.00  0.00    +0.000 NA
ATOM     25  H   UNL     1       6.519   7.187  14.605  0.00  0.00    +0.000 HD
ENDBRANCH  14  17
ENDBRANCH   6  14
TORSDOF 3
ENDMDL
