MODEL 1
REMARK VINA RESULT:      -7.3      0.000      0.000
REMARK  Name = 
REMARK  9 active torsions:
REMARK  status: ('A' for Active; 'I' for Inactive)
REMARK    1  A    between atoms: C_1  and  C_2
REMARK    2  A    between atoms: C_2  and  N_3
REMARK    3  A    between atoms: N_10  and  C_11
REMARK    4  A    between atoms: N_17  and  C_18
REMARK    5  A    between atoms: C_18  and  C_19
REMARK    6  A    between atoms: C_22  and  O_23
REMARK    7  A    between atoms: O_23  and  C_24
REMARK    8  A    between atoms: N_28  and  C_29
REMARK    9  A    between atoms: C_29  and  C_30
REMARK                            x       y       z     vdW  Elec       q    Type
REMARK                         _______ _______ _______ _____ _____    ______ ____
ROOT
ATOM      1  N   UNL     1       1.251  11.265  19.506  0.00  0.00    +0.000 N 
ATOM      2  C   UNL     1       1.712  10.265  18.635  0.00  0.00    +0.000 A 
ATOM      3  O   UNL     1       1.983  10.473  17.454  0.00  0.00    +0.000 OA
ATOM      4  C   UNL     1       1.821   8.984  19.250  0.00  0.00    +0.000 A 
ATOM      5  C   UNL     1       1.456   8.769  20.543  0.00  0.00    +0.000 A 
ATOM      6  N   UNL     1       1.576   7.469  20.898  0.00  0.00    +0.000 NA
ATOM      7  C   UNL     1       2.026   6.851  19.827  0.00  0.00    +0.000 A 
ATOM      8  N   UNL     1       2.198   5.508  19.697  0.00  0.00    +0.000 N 
ATOM      9  N   UNL     1       2.245   7.753  18.791  0.00  0.00    +0.000 N 
ATOM     10  N   UNL     1       0.991   9.774  21.360  0.00  0.00    +0.000 N 
ATOM     11  C   UNL     1       0.838  11.058  20.838  0.00  0.00    +0.000 A 
ATOM     12  O   UNL     1       0.368  11.976  21.517  0.00  0.00    +0.000 OA
ATOM     13  H   UNL     1       3.131   5.212  19.430  0.00  0.00    +0.000 HD
ENDROOT
BRANCH   8  14
ATOM     14  C   UNL     1       1.623   4.666  20.771  0.00  0.00    +0.000 C 
ATOM     15  C   UNL     1       0.474   3.809  20.214  0.00  0.00    +0.000 C 
ATOM     16  C   UNL     1       0.968   2.766  19.211  0.00  0.00    +0.000 C 
ATOM     17  C   UNL     1       2.060   1.876  19.794  0.00  0.00    +0.000 C 
ATOM     18  C   UNL     1       3.188   2.661  20.457  0.00  0.00    +0.000 C 
ATOM     19  C   UNL     1       2.683   3.749  21.403  0.00  0.00    +0.000 C 
ENDBRANCH   8  14
BRANCH   1  21
ATOM     20  C   UNL     1       2.447  13.407  19.130  0.00  0.00    +0.000 C 
ATOM     21  C   UNL     1       1.149  12.624  18.984  0.00  0.00    +0.000 C 
ENDBRANCH   1  21
BRANCH  10  22
ATOM     22  C   UNL     1       0.671   9.510  22.761  0.00  0.00    +0.000 C 
ATOM     23  C   UNL     1      -0.790   9.151  22.986  0.00  0.00    +0.000 C 
ENDBRANCH  10  22
BRANCH   9  24
ATOM     24  C   UNL     1       2.613   7.424  17.418  0.00  0.00    +0.000 C 
BRANCH  24  25
ATOM     25  C   UNL     1       3.954   6.735  17.304  0.00  0.00    +0.000 A 
ATOM     26  C   UNL     1       4.054   5.363  17.069  0.00  0.00    +0.000 A 
ATOM     27  C   UNL     1       5.306   4.741  16.980  0.00  0.00    +0.000 A 
ATOM     28  C   UNL     1       6.505   5.460  17.119  0.00  0.00    +0.000 A 
ATOM     29  C   UNL     1       6.412   6.834  17.375  0.00  0.00    +0.000 A 
ATOM     30 CL   UNL     1       7.753   7.898  17.620  0.00  0.00    +0.000 Cl
ATOM     31  C   UNL     1       5.147   7.452  17.469  0.00  0.00    +0.000 A 
BRANCH  28  32
ATOM     32  O   UNL     1       7.591   4.643  16.987  0.00  0.00    +0.000 OA
ATOM     33  C   UNL     1       8.439   4.376  18.087  0.00  0.00    +0.000 C 
ENDBRANCH  28  32
ENDBRANCH  24  25
ENDBRANCH   9  24
TORSDOF 6
ENDMDL
MODEL 2
REMARK VINA RESULT:      -6.9      1.095      1.379
REMARK  Name = 
REMARK  9 active torsions:
REMARK  status: ('A' for Active; 'I' for Inactive)
REMARK    1  A    between atoms: C_1  and  C_2
REMARK    2  A    between atoms: C_2  and  N_3
REMARK    3  A    between atoms: N_10  and  C_11
REMARK    4  A    between atoms: N_17  and  C_18
REMARK    5  A    between atoms: C_18  and  C_19
REMARK    6  A    between atoms: C_22  and  O_23
REMARK    7  A    between atoms: O_23  and  C_24
REMARK    8  A    between atoms: N_28  and  C_29
REMARK    9  A    between atoms: C_29  and  C_30
REMARK                            x       y       z     vdW  Elec       q    Type
REMARK                         _______ _______ _______ _____ _____    ______ ____
ROOT
ATOM      1  N   UNL     1       1.219  11.319  19.599  0.00  0.00    +0.000 N 
ATOM      2  C   UNL     1       1.678  10.335  18.709  0.00  0.00    +0.000 A 
ATOM      3  O   UNL     1       1.933  10.563  17.528  0.00  0.00    +0.000 OA
ATOM      4  C   UNL     1       1.806   9.047  19.304  0.00  0.00    +0.000 A 
ATOM      5  C   UNL     1       1.458   8.811  20.599  0.00  0.00    +0.000 A 
ATOM      6  N   UNL     1       1.594   7.507  20.933  0.00  0.00    +0.000 NA
ATOM      7  C   UNL     1       2.036   6.908  19.848  0.00  0.00    +0.000 A 
ATOM      8  N   UNL     1       2.219   5.569  19.697  0.00  0.00    +0.000 N 
ATOM      9  N   UNL     1       2.235   7.827  18.823  0.00  0.00    +0.000 N 
ATOM     10  N   UNL     1       0.994   9.801  21.435  0.00  0.00    +0.000 N 
ATOM     11  C   UNL     1       0.824  11.090  20.933  0.00  0.00    +0.000 A 
ATOM     12  O   UNL     1       0.354  11.995  21.630  0.00  0.00    +0.000 OA
ATOM     13  H   UNL     1       3.151   5.284  19.416  0.00  0.00    +0.000 HD
ENDROOT
BRANCH   8  14
ATOM     14  C   UNL     1       1.664   4.707  20.766  0.00  0.00    +0.000 C 
ATOM     15  C   UNL     1       0.501   3.863  20.216  0.00  0.00    +0.000 C 
ATOM     16  C   UNL     1       0.971   2.840  19.182  0.00  0.00    +0.000 C 
ATOM     17  C   UNL     1       2.072   1.935  19.724  0.00  0.00    +0.000 C 
ATOM     18  C   UNL     1       3.216   2.705  20.379  0.00  0.00    +0.000 C 
ATOM     19  C   UNL     1       2.734   3.775  21.357  0.00  0.00    +0.000 C 
ENDBRANCH   8  14
BRANCH   1  21
ATOM     20  C   UNL     1       2.364  13.503  19.316  0.00  0.00    +0.000 C 
ATOM     21  C   UNL     1       1.098  12.685  19.097  0.00  0.00    +0.000 C 
ENDBRANCH   1  21
BRANCH  10  22
ATOM     22  C   UNL     1       0.693   9.514  22.835  0.00  0.00    +0.000 C 
ATOM     23  C   UNL     1      -0.798   9.412  23.121  0.00  0.00    +0.000 C 
ENDBRANCH  10  22
BRANCH   9  24
ATOM     24  C   UNL     1       2.589   7.520  17.441  0.00  0.00    +0.000 C 
BRANCH  24  25
ATOM     25  C   UNL     1       3.835   6.672  17.314  0.00  0.00    +0.000 A 
ATOM     26  C   UNL     1       5.107   7.245  17.255  0.00  0.00    +0.000 A 
ATOM     27  C   UNL     1       6.247   6.442  17.123  0.00  0.00    +0.000 A 
ATOM     28  C   UNL     1       6.167   5.042  17.047  0.00  0.00    +0.000 A 
ATOM     29  C   UNL     1       4.892   4.462  17.085  0.00  0.00    +0.000 A 
ATOM     30 CL   UNL     1       4.560   2.769  16.967  0.00  0.00    +0.000 Cl
ATOM     31  C   UNL     1       3.748   5.277  17.212  0.00  0.00    +0.000 A 
BRANCH  28  32
ATOM     32  O   UNL     1       7.406   4.479  16.930  0.00  0.00    +0.000 OA
ATOM     33  C   UNL     1       8.286   4.422  18.035  0.00  0.00    +0.000 C 
ENDBRANCH  28  32
ENDBRANCH  24  25
ENDBRANCH   9  24
TORSDOF 6
ENDMDL
MODEL 3
REMARK VINA RESULT:      -6.5      6.399      8.961
REMARK  Name = 
REMARK  9 active torsions:
REMARK  status: ('A' for Active; 'I' for Inactive)
REMARK    1  A    between atoms: C_1  and  C_2
REMARK    2  A    between atoms: C_2  and  N_3
REMARK    3  A    between atoms: N_10  and  C_11
REMARK    4  A    between atoms: N_17  and  C_18
REMARK    5  A    between atoms: C_18  and  C_19
REMARK    6  A    between atoms: C_22  and  O_23
REMARK    7  A    between atoms: O_23  and  C_24
REMARK    8  A    between atoms: N_28  and  C_29
REMARK    9  A    between atoms: C_29  and  C_30
REMARK                            x       y       z     vdW  Elec       q    Type
REMARK                         _______ _______ _______ _____ _____    ______ ____
ROOT
ATOM      1  N   UNL     1       2.428  15.272  18.565  0.00  0.00    +0.000 N 
ATOM      2  C   UNL     1       1.941  14.075  19.113  0.00  0.00    +0.000 A 
ATOM      3  O   UNL     1       2.322  12.964  18.750  0.00  0.00    +0.000 OA
ATOM      4  C   UNL     1       0.954  14.273  20.121  0.00  0.00    +0.000 A 
ATOM      5  C   UNL     1       0.506  15.513  20.461  0.00  0.00    +0.000 A 
ATOM      6  N   UNL     1      -0.478  15.463  21.387  0.00  0.00    +0.000 NA
ATOM      7  C   UNL     1      -0.657  14.185  21.645  0.00  0.00    +0.000 A 
ATOM      8  N   UNL     1      -1.624  13.663  22.447  0.00  0.00    +0.000 N 
ATOM      9  N   UNL     1       0.242  13.406  20.925  0.00  0.00    +0.000 N 
ATOM     10  N   UNL     1       0.997  16.663  19.886  0.00  0.00    +0.000 N 
ATOM     11  C   UNL     1       1.957  16.563  18.879  0.00  0.00    +0.000 A 
ATOM     12  O   UNL     1       2.381  17.564  18.294  0.00  0.00    +0.000 OA
ATOM     13  H   UNL     1      -1.292  13.074  23.203  0.00  0.00    +0.000 HD
ENDROOT
BRANCH   8  14
ATOM     14  C   UNL     1      -2.689  14.595  22.882  0.00  0.00    +0.000 C 
ATOM     15  C   UNL     1      -3.877  14.534  21.907  0.00  0.00    +0.000 C 
ATOM     16  C   UNL     1      -4.588  13.182  21.949  0.00  0.00    +0.000 C 
ATOM     17  C   UNL     1      -5.039  12.811  23.358  0.00  0.00    +0.000 C 
ATOM     18  C   UNL     1      -3.932  12.948  24.401  0.00  0.00    +0.000 C 
ATOM     19  C   UNL     1      -3.180  14.273  24.303  0.00  0.00    +0.000 C 
ENDBRANCH   8  14
BRANCH   1  21
ATOM     20  C   UNL     1       4.874  15.131  18.164  0.00  0.00    +0.000 C 
ATOM     21  C   UNL     1       3.479  15.178  17.555  0.00  0.00    +0.000 C 
ENDBRANCH   1  21
BRANCH  10  22
ATOM     22  C   UNL     1       0.532  17.975  20.327  0.00  0.00    +0.000 C 
ATOM     23  C   UNL     1      -0.680  18.475  19.554  0.00  0.00    +0.000 C 
ENDBRANCH  10  22
BRANCH   9  24
ATOM     24  C   UNL     1       0.259  11.949  20.849  0.00  0.00    +0.000 C 
BRANCH  24  25
ATOM     25  C   UNL     1      -0.573  11.396  19.713  0.00  0.00    +0.000 A 
ATOM     26  C   UNL     1      -0.038  10.507  18.779  0.00  0.00    +0.000 A 
ATOM     27  C   UNL     1      -0.822  10.017  17.727  0.00  0.00    +0.000 A 
ATOM     28  C   UNL     1      -2.166  10.391  17.564  0.00  0.00    +0.000 A 
ATOM     29  C   UNL     1      -2.703  11.299  18.485  0.00  0.00    +0.000 A 
ATOM     30 CL   UNL     1      -4.316  11.923  18.450  0.00  0.00    +0.000 Cl
ATOM     31  C   UNL     1      -1.906  11.792  19.539  0.00  0.00    +0.000 A 
BRANCH  28  32
ATOM     32  O   UNL     1      -2.722   9.781  16.475  0.00  0.00    +0.000 OA
ATOM     33  C   UNL     1      -2.984  10.507  15.291  0.00  0.00    +0.000 C 
ENDBRANCH  28  32
ENDBRANCH  24  25
ENDBRANCH   9  24
TORSDOF 6
ENDMDL
MODEL 4
REMARK VINA RESULT:      -6.4      1.316      1.533
REMARK  Name = 
REMARK  9 active torsions:
REMARK  status: ('A' for Active; 'I' for Inactive)
REMARK    1  A    between atoms: C_1  and  C_2
REMARK    2  A    between atoms: C_2  and  N_3
REMARK    3  A    between atoms: N_10  and  C_11
REMARK    4  A    between atoms: N_17  and  C_18
REMARK    5  A    between atoms: C_18  and  C_19
REMARK    6  A    between atoms: C_22  and  O_23
REMARK    7  A    between atoms: O_23  and  C_24
REMARK    8  A    between atoms: N_28  and  C_29
REMARK    9  A    between atoms: C_29  and  C_30
REMARK                            x       y       z     vdW  Elec       q    Type
REMARK                         _______ _______ _______ _____ _____    ______ ____
ROOT
ATOM      1  N   UNL     1       1.020  10.895  19.256  0.00  0.00    +0.000 N 
ATOM      2  C   UNL     1       1.793  10.108  18.387  0.00  0.00    +0.000 A 
ATOM      3  O   UNL     1       2.280  10.536  17.344  0.00  0.00    +0.000 OA
ATOM      4  C   UNL     1       1.944   8.761  18.827  0.00  0.00    +0.000 A 
ATOM      5  C   UNL     1       1.342   8.297  19.957  0.00  0.00    +0.000 A 
ATOM      6  N   UNL     1       1.564   6.975  20.146  0.00  0.00    +0.000 NA
ATOM      7  C   UNL     1       2.315   6.594  19.135  0.00  0.00    +0.000 A 
ATOM      8  N   UNL     1       2.696   5.317  18.864  0.00  0.00    +0.000 N 
ATOM      9  N   UNL     1       2.624   7.674  18.315  0.00  0.00    +0.000 N 
ATOM     10  N   UNL     1       0.577   9.098  20.773  0.00  0.00    +0.000 N 
ATOM     11  C   UNL     1       0.363  10.428  20.412  0.00  0.00    +0.000 A 
ATOM     12  O   UNL     1      -0.365  11.166  21.082  0.00  0.00    +0.000 OA
ATOM     13  H   UNL     1       3.697   5.168  18.786  0.00  0.00    +0.000 HD
ENDROOT
BRANCH   8  14
ATOM     14  C   UNL     1       2.026   4.253  19.647  0.00  0.00    +0.000 C 
ATOM     15  C   UNL     1       1.253   3.313  18.707  0.00  0.00    +0.000 C 
ATOM     16  C   UNL     1       2.185   2.512  17.798  0.00  0.00    +0.000 C 
ATOM     17  C   UNL     1       3.230   1.731  18.587  0.00  0.00    +0.000 C 
ATOM     18  C   UNL     1       3.970   2.583  19.616  0.00  0.00    +0.000 C 
ATOM     19  C   UNL     1       3.033   3.434  20.471  0.00  0.00    +0.000 C 
ENDBRANCH   8  14
BRANCH   1  21
ATOM     20  C   UNL     1       1.949  13.185  19.486  0.00  0.00    +0.000 C 
ATOM     21  C   UNL     1       0.845  12.305  18.918  0.00  0.00    +0.000 C 
ENDBRANCH   1  21
BRANCH  10  22
ATOM     22  C   UNL     1       0.003   8.572  22.008  0.00  0.00    +0.000 C 
ATOM     23  C   UNL     1       0.340   9.409  23.233  0.00  0.00    +0.000 C 
ENDBRANCH  10  22
BRANCH   9  24
ATOM     24  C   UNL     1       3.321   7.619  17.034  0.00  0.00    +0.000 C 
BRANCH  24  25
ATOM     25  C   UNL     1       4.553   6.741  17.058  0.00  0.00    +0.000 A 
ATOM     26  C   UNL     1       5.530   6.879  18.045  0.00  0.00    +0.000 A 
ATOM     27  C   UNL     1       6.670   6.064  18.041  0.00  0.00    +0.000 A 
ATOM     28  C   UNL     1       6.880   5.083  17.058  0.00  0.00    +0.000 A 
ATOM     29  C   UNL     1       5.913   4.953  16.053  0.00  0.00    +0.000 A 
ATOM     30 CL   UNL     1       5.989   3.843  14.730  0.00  0.00    +0.000 Cl
ATOM     31  C   UNL     1       4.770   5.780  16.061  0.00  0.00    +0.000 A 
BRANCH  28  32
ATOM     32  O   UNL     1       8.053   4.415  17.267  0.00  0.00    +0.000 OA
ATOM     33  C   UNL     1       8.677   4.420  18.536  0.00  0.00    +0.000 C 
ENDBRANCH  28  32
ENDBRANCH  24  25
ENDBRANCH   9  24
TORSDOF 6
ENDMDL
MODEL 5
REMARK VINA RESULT:      -6.2      5.352     10.854
REMARK  Name = 
REMARK  9 active torsions:
REMARK  status: ('A' for Active; 'I' for Inactive)
REMARK    1  A    between atoms: C_1  and  C_2
REMARK    2  A    between atoms: C_2  and  N_3
REMARK    3  A    between atoms: N_10  and  C_11
REMARK    4  A    between atoms: N_17  and  C_18
REMARK    5  A    between atoms: C_18  and  C_19
REMARK    6  A    between atoms: C_22  and  O_23
REMARK    7  A    between atoms: O_23  and  C_24
REMARK    8  A    between atoms: N_28  and  C_29
REMARK    9  A    between atoms: C_29  and  C_30
REMARK                            x       y       z     vdW  Elec       q    Type
REMARK                         _______ _______ _______ _____ _____    ______ ____
ROOT
ATOM      1  N   UNL     1       0.925  10.930  19.182  0.00  0.00    +0.000 N 
ATOM      2  C   UNL     1       0.022  10.836  20.253  0.00  0.00    +0.000 A 
ATOM      3  O   UNL     1      -0.704   9.862  20.438  0.00  0.00    +0.000 OA
ATOM      4  C   UNL     1       0.021  11.985  21.095  0.00  0.00    +0.000 A 
ATOM      5  C   UNL     1       0.793  13.075  20.832  0.00  0.00    +0.000 A 
ATOM      6  N   UNL     1       0.582  14.075  21.720  0.00  0.00    +0.000 NA
ATOM      7  C   UNL     1      -0.324  13.618  22.558  0.00  0.00    +0.000 A 
ATOM      8  N   UNL     1      -0.912  14.329  23.558  0.00  0.00    +0.000 N 
ATOM      9  N   UNL     1      -0.668  12.307  22.247  0.00  0.00    +0.000 N 
ATOM     10  N   UNL     1       1.653  13.135  19.760  0.00  0.00    +0.000 N 
ATOM     11  C   UNL     1       1.709  12.060  18.873  0.00  0.00    +0.000 A 
ATOM     12  O   UNL     1       2.421  12.095  17.866  0.00  0.00    +0.000 OA
ATOM     13  H   UNL     1      -0.832  13.925  24.485  0.00  0.00    +0.000 HD
ENDROOT
BRANCH   8  14
ATOM     14  C   UNL     1      -0.671  15.790  23.554  0.00  0.00    +0.000 C 
ATOM     15  C   UNL     1      -1.775  16.507  22.759  0.00  0.00    +0.000 C 
ATOM     16  C   UNL     1      -3.138  16.402  23.442  0.00  0.00    +0.000 C 
ATOM     17  C   UNL     1      -3.103  16.912  24.879  0.00  0.00    +0.000 C 
ATOM     18  C   UNL     1      -1.964  16.317  25.703  0.00  0.00    +0.000 C 
ATOM     19  C   UNL     1      -0.619  16.360  24.981  0.00  0.00    +0.000 C 
ENDBRANCH   8  14
BRANCH   1  21
ATOM     20  C   UNL     1       2.042   8.751  18.776  0.00  0.00    +0.000 C 
ATOM     21  C   UNL     1       1.036   9.782  18.286  0.00  0.00    +0.000 C 
ENDBRANCH   1  21
BRANCH  10  22
ATOM     22  C   UNL     1       2.508  14.301  19.553  0.00  0.00    +0.000 C 
ATOM     23  C   UNL     1       1.853  15.385  18.710  0.00  0.00    +0.000 C 
ENDBRANCH  10  22
BRANCH   9  24
ATOM     24  C   UNL     1      -1.729  11.519  22.866  0.00  0.00    +0.000 C 
BRANCH  24  25
ATOM     25  C   UNL     1      -3.060  12.236  22.914  0.00  0.00    +0.000 A 
ATOM     26  C   UNL     1      -3.768  12.385  24.108  0.00  0.00    +0.000 A 
ATOM     27  C   UNL     1      -5.006  13.040  24.129  0.00  0.00    +0.000 A 
ATOM     28  C   UNL     1      -5.585  13.573  22.965  0.00  0.00    +0.000 A 
ATOM     29  C   UNL     1      -4.890  13.410  21.760  0.00  0.00    +0.000 A 
ATOM     30 CL   UNL     1      -5.434  13.949  20.211  0.00  0.00    +0.000 Cl
ATOM     31  C   UNL     1      -3.646  12.744  21.746  0.00  0.00    +0.000 A 
BRANCH  28  32
ATOM     32  O   UNL     1      -6.784  14.169  23.236  0.00  0.00    +0.000 OA
ATOM     33  C   UNL     1      -6.888  15.573  23.357  0.00  0.00    +0.000 C 
ENDBRANCH  28  32
ENDBRANCH  24  25
ENDBRANCH   9  24
TORSDOF 6
ENDMDL
MODEL 6
REMARK VINA RESULT:      -6.2      0.994      1.042
REMARK  Name = 
REMARK  9 active torsions:
REMARK  status: ('A' for Active; 'I' for Inactive)
REMARK    1  A    between atoms: C_1  and  C_2
REMARK    2  A    between atoms: C_2  and  N_3
REMARK    3  A    between atoms: N_10  and  C_11
REMARK    4  A    between atoms: N_17  and  C_18
REMARK    5  A    between atoms: C_18  and  C_19
REMARK    6  A    between atoms: C_22  and  O_23
REMARK    7  A    between atoms: O_23  and  C_24
REMARK    8  A    between atoms: N_28  and  C_29
REMARK    9  A    between atoms: C_29  and  C_30
REMARK                            x       y       z     vdW  Elec       q    Type
REMARK                         _______ _______ _______ _____ _____    ______ ____
ROOT
ATOM      1  N   UNL     1       0.609  10.714  19.204  0.00  0.00    +0.000 N 
ATOM      2  C   UNL     1       1.447   9.811  18.530  0.00  0.00    +0.000 A 
ATOM      3  O   UNL     1       1.976  10.062  17.449  0.00  0.00    +0.000 OA
ATOM      4  C   UNL     1       1.612   8.573  19.214  0.00  0.00    +0.000 A 
ATOM      5  C   UNL     1       0.966   8.299  20.381  0.00  0.00    +0.000 A 
ATOM      6  N   UNL     1       1.214   7.042  20.818  0.00  0.00    +0.000 NA
ATOM      7  C   UNL     1       2.027   6.513  19.929  0.00  0.00    +0.000 A 
ATOM      8  N   UNL     1       2.457   5.222  19.914  0.00  0.00    +0.000 N 
ATOM      9  N   UNL     1       2.348   7.437  18.941  0.00  0.00    +0.000 N 
ATOM     10  N   UNL     1       0.138   9.206  21.001  0.00  0.00    +0.000 N 
ATOM     11  C   UNL     1      -0.094  10.440  20.395  0.00  0.00    +0.000 A 
ATOM     12  O   UNL     1      -0.876  11.260  20.884  0.00  0.00    +0.000 OA
ATOM     13  H   UNL     1       3.463   5.098  19.909  0.00  0.00    +0.000 HD
ENDROOT
BRANCH   8  14
ATOM     14  C   UNL     1       1.776   4.294  20.845  0.00  0.00    +0.000 C 
ATOM     15  C   UNL     1       0.530   3.690  20.176  0.00  0.00    +0.000 C 
ATOM     16  C   UNL     1       0.891   2.775  19.006  0.00  0.00    +0.000 C 
ATOM     17  C   UNL     1       1.860   1.670  19.415  0.00  0.00    +0.000 C 
ATOM     18  C   UNL     1       3.076   2.188  20.178  0.00  0.00    +0.000 C 
ATOM     19  C   UNL     1       2.710   3.159  21.298  0.00  0.00    +0.000 C 
ENDBRANCH   8  14
BRANCH   1  21
ATOM     20  C   UNL     1       1.423  13.057  19.104  0.00  0.00    +0.000 C 
ATOM     21  C   UNL     1       0.412  12.032  18.606  0.00  0.00    +0.000 C 
ENDBRANCH   1  21
BRANCH  10  22
ATOM     22  C   UNL     1      -0.485   8.892  22.284  0.00  0.00    +0.000 C 
ATOM     23  C   UNL     1       0.119   9.660  23.450  0.00  0.00    +0.000 C 
ENDBRANCH  10  22
BRANCH   9  24
ATOM     24  C   UNL     1       3.111   7.176  17.725  0.00  0.00    +0.000 C 
BRANCH  24  25
ATOM     25  C   UNL     1       4.502   6.643  17.991  0.00  0.00    +0.000 A 
ATOM     26  C   UNL     1       4.705   5.403  18.599  0.00  0.00    +0.000 A 
ATOM     27  C   UNL     1       6.001   4.933  18.849  0.00  0.00    +0.000 A 
ATOM     28  C   UNL     1       7.141   5.677  18.503  0.00  0.00    +0.000 A 
ATOM     29  C   UNL     1       6.944   6.931  17.911  0.00  0.00    +0.000 A 
ATOM     30 CL   UNL     1       8.199   8.025  17.444  0.00  0.00    +0.000 Cl
ATOM     31  C   UNL     1       5.636   7.399  17.668  0.00  0.00    +0.000 A 
BRANCH  28  32
ATOM     32  O   UNL     1       8.287   5.012  18.837  0.00  0.00    +0.000 OA
ATOM     33  C   UNL     1       8.795   5.057  20.156  0.00  0.00    +0.000 C 
ENDBRANCH  28  32
ENDBRANCH  24  25
ENDBRANCH   9  24
TORSDOF 6
ENDMDL
MODEL 7
REMARK VINA RESULT:      -6.2      7.080      9.569
REMARK  Name = 
REMARK  9 active torsions:
REMARK  status: ('A' for Active; 'I' for Inactive)
REMARK    1  A    between atoms: C_1  and  C_2
REMARK    2  A    between atoms: C_2  and  N_3
REMARK    3  A    between atoms: N_10  and  C_11
REMARK    4  A    between atoms: N_17  and  C_18
REMARK    5  A    between atoms: C_18  and  C_19
REMARK    6  A    between atoms: C_22  and  O_23
REMARK    7  A    between atoms: O_23  and  C_24
REMARK    8  A    between atoms: N_28  and  C_29
REMARK    9  A    between atoms: C_29  and  C_30
REMARK                            x       y       z     vdW  Elec       q    Type
REMARK                         _______ _______ _______ _____ _____    ______ ____
ROOT
ATOM      1  N   UNL     1      -3.180  10.920  18.047  0.00  0.00    +0.000 N 
ATOM      2  C   UNL     1      -2.089  11.319  18.836  0.00  0.00    +0.000 A 
ATOM      3  O   UNL     1      -0.956  10.864  18.699  0.00  0.00    +0.000 OA
ATOM      4  C   UNL     1      -2.429  12.291  19.821  0.00  0.00    +0.000 A 
ATOM      5  C   UNL     1      -3.705  12.733  19.992  0.00  0.00    +0.000 A 
ATOM      6  N   UNL     1      -3.811  13.599  21.026  0.00  0.00    +0.000 NA
ATOM      7  C   UNL     1      -2.595  13.717  21.514  0.00  0.00    +0.000 A 
ATOM      8  N   UNL     1      -2.250  14.412  22.631  0.00  0.00    +0.000 N 
ATOM      9  N   UNL     1      -1.690  12.967  20.771  0.00  0.00    +0.000 N 
ATOM     10  N   UNL     1      -4.751  12.302  19.207  0.00  0.00    +0.000 N 
ATOM     11  C   UNL     1      -4.513  11.340  18.227  0.00  0.00    +0.000 A 
ATOM     12  O   UNL     1      -5.431  10.881  17.541  0.00  0.00    +0.000 OA
ATOM     13  H   UNL     1      -1.536  15.120  22.501  0.00  0.00    +0.000 HD
ENDROOT
BRANCH   8  14
ATOM     14  C   UNL     1      -3.368  14.886  23.479  0.00  0.00    +0.000 C 
ATOM     15  C   UNL     1      -3.090  14.555  24.955  0.00  0.00    +0.000 C 
ATOM     16  C   UNL     1      -1.902  15.343  25.509  0.00  0.00    +0.000 C 
ATOM     17  C   UNL     1      -2.072  16.847  25.326  0.00  0.00    +0.000 C 
ATOM     18  C   UNL     1      -2.451  17.242  23.901  0.00  0.00    +0.000 C 
ATOM     19  C   UNL     1      -3.591  16.400  23.331  0.00  0.00    +0.000 C 
ENDBRANCH   8  14
BRANCH   1  21
ATOM     20  C   UNL     1      -2.701  10.631  15.628  0.00  0.00    +0.000 C 
ATOM     21  C   UNL     1      -2.926   9.960  16.977  0.00  0.00    +0.000 C 
ENDBRANCH   1  21
BRANCH  10  22
ATOM     22  C   UNL     1      -6.093  12.851  19.386  0.00  0.00    +0.000 C 
ATOM     23  C   UNL     1      -6.942  12.056  20.366  0.00  0.00    +0.000 C 
ENDBRANCH  10  22
BRANCH   9  24
ATOM     24  C   UNL     1      -0.283  12.744  21.087  0.00  0.00    +0.000 C 
BRANCH  24  25
ATOM     25  C   UNL     1       0.664  13.498  20.179  0.00  0.00    +0.000 A 
ATOM     26  C   UNL     1       1.929  12.999  19.865  0.00  0.00    +0.000 A 
ATOM     27  C   UNL     1       2.795  13.720  19.033  0.00  0.00    +0.000 A 
ATOM     28  C   UNL     1       2.437  14.960  18.481  0.00  0.00    +0.000 A 
ATOM     29  C   UNL     1       1.177  15.477  18.809  0.00  0.00    +0.000 A 
ATOM     30 CL   UNL     1       0.550  16.998  18.277  0.00  0.00    +0.000 Cl
ATOM     31  C   UNL     1       0.311  14.748  19.652  0.00  0.00    +0.000 A 
BRANCH  28  32
ATOM     32  O   UNL     1       3.438  15.465  17.701  0.00  0.00    +0.000 OA
ATOM     33  C   UNL     1       4.767  15.000  17.834  0.00  0.00    +0.000 C 
ENDBRANCH  28  32
ENDBRANCH  24  25
ENDBRANCH   9  24
TORSDOF 6
ENDMDL
MODEL 8
REMARK VINA RESULT:      -6.1      6.578      9.353
REMARK  Name = 
REMARK  9 active torsions:
REMARK  status: ('A' for Active; 'I' for Inactive)
REMARK    1  A    between atoms: C_1  and  C_2
REMARK    2  A    between atoms: C_2  and  N_3
REMARK    3  A    between atoms: N_10  and  C_11
REMARK    4  A    between atoms: N_17  and  C_18
REMARK    5  A    between atoms: C_18  and  C_19
REMARK    6  A    between atoms: C_22  and  O_23
REMARK    7  A    between atoms: O_23  and  C_24
REMARK    8  A    between atoms: N_28  and  C_29
REMARK    9  A    between atoms: C_29  and  C_30
REMARK                            x       y       z     vdW  Elec       q    Type
REMARK                         _______ _______ _______ _____ _____    ______ ____
ROOT
ATOM      1  N   UNL     1      -3.071  13.600  23.845  0.00  0.00    +0.000 N 
ATOM      2  C   UNL     1      -2.259  12.828  22.999  0.00  0.00    +0.000 A 
ATOM      3  O   UNL     1      -2.270  11.599  22.993  0.00  0.00    +0.000 OA
ATOM      4  C   UNL     1      -1.412  13.608  22.161  0.00  0.00    +0.000 A 
ATOM      5  C   UNL     1      -1.376  14.968  22.233  0.00  0.00    +0.000 A 
ATOM      6  N   UNL     1      -0.453  15.498  21.398  0.00  0.00    +0.000 NA
ATOM      7  C   UNL     1       0.101  14.473  20.786  0.00  0.00    +0.000 A 
ATOM      8  N   UNL     1       1.156  14.533  19.929  0.00  0.00    +0.000 N 
ATOM      9  N   UNL     1      -0.493  13.280  21.184  0.00  0.00    +0.000 N 
ATOM     10  N   UNL     1      -2.177  15.687  23.089  0.00  0.00    +0.000 N 
ATOM     11  C   UNL     1      -3.029  15.005  23.958  0.00  0.00    +0.000 A 
ATOM     12  O   UNL     1      -3.721  15.606  24.784  0.00  0.00    +0.000 OA
ATOM     13  H   UNL     1       0.997  14.128  19.013  0.00  0.00    +0.000 HD
ENDROOT
BRANCH   8  14
ATOM     14  C   UNL     1       1.870  15.828  19.859  0.00  0.00    +0.000 C 
ATOM     15  C   UNL     1       3.190  15.748  20.643  0.00  0.00    +0.000 C 
ATOM     16  C   UNL     1       4.188  14.788  19.996  0.00  0.00    +0.000 C 
ATOM     17  C   UNL     1       4.460  15.136  18.536  0.00  0.00    +0.000 C 
ATOM     18  C   UNL     1       3.187  15.332  17.716  0.00  0.00    +0.000 C 
ATOM     19  C   UNL     1       2.166  16.235  18.406  0.00  0.00    +0.000 C 
ENDBRANCH   8  14
BRANCH   1  21
ATOM     20  C   UNL     1      -5.399  12.774  24.097  0.00  0.00    +0.000 C 
ATOM     21  C   UNL     1      -4.011  12.894  24.712  0.00  0.00    +0.000 C 
ENDBRANCH   1  21
BRANCH  10  22
ATOM     22  C   UNL     1      -2.150  17.147  23.087  0.00  0.00    +0.000 C 
ATOM     23  C   UNL     1      -1.148  17.732  24.070  0.00  0.00    +0.000 C 
ENDBRANCH  10  22
BRANCH   9  24
ATOM     24  C   UNL     1      -0.061  11.934  20.824  0.00  0.00    +0.000 C 
BRANCH  24  25
ATOM     25  C   UNL     1      -0.808  11.359  19.641  0.00  0.00    +0.000 A 
ATOM     26  C   UNL     1      -0.210  10.446  18.772  0.00  0.00    +0.000 A 
ATOM     27  C   UNL     1      -0.915   9.935  17.674  0.00  0.00    +0.000 A 
ATOM     28  C   UNL     1      -2.240  10.312  17.401  0.00  0.00    +0.000 A 
ATOM     29  C   UNL     1      -2.840  11.243  18.258  0.00  0.00    +0.000 A 
ATOM     30 CL   UNL     1      -4.441  11.873  18.086  0.00  0.00    +0.000 Cl
ATOM     31  C   UNL     1      -2.122  11.757  19.358  0.00  0.00    +0.000 A 
BRANCH  28  32
ATOM     32  O   UNL     1      -2.716   9.679  16.288  0.00  0.00    +0.000 OA
ATOM     33  C   UNL     1      -2.927  10.389  15.083  0.00  0.00    +0.000 C 
ENDBRANCH  28  32
ENDBRANCH  24  25
ENDBRANCH   9  24
TORSDOF 6
ENDMDL
MODEL 9
REMARK VINA RESULT:      -6.1      7.622     10.879
REMARK  Name = 
REMARK  9 active torsions:
REMARK  status: ('A' for Active; 'I' for Inactive)
REMARK    1  A    between atoms: C_1  and  C_2
REMARK    2  A    between atoms: C_2  and  N_3
REMARK    3  A    between atoms: N_10  and  C_11
REMARK    4  A    between atoms: N_17  and  C_18
REMARK    5  A    between atoms: C_18  and  C_19
REMARK    6  A    between atoms: C_22  and  O_23
REMARK    7  A    between atoms: O_23  and  C_24
REMARK    8  A    between atoms: N_28  and  C_29
REMARK    9  A    between atoms: C_29  and  C_30
REMARK                            x       y       z     vdW  Elec       q    Type
REMARK                         _______ _______ _______ _____ _____    ______ ____
ROOT
ATOM      1  N   UNL     1      10.320  14.669  18.145  0.00  0.00    +0.000 N 
ATOM      2  C   UNL     1       9.509  15.333  19.078  0.00  0.00    +0.000 A 
ATOM      3  O   UNL     1       9.340  16.551  19.078  0.00  0.00    +0.000 OA
ATOM      4  C   UNL     1       8.913  14.460  20.033  0.00  0.00    +0.000 A 
ATOM      5  C   UNL     1       9.166  13.122  20.047  0.00  0.00    +0.000 A 
ATOM      6  N   UNL     1       8.551  12.498  21.078  0.00  0.00    +0.000 NA
ATOM      7  C   UNL     1       7.898  13.441  21.724  0.00  0.00    +0.000 A 
ATOM      8  N   UNL     1       7.220  13.282  22.892  0.00  0.00    +0.000 N 
ATOM      9  N   UNL     1       8.046  14.668  21.087  0.00  0.00    +0.000 N 
ATOM     10  N   UNL     1       9.983  12.512  19.123  0.00  0.00    +0.000 N 
ATOM     11  C   UNL     1      10.620  13.292  18.159  0.00  0.00    +0.000 A 
ATOM     12  O   UNL     1      11.408  12.796  17.349  0.00  0.00    +0.000 OA
ATOM     13  H   UNL     1       6.246  13.562  22.872  0.00  0.00    +0.000 HD
ENDROOT
BRANCH   8  14
ATOM     14  C   UNL     1       7.425  11.996  23.599  0.00  0.00    +0.000 C 
ATOM     15  C   UNL     1       8.591  12.119  24.594  0.00  0.00    +0.000 C 
ATOM     16  C   UNL     1       8.270  13.076  25.742  0.00  0.00    +0.000 C 
ATOM     17  C   UNL     1       6.988  12.692  26.473  0.00  0.00    +0.000 C 
ATOM     18  C   UNL     1       5.808  12.453  25.534  0.00  0.00    +0.000 C 
ATOM     19  C   UNL     1       6.159  11.554  24.350  0.00  0.00    +0.000 C 
ENDBRANCH   8  14
BRANCH   1  21
ATOM     20  C   UNL     1      12.296  16.030  17.506  0.00  0.00    +0.000 C 
ATOM     21  C   UNL     1      10.941  15.472  17.094  0.00  0.00    +0.000 C 
ENDBRANCH   1  21
BRANCH  10  22
ATOM     22  C   UNL     1      10.175  11.064  19.139  0.00  0.00    +0.000 C 
ATOM     23  C   UNL     1       9.060  10.302  18.439  0.00  0.00    +0.000 C 
ENDBRANCH  10  22
BRANCH   9  24
ATOM     24  C   UNL     1       7.581  15.961  21.578  0.00  0.00    +0.000 C 
BRANCH  24  25
ATOM     25  C   UNL     1       6.280  16.410  20.948  0.00  0.00    +0.000 A 
ATOM     26  C   UNL     1       5.508  17.427  21.512  0.00  0.00    +0.000 A 
ATOM     27  C   UNL     1       4.300  17.819  20.920  0.00  0.00    +0.000 A 
ATOM     28  C   UNL     1       3.816  17.217  19.748  0.00  0.00    +0.000 A 
ATOM     29  C   UNL     1       4.576  16.181  19.188  0.00  0.00    +0.000 A 
ATOM     30 CL   UNL     1       4.150  15.278  17.777  0.00  0.00    +0.000 Cl
ATOM     31  C   UNL     1       5.789  15.788  19.793  0.00  0.00    +0.000 A 
BRANCH  28  32
ATOM     32  O   UNL     1       2.629  17.770  19.359  0.00  0.00    +0.000 OA
ATOM     33  C   UNL     1       1.417  17.052  19.485  0.00  0.00    +0.000 C 
ENDBRANCH  28  32
ENDBRANCH  24  25
ENDBRANCH   9  24
TORSDOF 6
ENDMDL
