MODEL 1
REMARK VINA RESULT:      -8.3      0.000      0.000
REMARK  Name = 
REMARK  7 active torsions:
REMARK  status: ('A' for Active; 'I' for Inactive)
REMARK    1  A    between atoms: C_1  and  C_2
REMARK    2  A    between atoms: C_2  and  C_3
REMARK    3  A    between atoms: C_3  and  C_4
REMARK    4  A    between atoms: C_3  and  C_6
REMARK    5  A    between atoms: C_4  and  C_5
REMARK    6  A    between atoms: N_8  and  C_9
REMARK    7  A    between atoms: N_13  and  C_14
REMARK                            x       y       z     vdW  Elec       q    Type
REMARK                         _______ _______ _______ _____ _____    ______ ____
ROOT
ATOM      1  C   UNL     1       4.248   3.974  17.153  0.00  0.00    +0.000 A 
ATOM      2  C   UNL     1       4.029   5.126  17.873  0.00  0.00    +0.000 A 
ATOM      3  C   UNL     1       2.980   4.967  18.843  0.00  0.00    +0.000 A 
ATOM      4  C   UNL     1       2.340   5.840  19.751  0.00  0.00    +0.000 A 
ATOM      5  N   UNL     1       2.604   7.218  19.804  0.00  0.00    +0.000 N 
ATOM      6  N   UNL     1       1.428   5.310  20.606  0.00  0.00    +0.000 NA
ATOM      7  C   UNL     1       1.140   4.005  20.538  0.00  0.00    +0.000 A 
ATOM      8  N   UNL     1       1.606   3.121  19.659  0.00  0.00    +0.000 NA
ATOM      9  C   UNL     1       2.514   3.659  18.829  0.00  0.00    +0.000 A 
ATOM     10  S   UNL     1       3.186   2.726  17.568  0.00  0.00    +0.000 S 
ATOM     11  H   UNL     1       3.386   7.525  19.239  0.00  0.00    +0.000 HD
ENDROOT
BRANCH   5  12
ATOM     12  C   UNL     1       1.701   8.253  20.133  0.00  0.00    +0.000 A 
ATOM     13  C   UNL     1       1.177   9.129  19.169  0.00  0.00    +0.000 A 
ATOM     14  C   UNL     1       0.266  10.130  19.512  0.00  0.00    +0.000 A 
ATOM     15  C   UNL     1      -0.156  10.251  20.829  0.00  0.00    +0.000 A 
ATOM     16  F   UNL     1      -1.033  11.213  21.143  0.00  0.00    +0.000 F 
ATOM     17  C   UNL     1       0.336   9.383  21.801  0.00  0.00    +0.000 A 
ATOM     18 CL   UNL     1      -0.202   9.513  23.435  0.00  0.00    +0.000 Cl
ATOM     19  C   UNL     1       1.260   8.389  21.458  0.00  0.00    +0.000 A 
ENDBRANCH   5  12
BRANCH   1  22
ATOM     20  C   UNL     1       5.469   4.558  15.183  0.00  0.00    +0.000 C 
ATOM     21  O   UNL     1       5.025   5.707  15.149  0.00  0.00    +0.000 OA
ATOM     22  N   UNL     1       5.166   3.651  16.177  0.00  0.00    +0.000 N 
ATOM     23  H   UNL     1       5.809   2.893  16.375  0.00  0.00    +0.000 HD
BRANCH  20  24
ATOM     24  C   UNL     1       6.421   4.032  14.100  0.00  0.00    +0.000 C 
BRANCH  24  26
ATOM     25  C   UNL     1       6.094   2.590  11.981  0.00  0.00    +0.000 C 
ATOM     26  C   UNL     1       5.596   3.750  12.825  0.00  0.00    +0.000 C 
ENDBRANCH  24  26
BRANCH  24  27
ATOM     27  C   UNL     1       7.652   4.926  13.869  0.00  0.00    +0.000 C 
ATOM     28  C   UNL     1       7.804   5.474  12.455  0.00  0.00    +0.000 C 
ENDBRANCH  24  27
ENDBRANCH  20  24
ENDBRANCH   1  22
TORSDOF 5
ENDMDL
MODEL 2
REMARK VINA RESULT:      -8.1      1.038      1.403
REMARK  Name = 
REMARK  7 active torsions:
REMARK  status: ('A' for Active; 'I' for Inactive)
REMARK    1  A    between atoms: C_1  and  C_2
REMARK    2  A    between atoms: C_2  and  C_3
REMARK    3  A    between atoms: C_3  and  C_4
REMARK    4  A    between atoms: C_3  and  C_6
REMARK    5  A    between atoms: C_4  and  C_5
REMARK    6  A    between atoms: N_8  and  C_9
REMARK    7  A    between atoms: N_13  and  C_14
REMARK                            x       y       z     vdW  Elec       q    Type
REMARK                         _______ _______ _______ _____ _____    ______ ____
ROOT
ATOM      1  C   UNL     1       4.219   3.891  17.229  0.00  0.00    +0.000 A 
ATOM      2  C   UNL     1       3.987   5.030  17.966  0.00  0.00    +0.000 A 
ATOM      3  C   UNL     1       2.972   4.830  18.966  0.00  0.00    +0.000 A 
ATOM      4  C   UNL     1       2.335   5.675  19.901  0.00  0.00    +0.000 A 
ATOM      5  N   UNL     1       2.559   7.060  19.960  0.00  0.00    +0.000 N 
ATOM      6  N   UNL     1       1.465   5.110  20.778  0.00  0.00    +0.000 NA
ATOM      7  C   UNL     1       1.215   3.798  20.706  0.00  0.00    +0.000 A 
ATOM      8  N   UNL     1       1.680   2.936  19.805  0.00  0.00    +0.000 NA
ATOM      9  C   UNL     1       2.546   3.509  18.953  0.00  0.00    +0.000 A 
ATOM     10  S   UNL     1       3.208   2.608  17.664  0.00  0.00    +0.000 S 
ATOM     11  H   UNL     1       3.312   7.396  19.374  0.00  0.00    +0.000 HD
ENDROOT
BRANCH   5  12
ATOM     12  C   UNL     1       1.634   8.064  20.326  0.00  0.00    +0.000 A 
ATOM     13  C   UNL     1       1.170   8.214  21.642  0.00  0.00    +0.000 A 
ATOM     14  C   UNL     1       0.274   9.229  21.987  0.00  0.00    +0.000 A 
ATOM     15  C   UNL     1      -0.148  10.129  21.018  0.00  0.00    +0.000 A 
ATOM     16  F   UNL     1      -1.004  11.100  21.365  0.00  0.00    +0.000 F 
ATOM     17  C   UNL     1       0.312  10.012  19.709  0.00  0.00    +0.000 A 
ATOM     18 CL   UNL     1      -0.191  11.141  18.506  0.00  0.00    +0.000 Cl
ATOM     19  C   UNL     1       1.199   8.985  19.361  0.00  0.00    +0.000 A 
ENDBRANCH   5  12
BRANCH   1  22
ATOM     20  C   UNL     1       5.439   4.567  15.288  0.00  0.00    +0.000 C 
ATOM     21  O   UNL     1       5.033   5.729  15.336  0.00  0.00    +0.000 OA
ATOM     22  N   UNL     1       5.116   3.604  16.223  0.00  0.00    +0.000 N 
ATOM     23  H   UNL     1       5.735   2.815  16.361  0.00  0.00    +0.000 HD
BRANCH  20  24
ATOM     24  C   UNL     1       6.363   4.084  14.161  0.00  0.00    +0.000 C 
BRANCH  24  26
ATOM     25  C   UNL     1       5.914   2.691  12.032  0.00  0.00    +0.000 C 
ATOM     26  C   UNL     1       5.509   3.876  12.891  0.00  0.00    +0.000 C 
ENDBRANCH  24  26
BRANCH  24  27
ATOM     27  C   UNL     1       7.600   4.974  13.949  0.00  0.00    +0.000 C 
ATOM     28  C   UNL     1       7.862   5.394  12.508  0.00  0.00    +0.000 C 
ENDBRANCH  24  27
ENDBRANCH  20  24
ENDBRANCH   1  22
TORSDOF 5
ENDMDL
MODEL 3
REMARK VINA RESULT:      -8.0      5.529      9.921
REMARK  Name = 
REMARK  7 active torsions:
REMARK  status: ('A' for Active; 'I' for Inactive)
REMARK    1  A    between atoms: C_1  and  C_2
REMARK    2  A    between atoms: C_2  and  C_3
REMARK    3  A    between atoms: C_3  and  C_4
REMARK    4  A    between atoms: C_3  and  C_6
REMARK    5  A    between atoms: C_4  and  C_5
REMARK    6  A    between atoms: N_8  and  C_9
REMARK    7  A    between atoms: N_13  and  C_14
REMARK                            x       y       z     vdW  Elec       q    Type
REMARK                         _______ _______ _______ _____ _____    ______ ____
ROOT
ATOM      1  C   UNL     1       0.029  10.726  20.717  0.00  0.00    +0.000 A 
ATOM      2  C   UNL     1       0.566   9.502  21.046  0.00  0.00    +0.000 A 
ATOM      3  C   UNL     1       1.273   8.908  19.944  0.00  0.00    +0.000 A 
ATOM      4  C   UNL     1       1.920   7.668  19.745  0.00  0.00    +0.000 A 
ATOM      5  N   UNL     1       1.905   6.635  20.696  0.00  0.00    +0.000 N 
ATOM      6  N   UNL     1       2.582   7.477  18.575  0.00  0.00    +0.000 NA
ATOM      7  C   UNL     1       2.571   8.439  17.645  0.00  0.00    +0.000 A 
ATOM      8  N   UNL     1       1.912   9.595  17.689  0.00  0.00    +0.000 NA
ATOM      9  C   UNL     1       1.272   9.772  18.857  0.00  0.00    +0.000 A 
ATOM     10  S   UNL     1       0.297  11.150  19.104  0.00  0.00    +0.000 S 
ATOM     11  H   UNL     1       1.513   6.887  21.594  0.00  0.00    +0.000 HD
ENDROOT
BRANCH   5  12
ATOM     12  C   UNL     1       1.915   5.243  20.452  0.00  0.00    +0.000 A 
ATOM     13  C   UNL     1       0.735   4.502  20.282  0.00  0.00    +0.000 A 
ATOM     14  C   UNL     1       0.769   3.130  20.018  0.00  0.00    +0.000 A 
ATOM     15  C   UNL     1       1.991   2.486  19.892  0.00  0.00    +0.000 A 
ATOM     16  F   UNL     1       2.008   1.172  19.634  0.00  0.00    +0.000 F 
ATOM     17  C   UNL     1       3.176   3.203  20.039  0.00  0.00    +0.000 A 
ATOM     18 CL   UNL     1       4.699   2.413  19.860  0.00  0.00    +0.000 Cl
ATOM     19  C   UNL     1       3.142   4.575  20.318  0.00  0.00    +0.000 A 
ENDBRANCH   5  12
BRANCH   1  22
ATOM     20  C   UNL     1      -0.870  11.467  22.804  0.00  0.00    +0.000 C 
ATOM     21  O   UNL     1      -0.384  10.531  23.441  0.00  0.00    +0.000 OA
ATOM     22  N   UNL     1      -0.669  11.659  21.452  0.00  0.00    +0.000 N 
ATOM     23  H   UNL     1      -0.757  12.589  21.061  0.00  0.00    +0.000 HD
BRANCH  20  24
ATOM     24  C   UNL     1      -1.757  12.524  23.479  0.00  0.00    +0.000 C 
BRANCH  24  26
ATOM     25  C   UNL     1      -2.096  14.802  22.310  0.00  0.00    +0.000 C 
ATOM     26  C   UNL     1      -1.186  13.919  23.145  0.00  0.00    +0.000 C 
ENDBRANCH  24  26
BRANCH  24  27
ATOM     27  C   UNL     1      -3.256  12.365  23.169  0.00  0.00    +0.000 C 
ATOM     28  C   UNL     1      -4.186  12.487  24.370  0.00  0.00    +0.000 C 
ENDBRANCH  24  27
ENDBRANCH  20  24
ENDBRANCH   1  22
TORSDOF 5
ENDMDL
MODEL 4
REMARK VINA RESULT:      -7.9      2.870      3.840
REMARK  Name = 
REMARK  7 active torsions:
REMARK  status: ('A' for Active; 'I' for Inactive)
REMARK    1  A    between atoms: C_1  and  C_2
REMARK    2  A    between atoms: C_2  and  C_3
REMARK    3  A    between atoms: C_3  and  C_4
REMARK    4  A    between atoms: C_3  and  C_6
REMARK    5  A    between atoms: C_4  and  C_5
REMARK    6  A    between atoms: N_8  and  C_9
REMARK    7  A    between atoms: N_13  and  C_14
REMARK                            x       y       z     vdW  Elec       q    Type
REMARK                         _______ _______ _______ _____ _____    ______ ____
ROOT
ATOM      1  C   UNL     1       3.613   6.793  17.864  0.00  0.00    +0.000 A 
ATOM      2  C   UNL     1       2.784   7.871  17.649  0.00  0.00    +0.000 A 
ATOM      3  C   UNL     1       1.972   8.167  18.798  0.00  0.00    +0.000 A 
ATOM      4  C   UNL     1       0.940   9.096  19.058  0.00  0.00    +0.000 A 
ATOM      5  N   UNL     1       0.407   9.945  18.075  0.00  0.00    +0.000 N 
ATOM      6  N   UNL     1       0.447   9.160  20.322  0.00  0.00    +0.000 NA
ATOM      7  C   UNL     1       0.920   8.330  21.258  0.00  0.00    +0.000 A 
ATOM      8  N   UNL     1       1.813   7.355  21.095  0.00  0.00    +0.000 NA
ATOM      9  C   UNL     1       2.297   7.313  19.843  0.00  0.00    +0.000 A 
ATOM     10  S   UNL     1       3.396   6.091  19.386  0.00  0.00    +0.000 S 
ATOM     11  H   UNL     1       0.905   9.944  17.194  0.00  0.00    +0.000 HD
ENDROOT
BRANCH   5  12
ATOM     12  C   UNL     1      -0.922  10.414  17.974  0.00  0.00    +0.000 A 
ATOM     13  C   UNL     1      -1.810   9.949  16.991  0.00  0.00    +0.000 A 
ATOM     14  C   UNL     1      -3.128  10.407  16.924  0.00  0.00    +0.000 A 
ATOM     15  C   UNL     1      -3.583  11.323  17.863  0.00  0.00    +0.000 A 
ATOM     16  F   UNL     1      -4.851  11.751  17.789  0.00  0.00    +0.000 F 
ATOM     17  C   UNL     1      -2.726  11.786  18.859  0.00  0.00    +0.000 A 
ATOM     18 CL   UNL     1      -3.293  12.905  20.042  0.00  0.00    +0.000 Cl
ATOM     19  C   UNL     1      -1.402  11.336  18.916  0.00  0.00    +0.000 A 
ENDBRANCH   5  12
BRANCH   1  22
ATOM     20  C   UNL     1       4.477   4.859  16.759  0.00  0.00    +0.000 C 
ATOM     21  O   UNL     1       3.510   4.155  17.056  0.00  0.00    +0.000 OA
ATOM     22  N   UNL     1       4.579   6.196  17.084  0.00  0.00    +0.000 N 
ATOM     23  H   UNL     1       5.169   6.802  16.527  0.00  0.00    +0.000 HD
BRANCH  20  24
ATOM     24  C   UNL     1       5.674   4.294  15.979  0.00  0.00    +0.000 C 
BRANCH  24  26
ATOM     25  C   UNL     1       6.493   4.041  13.543  0.00  0.00    +0.000 C 
ATOM     26  C   UNL     1       5.327   4.319  14.475  0.00  0.00    +0.000 C 
ENDBRANCH  24  26
BRANCH  24  27
ATOM     27  C   UNL     1       7.014   4.964  16.329  0.00  0.00    +0.000 C 
ATOM     28  C   UNL     1       7.589   4.600  17.693  0.00  0.00    +0.000 C 
ENDBRANCH  24  27
ENDBRANCH  20  24
ENDBRANCH   1  22
TORSDOF 5
ENDMDL
MODEL 5
REMARK VINA RESULT:      -7.9      2.937      4.050
REMARK  Name = 
REMARK  7 active torsions:
REMARK  status: ('A' for Active; 'I' for Inactive)
REMARK    1  A    between atoms: C_1  and  C_2
REMARK    2  A    between atoms: C_2  and  C_3
REMARK    3  A    between atoms: C_3  and  C_4
REMARK    4  A    between atoms: C_3  and  C_6
REMARK    5  A    between atoms: C_4  and  C_5
REMARK    6  A    between atoms: N_8  and  C_9
REMARK    7  A    between atoms: N_13  and  C_14
REMARK                            x       y       z     vdW  Elec       q    Type
REMARK                         _______ _______ _______ _____ _____    ______ ____
ROOT
ATOM      1  C   UNL     1       3.301   6.591  17.933  0.00  0.00    +0.000 A 
ATOM      2  C   UNL     1       2.517   7.689  17.659  0.00  0.00    +0.000 A 
ATOM      3  C   UNL     1       1.800   8.145  18.819  0.00  0.00    +0.000 A 
ATOM      4  C   UNL     1       0.838   9.154  19.046  0.00  0.00    +0.000 A 
ATOM      5  N   UNL     1       0.285   9.931  18.015  0.00  0.00    +0.000 N 
ATOM      6  N   UNL     1       0.436   9.372  20.325  0.00  0.00    +0.000 NA
ATOM      7  C   UNL     1       0.927   8.612  21.310  0.00  0.00    +0.000 A 
ATOM      8  N   UNL     1       1.754   7.575  21.193  0.00  0.00    +0.000 NA
ATOM      9  C   UNL     1       2.149   7.381  19.925  0.00  0.00    +0.000 A 
ATOM     10  S   UNL     1       3.150   6.057  19.529  0.00  0.00    +0.000 S 
ATOM     11  H   UNL     1       0.722   9.813  17.110  0.00  0.00    +0.000 HD
ENDROOT
BRANCH   5  12
ATOM     12  C   UNL     1      -1.022  10.465  17.949  0.00  0.00    +0.000 A 
ATOM     13  C   UNL     1      -1.939  10.085  16.957  0.00  0.00    +0.000 A 
ATOM     14  C   UNL     1      -3.234  10.607  16.924  0.00  0.00    +0.000 A 
ATOM     15  C   UNL     1      -3.639  11.500  17.907  0.00  0.00    +0.000 A 
ATOM     16  F   UNL     1      -4.885  11.989  17.865  0.00  0.00    +0.000 F 
ATOM     17  C   UNL     1      -2.752  11.879  18.912  0.00  0.00    +0.000 A 
ATOM     18 CL   UNL     1      -3.256  12.970  20.150  0.00  0.00    +0.000 Cl
ATOM     19  C   UNL     1      -1.450  11.366  18.936  0.00  0.00    +0.000 A 
ENDBRANCH   5  12
BRANCH   1  22
ATOM     20  C   UNL     1       5.433   6.365  16.878  0.00  0.00    +0.000 C 
ATOM     21  O   UNL     1       5.871   7.415  17.351  0.00  0.00    +0.000 OA
ATOM     22  N   UNL     1       4.179   5.864  17.160  0.00  0.00    +0.000 N 
ATOM     23  H   UNL     1       4.006   4.870  17.068  0.00  0.00    +0.000 HD
BRANCH  20  24
ATOM     24  C   UNL     1       6.269   5.506  15.918  0.00  0.00    +0.000 C 
BRANCH  24  26
ATOM     25  C   UNL     1       7.762   4.649  17.843  0.00  0.00    +0.000 C 
ATOM     26  C   UNL     1       6.821   4.298  16.705  0.00  0.00    +0.000 C 
ENDBRANCH  24  26
BRANCH  24  27
ATOM     27  C   UNL     1       5.530   5.130  14.621  0.00  0.00    +0.000 C 
ATOM     28  C   UNL     1       6.120   3.952  13.854  0.00  0.00    +0.000 C 
ENDBRANCH  24  27
ENDBRANCH  20  24
ENDBRANCH   1  22
TORSDOF 5
ENDMDL
MODEL 6
REMARK VINA RESULT:      -7.8      1.122      1.895
REMARK  Name = 
REMARK  7 active torsions:
REMARK  status: ('A' for Active; 'I' for Inactive)
REMARK    1  A    between atoms: C_1  and  C_2
REMARK    2  A    between atoms: C_2  and  C_3
REMARK    3  A    between atoms: C_3  and  C_4
REMARK    4  A    between atoms: C_3  and  C_6
REMARK    5  A    between atoms: C_4  and  C_5
REMARK    6  A    between atoms: N_8  and  C_9
REMARK    7  A    between atoms: N_13  and  C_14
REMARK                            x       y       z     vdW  Elec       q    Type
REMARK                         _______ _______ _______ _____ _____    ______ ____
ROOT
ATOM      1  C   UNL     1       4.066   4.433  16.982  0.00  0.00    +0.000 A 
ATOM      2  C   UNL     1       3.831   5.545  17.758  0.00  0.00    +0.000 A 
ATOM      3  C   UNL     1       2.922   5.268  18.838  0.00  0.00    +0.000 A 
ATOM      4  C   UNL     1       2.318   6.057  19.841  0.00  0.00    +0.000 A 
ATOM      5  N   UNL     1       2.461   7.453  19.908  0.00  0.00    +0.000 N 
ATOM      6  N   UNL     1       1.566   5.427  20.779  0.00  0.00    +0.000 NA
ATOM      7  C   UNL     1       1.391   4.103  20.704  0.00  0.00    +0.000 A 
ATOM      8  N   UNL     1       1.827   3.284  19.749  0.00  0.00    +0.000 NA
ATOM      9  C   UNL     1       2.578   3.923  18.837  0.00  0.00    +0.000 A 
ATOM     10  S   UNL     1       3.178   3.084  17.477  0.00  0.00    +0.000 S 
ATOM     11  H   UNL     1       3.139   7.844  19.266  0.00  0.00    +0.000 HD
ENDROOT
BRANCH   5  12
ATOM     12  C   UNL     1       1.513   8.392  20.372  0.00  0.00    +0.000 A 
ATOM     13  C   UNL     1       1.197   8.530  21.733  0.00  0.00    +0.000 A 
ATOM     14  C   UNL     1       0.274   9.482  22.173  0.00  0.00    +0.000 A 
ATOM     15  C   UNL     1      -0.327  10.331  21.254  0.00  0.00    +0.000 A 
ATOM     16  F   UNL     1      -1.207  11.241  21.691  0.00  0.00    +0.000 F 
ATOM     17  C   UNL     1      -0.017  10.225  19.900  0.00  0.00    +0.000 A 
ATOM     18 CL   UNL     1      -0.742  11.292  18.755  0.00  0.00    +0.000 Cl
ATOM     19  C   UNL     1       0.898   9.261  19.458  0.00  0.00    +0.000 A 
ENDBRANCH   5  12
BRANCH   1  22
ATOM     20  C   UNL     1       5.372   5.288  15.172  0.00  0.00    +0.000 C 
ATOM     21  O   UNL     1       5.185   6.465  15.483  0.00  0.00    +0.000 OA
ATOM     22  N   UNL     1       4.888   4.218  15.896  0.00  0.00    +0.000 N 
ATOM     23  H   UNL     1       5.353   3.321  15.835  0.00  0.00    +0.000 HD
BRANCH  20  24
ATOM     24  C   UNL     1       6.182   4.905  13.924  0.00  0.00    +0.000 C 
BRANCH  24  26
ATOM     25  C   UNL     1       8.409   5.718  12.899  0.00  0.00    +0.000 C 
ATOM     26  C   UNL     1       7.650   5.325  14.154  0.00  0.00    +0.000 C 
ENDBRANCH  24  26
BRANCH  24  27
ATOM     27  C   UNL     1       6.006   3.438  13.496  0.00  0.00    +0.000 C 
ATOM     28  C   UNL     1       5.549   3.229  12.057  0.00  0.00    +0.000 C 
ENDBRANCH  24  27
ENDBRANCH  20  24
ENDBRANCH   1  22
TORSDOF 5
ENDMDL
MODEL 7
REMARK VINA RESULT:      -7.8      5.300     10.199
REMARK  Name = 
REMARK  7 active torsions:
REMARK  status: ('A' for Active; 'I' for Inactive)
REMARK    1  A    between atoms: C_1  and  C_2
REMARK    2  A    between atoms: C_2  and  C_3
REMARK    3  A    between atoms: C_3  and  C_4
REMARK    4  A    between atoms: C_3  and  C_6
REMARK    5  A    between atoms: C_4  and  C_5
REMARK    6  A    between atoms: N_8  and  C_9
REMARK    7  A    between atoms: N_13  and  C_14
REMARK                            x       y       z     vdW  Elec       q    Type
REMARK                         _______ _______ _______ _____ _____    ______ ____
ROOT
ATOM      1  C   UNL     1      -0.479  10.414  21.073  0.00  0.00    +0.000 A 
ATOM      2  C   UNL     1       0.228   9.249  21.268  0.00  0.00    +0.000 A 
ATOM      3  C   UNL     1       1.006   8.889  20.113  0.00  0.00    +0.000 A 
ATOM      4  C   UNL     1       1.820   7.784  19.783  0.00  0.00    +0.000 A 
ATOM      5  N   UNL     1       1.957   6.658  20.611  0.00  0.00    +0.000 N 
ATOM      6  N   UNL     1       2.497   7.822  18.606  0.00  0.00    +0.000 NA
ATOM      7  C   UNL     1       2.345   8.872  17.791  0.00  0.00    +0.000 A 
ATOM      8  N   UNL     1       1.529   9.911  17.958  0.00  0.00    +0.000 NA
ATOM      9  C   UNL     1       0.877   9.862  19.131  0.00  0.00    +0.000 A 
ATOM     10  S   UNL     1      -0.282  11.052  19.521  0.00  0.00    +0.000 S 
ATOM     11  H   UNL     1       1.538   6.749  21.528  0.00  0.00    +0.000 HD
ENDROOT
BRANCH   5  12
ATOM     12  C   UNL     1       2.162   5.318  20.212  0.00  0.00    +0.000 A 
ATOM     13  C   UNL     1       1.404   4.255  20.728  0.00  0.00    +0.000 A 
ATOM     14  C   UNL     1       1.607   2.941  20.301  0.00  0.00    +0.000 A 
ATOM     15  C   UNL     1       2.559   2.676  19.326  0.00  0.00    +0.000 A 
ATOM     16  F   UNL     1       2.739   1.411  18.924  0.00  0.00    +0.000 F 
ATOM     17  C   UNL     1       3.311   3.716  18.785  0.00  0.00    +0.000 A 
ATOM     18 CL   UNL     1       4.478   3.397  17.556  0.00  0.00    +0.000 Cl
ATOM     19  C   UNL     1       3.117   5.031  19.224  0.00  0.00    +0.000 A 
ENDBRANCH   5  12
BRANCH   1  22
ATOM     20  C   UNL     1      -0.846  12.331  22.452  0.00  0.00    +0.000 C 
ATOM     21  O   UNL     1       0.246  12.836  22.183  0.00  0.00    +0.000 OA
ATOM     22  N   UNL     1      -1.299  11.150  21.901  0.00  0.00    +0.000 N 
ATOM     23  H   UNL     1      -2.294  10.972  21.849  0.00  0.00    +0.000 HD
BRANCH  20  24
ATOM     24  C   UNL     1      -1.816  12.993  23.441  0.00  0.00    +0.000 C 
BRANCH  24  26
ATOM     25  C   UNL     1      -1.287  15.221  24.637  0.00  0.00    +0.000 C 
ATOM     26  C   UNL     1      -1.645  14.524  23.336  0.00  0.00    +0.000 C 
ENDBRANCH  24  26
BRANCH  24  27
ATOM     27  C   UNL     1      -3.271  12.511  23.300  0.00  0.00    +0.000 C 
ATOM     28  C   UNL     1      -4.124  12.635  24.556  0.00  0.00    +0.000 C 
ENDBRANCH  24  27
ENDBRANCH  20  24
ENDBRANCH   1  22
TORSDOF 5
ENDMDL
MODEL 8
REMARK VINA RESULT:      -7.7      5.459     10.025
REMARK  Name = 
REMARK  7 active torsions:
REMARK  status: ('A' for Active; 'I' for Inactive)
REMARK    1  A    between atoms: C_1  and  C_2
REMARK    2  A    between atoms: C_2  and  C_3
REMARK    3  A    between atoms: C_3  and  C_4
REMARK    4  A    between atoms: C_3  and  C_6
REMARK    5  A    between atoms: C_4  and  C_5
REMARK    6  A    between atoms: N_8  and  C_9
REMARK    7  A    between atoms: N_13  and  C_14
REMARK                            x       y       z     vdW  Elec       q    Type
REMARK                         _______ _______ _______ _____ _____    ______ ____
ROOT
ATOM      1  C   UNL     1      -0.453  10.707  20.585  0.00  0.00    +0.000 A 
ATOM      2  C   UNL     1       0.183   9.537  20.933  0.00  0.00    +0.000 A 
ATOM      3  C   UNL     1       1.027   9.045  19.877  0.00  0.00    +0.000 A 
ATOM      4  C   UNL     1       1.811   7.883  19.706  0.00  0.00    +0.000 A 
ATOM      5  N   UNL     1       1.835   6.831  20.636  0.00  0.00    +0.000 N 
ATOM      6  N   UNL     1       2.573   7.790  18.586  0.00  0.00    +0.000 NA
ATOM      7  C   UNL     1       2.529   8.768  17.675  0.00  0.00    +0.000 A 
ATOM      8  N   UNL     1       1.753   9.849  17.689  0.00  0.00    +0.000 NA
ATOM      9  C   UNL     1       1.015   9.931  18.808  0.00  0.00    +0.000 A 
ATOM     10  S   UNL     1      -0.113  11.196  19.004  0.00  0.00    +0.000 S 
ATOM     11  H   UNL     1       1.354   7.020  21.507  0.00  0.00    +0.000 HD
ENDROOT
BRANCH   5  12
ATOM     12  C   UNL     1       2.006   5.454  20.371  0.00  0.00    +0.000 A 
ATOM     13  C   UNL     1       0.947   4.536  20.446  0.00  0.00    +0.000 A 
ATOM     14  C   UNL     1       1.134   3.183  20.156  0.00  0.00    +0.000 A 
ATOM     15  C   UNL     1       2.385   2.734  19.757  0.00  0.00    +0.000 A 
ATOM     16  F   UNL     1       2.548   1.434  19.477  0.00  0.00    +0.000 F 
ATOM     17  C   UNL     1       3.448   3.628  19.657  0.00  0.00    +0.000 A 
ATOM     18 CL   UNL     1       5.000   3.081  19.139  0.00  0.00    +0.000 Cl
ATOM     19  C   UNL     1       3.263   4.982  19.962  0.00  0.00    +0.000 A 
ENDBRANCH   5  12
BRANCH   1  22
ATOM     20  C   UNL     1      -0.783  12.621  21.978  0.00  0.00    +0.000 C 
ATOM     21  O   UNL     1       0.405  12.946  21.955  0.00  0.00    +0.000 OA
ATOM     22  N   UNL     1      -1.296  11.546  21.282  0.00  0.00    +0.000 N 
ATOM     23  H   UNL     1      -2.276  11.536  21.028  0.00  0.00    +0.000 HD
BRANCH  20  24
ATOM     24  C   UNL     1      -1.816  13.408  22.798  0.00  0.00    +0.000 C 
BRANCH  24  26
ATOM     25  C   UNL     1      -4.249  12.865  23.473  0.00  0.00    +0.000 C 
ATOM     26  C   UNL     1      -2.805  12.401  23.425  0.00  0.00    +0.000 C 
ENDBRANCH  24  26
BRANCH  24  27
ATOM     27  C   UNL     1      -1.190  14.388  23.806  0.00  0.00    +0.000 C 
ATOM     28  C   UNL     1      -2.000  15.650  24.076  0.00  0.00    +0.000 C 
ENDBRANCH  24  27
ENDBRANCH  20  24
ENDBRANCH   1  22
TORSDOF 5
ENDMDL
MODEL 9
REMARK VINA RESULT:      -7.7      3.168      4.159
REMARK  Name = 
REMARK  7 active torsions:
REMARK  status: ('A' for Active; 'I' for Inactive)
REMARK    1  A    between atoms: C_1  and  C_2
REMARK    2  A    between atoms: C_2  and  C_3
REMARK    3  A    between atoms: C_3  and  C_4
REMARK    4  A    between atoms: C_3  and  C_6
REMARK    5  A    between atoms: C_4  and  C_5
REMARK    6  A    between atoms: N_8  and  C_9
REMARK    7  A    between atoms: N_13  and  C_14
REMARK                            x       y       z     vdW  Elec       q    Type
REMARK                         _______ _______ _______ _____ _____    ______ ____
ROOT
ATOM      1  C   UNL     1       3.629   6.829  17.823  0.00  0.00    +0.000 A 
ATOM      2  C   UNL     1       2.815   7.923  17.637  0.00  0.00    +0.000 A 
ATOM      3  C   UNL     1       1.992   8.188  18.786  0.00  0.00    +0.000 A 
ATOM      4  C   UNL     1       0.968   9.119  19.068  0.00  0.00    +0.000 A 
ATOM      5  N   UNL     1       0.457  10.010  18.109  0.00  0.00    +0.000 N 
ATOM      6  N   UNL     1       0.460   9.143  20.327  0.00  0.00    +0.000 NA
ATOM      7  C   UNL     1       0.912   8.273  21.237  0.00  0.00    +0.000 A 
ATOM      8  N   UNL     1       1.794   7.294  21.050  0.00  0.00    +0.000 NA
ATOM      9  C   UNL     1       2.294   7.292  19.803  0.00  0.00    +0.000 A 
ATOM     10  S   UNL     1       3.384   6.074  19.315  0.00  0.00    +0.000 S 
ATOM     11  H   UNL     1       0.967  10.034  17.235  0.00  0.00    +0.000 HD
ENDROOT
BRANCH   5  12
ATOM     12  C   UNL     1      -0.865  10.498  18.010  0.00  0.00    +0.000 A 
ATOM     13  C   UNL     1      -1.414  11.378  18.955  0.00  0.00    +0.000 A 
ATOM     14  C   UNL     1      -2.716  11.867  18.823  0.00  0.00    +0.000 A 
ATOM     15  C   UNL     1      -3.479  11.501  17.723  0.00  0.00    +0.000 A 
ATOM     16  F   UNL     1      -4.724  11.981  17.609  0.00  0.00    +0.000 F 
ATOM     17  C   UNL     1      -2.950  10.642  16.763  0.00  0.00    +0.000 A 
ATOM     18 CL   UNL     1      -3.884  10.201  15.381  0.00  0.00    +0.000 Cl
ATOM     19  C   UNL     1      -1.650  10.141  16.903  0.00  0.00    +0.000 A 
ENDBRANCH   5  12
BRANCH   1  22
ATOM     20  C   UNL     1       4.549   4.897  16.760  0.00  0.00    +0.000 C 
ATOM     21  O   UNL     1       3.627   4.160  17.114  0.00  0.00    +0.000 OA
ATOM     22  N   UNL     1       4.597   6.248  17.033  0.00  0.00    +0.000 N 
ATOM     23  H   UNL     1       5.139   6.860  16.436  0.00  0.00    +0.000 HD
BRANCH  20  24
ATOM     24  C   UNL     1       5.747   4.359  15.962  0.00  0.00    +0.000 C 
BRANCH  24  26
ATOM     25  C   UNL     1       6.046   3.750  13.470  0.00  0.00    +0.000 C 
ATOM     26  C   UNL     1       5.569   4.773  14.485  0.00  0.00    +0.000 C 
ENDBRANCH  24  26
BRANCH  24  27
ATOM     27  C   UNL     1       7.112   4.737  16.563  0.00  0.00    +0.000 C 
ATOM     28  C   UNL     1       7.214   4.614  18.078  0.00  0.00    +0.000 C 
ENDBRANCH  24  27
ENDBRANCH  20  24
ENDBRANCH   1  22
TORSDOF 5
ENDMDL
