MODEL 1
REMARK VINA RESULT:      -6.7      0.000      0.000
REMARK  Name = 
REMARK  6 active torsions:
REMARK  status: ('A' for Active; 'I' for Inactive)
REMARK    1  A    between atoms: C_1  and  O_2
REMARK    2  A    between atoms: O_2  and  C_3
REMARK    3  A    between atoms: C_3  and  C_5
REMARK    4  A    between atoms: C_6  and  N_7
REMARK    5  A    between atoms: N_10  and  C_11
REMARK    6  A    between atoms: C_14  and  C_15
REMARK                            x       y       z     vdW  Elec       q    Type
REMARK                         _______ _______ _______ _____ _____    ______ ____
ROOT
ATOM      1  C   UNL     1       3.130   4.013  18.806  0.00  0.00    +0.000 A 
ATOM      2  C   UNL     1       4.210   3.182  19.011  0.00  0.00    +0.000 A 
ATOM      3  N   UNL     1       5.359   3.854  19.243  0.00  0.00    +0.000 NA
ATOM      4  C   UNL     1       5.013   5.118  19.178  0.00  0.00    +0.000 A 
ATOM      5  N   UNL     1       3.660   5.291  18.965  0.00  0.00    +0.000 N 
ENDROOT
BRANCH   5   6
ATOM      6  C   UNL     1       2.992   6.550  18.946  0.00  0.00    +0.000 A 
ATOM      7  C   UNL     1       3.074   7.372  17.814  0.00  0.00    +0.000 A 
ATOM      8  C   UNL     1       2.356   8.572  17.766  0.00  0.00    +0.000 A 
ATOM      9  C   UNL     1       1.567   8.975  18.848  0.00  0.00    +0.000 A 
ATOM     10  C   UNL     1       0.753  10.232  18.796  0.00  0.00    +0.000 C 
ATOM     11  C   UNL     1       1.538   8.181  19.997  0.00  0.00    +0.000 A 
ATOM     12  C   UNL     1       2.251   6.981  20.051  0.00  0.00    +0.000 A 
ENDBRANCH   5   6
BRANCH   2  13
ATOM     13  N   UNL     1       4.247   1.852  18.930  0.00  0.00    +0.000 N 
ATOM     14  H   UNL     1       5.072   1.320  19.185  0.00  0.00    +0.000 HD
ATOM     15  H   UNL     1       3.615   1.388  18.287  0.00  0.00    +0.000 HD
ENDBRANCH   2  13
BRANCH   1  16
ATOM     16  C   UNL     1       1.800   3.682  18.384  0.00  0.00    +0.000 C 
ATOM     17  O   UNL     1       1.248   4.085  17.367  0.00  0.00    +0.000 OA
BRANCH  16  19
ATOM     18  C   UNL     1       1.003   3.487  20.571  0.00  0.00    +0.000 C 
ATOM     19  O   UNL     1       1.198   2.867  19.299  0.00  0.00    +0.000 OA
ENDBRANCH  16  19
ENDBRANCH   1  16
TORSDOF 4
ENDMDL
MODEL 2
REMARK VINA RESULT:      -6.7      0.127      1.177
REMARK  Name = 
REMARK  6 active torsions:
REMARK  status: ('A' for Active; 'I' for Inactive)
REMARK    1  A    between atoms: C_1  and  O_2
REMARK    2  A    between atoms: O_2  and  C_3
REMARK    3  A    between atoms: C_3  and  C_5
REMARK    4  A    between atoms: C_6  and  N_7
REMARK    5  A    between atoms: N_10  and  C_11
REMARK    6  A    between atoms: C_14  and  C_15
REMARK                            x       y       z     vdW  Elec       q    Type
REMARK                         _______ _______ _______ _____ _____    ______ ____
ROOT
ATOM      1  C   UNL     1       3.184   4.017  18.854  0.00  0.00    +0.000 A 
ATOM      2  C   UNL     1       4.301   3.240  19.073  0.00  0.00    +0.000 A 
ATOM      3  N   UNL     1       5.419   3.968  19.289  0.00  0.00    +0.000 NA
ATOM      4  C   UNL     1       5.015   5.214  19.198  0.00  0.00    +0.000 A 
ATOM      5  N   UNL     1       3.655   5.321  18.984  0.00  0.00    +0.000 N 
ENDROOT
BRANCH   5   6
ATOM      6  C   UNL     1       2.931   6.547  18.941  0.00  0.00    +0.000 A 
ATOM      7  C   UNL     1       2.194   6.967  20.058  0.00  0.00    +0.000 A 
ATOM      8  C   UNL     1       1.547   8.208  20.043  0.00  0.00    +0.000 A 
ATOM      9  C   UNL     1       1.610   9.032  18.916  0.00  0.00    +0.000 A 
ATOM     10  C   UNL     1       0.964  10.385  18.900  0.00  0.00    +0.000 C 
ATOM     11  C   UNL     1       2.296   8.581  17.785  0.00  0.00    +0.000 A 
ATOM     12  C   UNL     1       2.946   7.345  17.793  0.00  0.00    +0.000 A 
ENDBRANCH   5   6
BRANCH   2  13
ATOM     13  N   UNL     1       4.399   1.912  19.020  0.00  0.00    +0.000 N 
ATOM     14  H   UNL     1       3.614   1.305  19.228  0.00  0.00    +0.000 HD
ATOM     15  H   UNL     1       5.313   1.489  19.130  0.00  0.00    +0.000 HD
ENDBRANCH   2  13
BRANCH   1  16
ATOM     16  C   UNL     1       1.870   3.617  18.442  0.00  0.00    +0.000 C 
ATOM     17  O   UNL     1       1.285   3.999  17.435  0.00  0.00    +0.000 OA
BRANCH  16  19
ATOM     18  C   UNL     1       1.025   3.378  20.607  0.00  0.00    +0.000 C 
ATOM     19  O   UNL     1       1.324   2.760  19.354  0.00  0.00    +0.000 OA
ENDBRANCH  16  19
ENDBRANCH   1  16
TORSDOF 4
ENDMDL
MODEL 3
REMARK VINA RESULT:      -6.5      2.170      3.057
REMARK  Name = 
REMARK  6 active torsions:
REMARK  status: ('A' for Active; 'I' for Inactive)
REMARK    1  A    between atoms: C_1  and  O_2
REMARK    2  A    between atoms: O_2  and  C_3
REMARK    3  A    between atoms: C_3  and  C_5
REMARK    4  A    between atoms: C_6  and  N_7
REMARK    5  A    between atoms: N_10  and  C_11
REMARK    6  A    between atoms: C_14  and  C_15
REMARK                            x       y       z     vdW  Elec       q    Type
REMARK                         _______ _______ _______ _____ _____    ______ ____
ROOT
ATOM      1  C   UNL     1       4.488   4.030  19.388  0.00  0.00    +0.000 A 
ATOM      2  C   UNL     1       4.234   2.732  19.774  0.00  0.00    +0.000 A 
ATOM      3  N   UNL     1       2.961   2.541  20.187  0.00  0.00    +0.000 NA
ATOM      4  C   UNL     1       2.403   3.723  20.071  0.00  0.00    +0.000 A 
ATOM      5  N   UNL     1       3.260   4.669  19.543  0.00  0.00    +0.000 N 
ENDROOT
BRANCH   5   6
ATOM      6  C   UNL     1       2.895   6.007  19.218  0.00  0.00    +0.000 A 
ATOM      7  C   UNL     1       3.228   6.542  17.966  0.00  0.00    +0.000 A 
ATOM      8  C   UNL     1       2.802   7.829  17.618  0.00  0.00    +0.000 A 
ATOM      9  C   UNL     1       2.061   8.602  18.517  0.00  0.00    +0.000 A 
ATOM     10  C   UNL     1       1.555   9.963  18.144  0.00  0.00    +0.000 C 
ATOM     11  C   UNL     1       1.784   8.086  19.786  0.00  0.00    +0.000 A 
ATOM     12  C   UNL     1       2.204   6.802  20.138  0.00  0.00    +0.000 A 
ENDBRANCH   5   6
BRANCH   2  13
ATOM     13  N   UNL     1       5.095   1.717  19.851  0.00  0.00    +0.000 N 
ATOM     14  H   UNL     1       6.084   1.834  19.664  0.00  0.00    +0.000 HD
ATOM     15  H   UNL     1       4.742   0.773  19.737  0.00  0.00    +0.000 HD
ENDBRANCH   2  13
BRANCH   1  16
ATOM     16  C   UNL     1       5.737   4.645  19.045  0.00  0.00    +0.000 C 
ATOM     17  O   UNL     1       6.446   5.301  19.798  0.00  0.00    +0.000 OA
BRANCH  16  19
ATOM     18  C   UNL     1       7.413   4.594  17.418  0.00  0.00    +0.000 C 
ATOM     19  O   UNL     1       6.028   4.431  17.728  0.00  0.00    +0.000 OA
ENDBRANCH  16  19
ENDBRANCH   1  16
TORSDOF 4
ENDMDL
MODEL 4
REMARK VINA RESULT:      -6.5      3.750      5.382
REMARK  Name = 
REMARK  6 active torsions:
REMARK  status: ('A' for Active; 'I' for Inactive)
REMARK    1  A    between atoms: C_1  and  O_2
REMARK    2  A    between atoms: O_2  and  C_3
REMARK    3  A    between atoms: C_3  and  C_5
REMARK    4  A    between atoms: C_6  and  N_7
REMARK    5  A    between atoms: N_10  and  C_11
REMARK    6  A    between atoms: C_14  and  C_15
REMARK                            x       y       z     vdW  Elec       q    Type
REMARK                         _______ _______ _______ _____ _____    ______ ____
ROOT
ATOM      1  C   UNL     1       6.421   5.373  16.332  0.00  0.00    +0.000 A 
ATOM      2  C   UNL     1       6.843   5.041  15.062  0.00  0.00    +0.000 A 
ATOM      3  N   UNL     1       6.097   4.068  14.493  0.00  0.00    +0.000 NA
ATOM      4  C   UNL     1       5.201   3.772  15.406  0.00  0.00    +0.000 A 
ATOM      5  N   UNL     1       5.307   4.562  16.534  0.00  0.00    +0.000 N 
ENDROOT
BRANCH   5   6
ATOM      6  C   UNL     1       4.409   4.527  17.640  0.00  0.00    +0.000 A 
ATOM      7  C   UNL     1       3.361   5.455  17.723  0.00  0.00    +0.000 A 
ATOM      8  C   UNL     1       2.433   5.372  18.768  0.00  0.00    +0.000 A 
ATOM      9  C   UNL     1       2.550   4.381  19.748  0.00  0.00    +0.000 A 
ATOM     10  C   UNL     1       1.540   4.247  20.847  0.00  0.00    +0.000 C 
ATOM     11  C   UNL     1       3.632   3.497  19.693  0.00  0.00    +0.000 A 
ATOM     12  C   UNL     1       4.559   3.574  18.652  0.00  0.00    +0.000 A 
ENDBRANCH   5   6
BRANCH   2  13
ATOM     13  N   UNL     1       7.905   5.504  14.404  0.00  0.00    +0.000 N 
ATOM     14  H   UNL     1       8.732   4.939  14.249  0.00  0.00    +0.000 HD
ATOM     15  H   UNL     1       8.055   6.506  14.371  0.00  0.00    +0.000 HD
ENDBRANCH   2  13
BRANCH   1  16
ATOM     16  C   UNL     1       7.043   6.232  17.296  0.00  0.00    +0.000 C 
ATOM     17  O   UNL     1       7.308   5.938  18.456  0.00  0.00    +0.000 OA
BRANCH  16  19
ATOM     18  C   UNL     1       7.847   8.392  17.682  0.00  0.00    +0.000 C 
ATOM     19  O   UNL     1       7.277   7.464  16.757  0.00  0.00    +0.000 OA
ENDBRANCH  16  19
ENDBRANCH   1  16
TORSDOF 4
ENDMDL
MODEL 5
REMARK VINA RESULT:      -6.4      3.829      5.445
REMARK  Name = 
REMARK  6 active torsions:
REMARK  status: ('A' for Active; 'I' for Inactive)
REMARK    1  A    between atoms: C_1  and  O_2
REMARK    2  A    between atoms: O_2  and  C_3
REMARK    3  A    between atoms: C_3  and  C_5
REMARK    4  A    between atoms: C_6  and  N_7
REMARK    5  A    between atoms: N_10  and  C_11
REMARK    6  A    between atoms: C_14  and  C_15
REMARK                            x       y       z     vdW  Elec       q    Type
REMARK                         _______ _______ _______ _____ _____    ______ ____
ROOT
ATOM      1  C   UNL     1       6.504   5.383  16.235  0.00  0.00    +0.000 A 
ATOM      2  C   UNL     1       6.899   5.056  14.956  0.00  0.00    +0.000 A 
ATOM      3  N   UNL     1       6.116   4.114  14.384  0.00  0.00    +0.000 NA
ATOM      4  C   UNL     1       5.223   3.834  15.304  0.00  0.00    +0.000 A 
ATOM      5  N   UNL     1       5.367   4.605  16.441  0.00  0.00    +0.000 N 
ENDROOT
BRANCH   5   6
ATOM      6  C   UNL     1       4.483   4.583  17.558  0.00  0.00    +0.000 A 
ATOM      7  C   UNL     1       4.577   3.556  18.508  0.00  0.00    +0.000 A 
ATOM      8  C   UNL     1       3.761   3.577  19.645  0.00  0.00    +0.000 A 
ATOM      9  C   UNL     1       2.832   4.604  19.837  0.00  0.00    +0.000 A 
ATOM     10  C   UNL     1       1.984   4.670  21.071  0.00  0.00    +0.000 C 
ATOM     11  C   UNL     1       2.701   5.591  18.856  0.00  0.00    +0.000 A 
ATOM     12  C   UNL     1       3.514   5.577  17.721  0.00  0.00    +0.000 A 
ENDBRANCH   5   6
BRANCH   2  13
ATOM     13  N   UNL     1       7.967   5.495  14.291  0.00  0.00    +0.000 N 
ATOM     14  H   UNL     1       8.883   5.558  14.722  0.00  0.00    +0.000 HD
ATOM     15  H   UNL     1       7.824   6.102  13.492  0.00  0.00    +0.000 HD
ENDBRANCH   2  13
BRANCH   1  16
ATOM     16  C   UNL     1       7.164   6.210  17.203  0.00  0.00    +0.000 C 
ATOM     17  O   UNL     1       7.590   5.842  18.291  0.00  0.00    +0.000 OA
BRANCH  16  19
ATOM     18  C   UNL     1       7.850   8.388  17.694  0.00  0.00    +0.000 C 
ATOM     19  O   UNL     1       7.229   7.501  16.763  0.00  0.00    +0.000 OA
ENDBRANCH  16  19
ENDBRANCH   1  16
TORSDOF 4
ENDMDL
MODEL 6
REMARK VINA RESULT:      -6.4      3.799      5.202
REMARK  Name = 
REMARK  6 active torsions:
REMARK  status: ('A' for Active; 'I' for Inactive)
REMARK    1  A    between atoms: C_1  and  O_2
REMARK    2  A    between atoms: O_2  and  C_3
REMARK    3  A    between atoms: C_3  and  C_5
REMARK    4  A    between atoms: C_6  and  N_7
REMARK    5  A    between atoms: N_10  and  C_11
REMARK    6  A    between atoms: C_14  and  C_15
REMARK                            x       y       z     vdW  Elec       q    Type
REMARK                         _______ _______ _______ _____ _____    ______ ____
ROOT
ATOM      1  C   UNL     1       6.532   5.441  16.090  0.00  0.00    +0.000 A 
ATOM      2  C   UNL     1       6.889   5.075  14.810  0.00  0.00    +0.000 A 
ATOM      3  N   UNL     1       6.056   4.157  14.270  0.00  0.00    +0.000 NA
ATOM      4  C   UNL     1       5.171   3.931  15.212  0.00  0.00    +0.000 A 
ATOM      5  N   UNL     1       5.369   4.714  16.331  0.00  0.00    +0.000 N 
ENDROOT
BRANCH   5   6
ATOM      6  C   UNL     1       4.506   4.748  17.465  0.00  0.00    +0.000 A 
ATOM      7  C   UNL     1       3.587   5.796  17.617  0.00  0.00    +0.000 A 
ATOM      8  C   UNL     1       2.688   5.789  18.689  0.00  0.00    +0.000 A 
ATOM      9  C   UNL     1       2.706   4.753  19.628  0.00  0.00    +0.000 A 
ATOM     10  C   UNL     1       1.718   4.703  20.755  0.00  0.00    +0.000 C 
ATOM     11  C   UNL     1       3.664   3.743  19.504  0.00  0.00    +0.000 A 
ATOM     12  C   UNL     1       4.563   3.744  18.436  0.00  0.00    +0.000 A 
ENDBRANCH   5   6
BRANCH   2  13
ATOM     13  N   UNL     1       7.960   5.459  14.116  0.00  0.00    +0.000 N 
ATOM     14  H   UNL     1       8.015   5.357  13.109  0.00  0.00    +0.000 HD
ATOM     15  H   UNL     1       8.853   5.512  14.595  0.00  0.00    +0.000 HD
ENDBRANCH   2  13
BRANCH   1  16
ATOM     16  C   UNL     1       7.245   6.256  17.030  0.00  0.00    +0.000 C 
ATOM     17  O   UNL     1       7.294   7.480  17.029  0.00  0.00    +0.000 OA
BRANCH  16  19
ATOM     18  C   UNL     1       7.619   5.800  19.291  0.00  0.00    +0.000 C 
ATOM     19  O   UNL     1       7.910   5.474  17.931  0.00  0.00    +0.000 OA
ENDBRANCH  16  19
ENDBRANCH   1  16
TORSDOF 4
ENDMDL
MODEL 7
REMARK VINA RESULT:      -6.4      2.187      3.277
REMARK  Name = 
REMARK  6 active torsions:
REMARK  status: ('A' for Active; 'I' for Inactive)
REMARK    1  A    between atoms: C_1  and  O_2
REMARK    2  A    between atoms: O_2  and  C_3
REMARK    3  A    between atoms: C_3  and  C_5
REMARK    4  A    between atoms: C_6  and  N_7
REMARK    5  A    between atoms: N_10  and  C_11
REMARK    6  A    between atoms: C_14  and  C_15
REMARK                            x       y       z     vdW  Elec       q    Type
REMARK                         _______ _______ _______ _____ _____    ______ ____
ROOT
ATOM      1  C   UNL     1       4.493   3.973  19.428  0.00  0.00    +0.000 A 
ATOM      2  C   UNL     1       4.272   2.690  19.883  0.00  0.00    +0.000 A 
ATOM      3  N   UNL     1       3.007   2.492  20.314  0.00  0.00    +0.000 NA
ATOM      4  C   UNL     1       2.421   3.654  20.142  0.00  0.00    +0.000 A 
ATOM      5  N   UNL     1       3.252   4.590  19.560  0.00  0.00    +0.000 N 
ENDROOT
BRANCH   5   6
ATOM      6  C   UNL     1       2.855   5.902  19.170  0.00  0.00    +0.000 A 
ATOM      7  C   UNL     1       2.158   6.721  20.069  0.00  0.00    +0.000 A 
ATOM      8  C   UNL     1       1.836   8.036  19.714  0.00  0.00    +0.000 A 
ATOM      9  C   UNL     1       2.185   8.541  18.458  0.00  0.00    +0.000 A 
ATOM     10  C   UNL     1       1.892   9.961  18.078  0.00  0.00    +0.000 C 
ATOM     11  C   UNL     1       2.827   7.701  17.544  0.00  0.00    +0.000 A 
ATOM     12  C   UNL     1       3.152   6.388  17.893  0.00  0.00    +0.000 A 
ENDBRANCH   5   6
BRANCH   2  13
ATOM     13  N   UNL     1       5.156   1.700  20.005  0.00  0.00    +0.000 N 
ATOM     14  H   UNL     1       5.014   0.928  20.646  0.00  0.00    +0.000 HD
ATOM     15  H   UNL     1       6.121   1.879  19.750  0.00  0.00    +0.000 HD
ENDBRANCH   2  13
BRANCH   1  16
ATOM     16  C   UNL     1       5.726   4.597  19.045  0.00  0.00    +0.000 C 
ATOM     17  O   UNL     1       6.427   5.303  19.760  0.00  0.00    +0.000 OA
BRANCH  16  19
ATOM     18  C   UNL     1       7.355   4.642  17.370  0.00  0.00    +0.000 C 
ATOM     19  O   UNL     1       6.010   4.328  17.736  0.00  0.00    +0.000 OA
ENDBRANCH  16  19
ENDBRANCH   1  16
TORSDOF 4
ENDMDL
MODEL 8
REMARK VINA RESULT:      -6.4      3.813      5.259
REMARK  Name = 
REMARK  6 active torsions:
REMARK  status: ('A' for Active; 'I' for Inactive)
REMARK    1  A    between atoms: C_1  and  O_2
REMARK    2  A    between atoms: O_2  and  C_3
REMARK    3  A    between atoms: C_3  and  C_5
REMARK    4  A    between atoms: C_6  and  N_7
REMARK    5  A    between atoms: N_10  and  C_11
REMARK    6  A    between atoms: C_14  and  C_15
REMARK                            x       y       z     vdW  Elec       q    Type
REMARK                         _______ _______ _______ _____ _____    ______ ____
ROOT
ATOM      1  C   UNL     1       6.541   5.417  16.065  0.00  0.00    +0.000 A 
ATOM      2  C   UNL     1       6.929   5.061  14.791  0.00  0.00    +0.000 A 
ATOM      3  N   UNL     1       6.129   4.123  14.236  0.00  0.00    +0.000 NA
ATOM      4  C   UNL     1       5.233   3.874  15.162  0.00  0.00    +0.000 A 
ATOM      5  N   UNL     1       5.391   4.662  16.285  0.00  0.00    +0.000 N 
ENDROOT
BRANCH   5   6
ATOM      6  C   UNL     1       4.508   4.674  17.403  0.00  0.00    +0.000 A 
ATOM      7  C   UNL     1       4.562   3.644  18.353  0.00  0.00    +0.000 A 
ATOM      8  C   UNL     1       3.749   3.696  19.490  0.00  0.00    +0.000 A 
ATOM      9  C   UNL     1       2.863   4.760  19.685  0.00  0.00    +0.000 A 
ATOM     10  C   UNL     1       2.019   4.858  20.921  0.00  0.00    +0.000 C 
ATOM     11  C   UNL     1       2.770   5.753  18.706  0.00  0.00    +0.000 A 
ATOM     12  C   UNL     1       3.581   5.707  17.569  0.00  0.00    +0.000 A 
ENDBRANCH   5   6
BRANCH   2  13
ATOM     13  N   UNL     1       8.003   5.471  14.117  0.00  0.00    +0.000 N 
ATOM     14  H   UNL     1       8.011   6.338  13.592  0.00  0.00    +0.000 HD
ATOM     15  H   UNL     1       8.681   4.778  13.819  0.00  0.00    +0.000 HD
ENDBRANCH   2  13
BRANCH   1  16
ATOM     16  C   UNL     1       7.216   6.249  17.018  0.00  0.00    +0.000 C 
ATOM     17  O   UNL     1       7.220   7.474  17.028  0.00  0.00    +0.000 OA
BRANCH  16  19
ATOM     18  C   UNL     1       7.571   5.769  19.277  0.00  0.00    +0.000 C 
ATOM     19  O   UNL     1       7.902   5.484  17.917  0.00  0.00    +0.000 OA
ENDBRANCH  16  19
ENDBRANCH   1  16
TORSDOF 4
ENDMDL
MODEL 9
REMARK VINA RESULT:      -6.3      3.177      5.097
REMARK  Name = 
REMARK  6 active torsions:
REMARK  status: ('A' for Active; 'I' for Inactive)
REMARK    1  A    between atoms: C_1  and  O_2
REMARK    2  A    between atoms: O_2  and  C_3
REMARK    3  A    between atoms: C_3  and  C_5
REMARK    4  A    between atoms: C_6  and  N_7
REMARK    5  A    between atoms: N_10  and  C_11
REMARK    6  A    between atoms: C_14  and  C_15
REMARK                            x       y       z     vdW  Elec       q    Type
REMARK                         _______ _______ _______ _____ _____    ______ ____
ROOT
ATOM      1  C   UNL     1       5.802   6.341  17.549  0.00  0.00    +0.000 A 
ATOM      2  C   UNL     1       7.097   6.726  17.826  0.00  0.00    +0.000 A 
ATOM      3  N   UNL     1       7.616   6.100  18.906  0.00  0.00    +0.000 NA
ATOM      4  C   UNL     1       6.646   5.321  19.325  0.00  0.00    +0.000 A 
ATOM      5  N   UNL     1       5.528   5.378  18.517  0.00  0.00    +0.000 N 
ENDROOT
BRANCH   5   6
ATOM      6  C   UNL     1       4.366   4.569  18.676  0.00  0.00    +0.000 A 
ATOM      7  C   UNL     1       3.401   4.906  19.637  0.00  0.00    +0.000 A 
ATOM      8  C   UNL     1       2.224   4.157  19.740  0.00  0.00    +0.000 A 
ATOM      9  C   UNL     1       2.003   3.057  18.905  0.00  0.00    +0.000 A 
ATOM     10  C   UNL     1       0.727   2.273  18.968  0.00  0.00    +0.000 C 
ATOM     11  C   UNL     1       2.994   2.691  17.990  0.00  0.00    +0.000 A 
ATOM     12  C   UNL     1       4.170   3.435  17.881  0.00  0.00    +0.000 A 
ENDBRANCH   5   6
BRANCH   2  13
ATOM     13  N   UNL     1       7.823   7.661  17.214  0.00  0.00    +0.000 N 
ATOM     14  H   UNL     1       8.078   8.529  17.670  0.00  0.00    +0.000 HD
ATOM     15  H   UNL     1       7.819   7.690  16.200  0.00  0.00    +0.000 HD
ENDBRANCH   2  13
BRANCH   1  16
ATOM     16  C   UNL     1       4.881   6.887  16.596  0.00  0.00    +0.000 C 
ATOM     17  O   UNL     1       3.799   7.402  16.855  0.00  0.00    +0.000 OA
BRANCH  16  19
ATOM     18  C   UNL     1       5.558   5.358  14.964  0.00  0.00    +0.000 C 
ATOM     19  O   UNL     1       5.355   6.725  15.326  0.00  0.00    +0.000 OA
ENDBRANCH  16  19
ENDBRANCH   1  16
TORSDOF 4
ENDMDL
