MODEL 1
REMARK VINA RESULT:      -9.3      0.000      0.000
REMARK  Name = 
REMARK  6 active torsions:
REMARK  status: ('A' for Active; 'I' for Inactive)
REMARK    1  A    between atoms: C_1  and  O_2
REMARK    2  A    between atoms: O_2  and  C_3
REMARK    3  A    between atoms: C_6  and  C_7
REMARK    4  A    between atoms: C_9  and  C_10
REMARK    5  A    between atoms: N_12  and  N_13
REMARK    6  A    between atoms: C_14  and  C_15
REMARK                            x       y       z     vdW  Elec       q    Type
REMARK                         _______ _______ _______ _____ _____    ______ ____
ROOT
ATOM      1  C   UNL     1       4.353   4.604  17.773  0.00  0.00    +0.000 A 
ATOM      2  C   UNL     1       3.316   5.515  17.757  0.00  0.00    +0.000 A 
ATOM      3  C   UNL     1       2.545   5.649  18.895  0.00  0.00    +0.000 A 
ATOM      4  C   UNL     1       2.435   4.565  19.757  0.00  0.00    +0.000 A 
ATOM      5  C   UNL     1       1.335   4.416  20.629  0.00  0.00    +0.000 A 
ATOM      6  C   UNL     1       1.271   3.340  21.487  0.00  0.00    +0.000 A 
ATOM      7  C   UNL     1       2.332   2.441  21.517  0.00  0.00    +0.000 A 
ATOM      8  C   UNL     1       3.416   2.588  20.635  0.00  0.00    +0.000 A 
ATOM      9  C   UNL     1       3.464   3.612  19.694  0.00  0.00    +0.000 A 
ATOM     10  N   UNL     1       4.461   3.689  18.773  0.00  0.00    +0.000 NA
ENDROOT
BRANCH   1  14
ATOM     11  C   UNL     1       7.159   4.968  14.522  0.00  0.00    +0.000 A 
ATOM     12  C   UNL     1       7.485   5.446  15.782  0.00  0.00    +0.000 A 
ATOM     13  C   UNL     1       6.615   5.243  16.853  0.00  0.00    +0.000 A 
ATOM     14  C   UNL     1       5.362   4.610  16.687  0.00  0.00    +0.000 A 
ATOM     15  C   UNL     1       5.096   4.058  15.431  0.00  0.00    +0.000 A 
ATOM     16  C   UNL     1       5.977   4.245  14.355  0.00  0.00    +0.000 A 
BRANCH  11  18
ATOM     17  C   UNL     1       7.641   5.063  12.208  0.00  0.00    +0.000 C 
ATOM     18  O   UNL     1       8.054   5.297  13.545  0.00  0.00    +0.000 OA
ENDBRANCH  11  18
ENDBRANCH   1  14
BRANCH   3  19
ATOM     19  C   UNL     1       2.335   7.023  19.457  0.00  0.00    +0.000 C 
ATOM     20  O   UNL     1       2.463   8.009  18.738  0.00  0.00    +0.000 OA
ATOM     21  N   UNL     1       1.857   7.090  20.762  0.00  0.00    +0.000 N 
ATOM     22  H   UNL     1       1.713   6.274  21.336  0.00  0.00    +0.000 HD
BRANCH  21  23
ATOM     23  N   UNL     1       1.454   8.295  21.240  0.00  0.00    +0.000 NA
ATOM     24  C   UNL     1       0.218   8.605  21.037  0.00  0.00    +0.000 C 
BRANCH  24  25
ATOM     25  C   UNL     1      -0.326   9.860  21.568  0.00  0.00    +0.000 A 
ATOM     26  C   UNL     1      -0.761   9.966  22.891  0.00  0.00    +0.000 A 
ATOM     27  C   UNL     1      -1.338  11.158  23.315  0.00  0.00    +0.000 A 
ATOM     28  C   UNL     1      -1.454  12.196  22.399  0.00  0.00    +0.000 A 
ATOM     29  N   UNL     1      -1.023  12.122  21.119  0.00  0.00    +0.000 NA
ATOM     30  C   UNL     1      -0.469  10.952  20.728  0.00  0.00    +0.000 A 
ENDBRANCH  24  25
ENDBRANCH  21  23
ENDBRANCH   3  19
TORSDOF 5
ENDMDL
MODEL 2
REMARK VINA RESULT:      -8.8      1.716      1.968
REMARK  Name = 
REMARK  6 active torsions:
REMARK  status: ('A' for Active; 'I' for Inactive)
REMARK    1  A    between atoms: C_1  and  O_2
REMARK    2  A    between atoms: O_2  and  C_3
REMARK    3  A    between atoms: C_6  and  C_7
REMARK    4  A    between atoms: C_9  and  C_10
REMARK    5  A    between atoms: N_12  and  N_13
REMARK    6  A    between atoms: C_14  and  C_15
REMARK                            x       y       z     vdW  Elec       q    Type
REMARK                         _______ _______ _______ _____ _____    ______ ____
ROOT
ATOM      1  C   UNL     1       4.306   4.547  17.803  0.00  0.00    +0.000 A 
ATOM      2  C   UNL     1       3.196   5.364  17.720  0.00  0.00    +0.000 A 
ATOM      3  C   UNL     1       2.380   5.474  18.829  0.00  0.00    +0.000 A 
ATOM      4  C   UNL     1       2.334   4.418  19.730  0.00  0.00    +0.000 A 
ATOM      5  C   UNL     1       1.223   4.207  20.575  0.00  0.00    +0.000 A 
ATOM      6  C   UNL     1       1.223   3.163  21.473  0.00  0.00    +0.000 A 
ATOM      7  C   UNL     1       2.355   2.360  21.571  0.00  0.00    +0.000 A 
ATOM      8  C   UNL     1       3.450   2.566  20.716  0.00  0.00    +0.000 A 
ATOM      9  C   UNL     1       3.442   3.556  19.736  0.00  0.00    +0.000 A 
ATOM     10  N   UNL     1       4.459   3.683  18.842  0.00  0.00    +0.000 NA
ENDROOT
BRANCH   1  14
ATOM     11  C   UNL     1       7.182   5.035  14.630  0.00  0.00    +0.000 A 
ATOM     12  C   UNL     1       7.436   5.559  15.889  0.00  0.00    +0.000 A 
ATOM     13  C   UNL     1       6.548   5.319  16.937  0.00  0.00    +0.000 A 
ATOM     14  C   UNL     1       5.346   4.600  16.749  0.00  0.00    +0.000 A 
ATOM     15  C   UNL     1       5.157   4.006  15.497  0.00  0.00    +0.000 A 
ATOM     16  C   UNL     1       6.057   4.231  14.444  0.00  0.00    +0.000 A 
BRANCH  11  18
ATOM     17  C   UNL     1       7.696   5.184  12.327  0.00  0.00    +0.000 C 
ATOM     18  O   UNL     1       8.083   5.404  13.674  0.00  0.00    +0.000 OA
ENDBRANCH  11  18
ENDBRANCH   1  14
BRANCH   3  19
ATOM     19  C   UNL     1       2.035   6.845  19.329  0.00  0.00    +0.000 C 
ATOM     20  O   UNL     1       1.982   7.065  20.535  0.00  0.00    +0.000 OA
ATOM     21  N   UNL     1       1.932   7.845  18.368  0.00  0.00    +0.000 N 
ATOM     22  H   UNL     1       2.018   7.667  17.380  0.00  0.00    +0.000 HD
BRANCH  21  23
ATOM     23  N   UNL     1       1.831   9.133  18.786  0.00  0.00    +0.000 NA
ATOM     24  C   UNL     1       0.848   9.814  18.301  0.00  0.00    +0.000 C 
BRANCH  24  25
ATOM     25  C   UNL     1       0.619  11.196  18.737  0.00  0.00    +0.000 A 
ATOM     26  C   UNL     1       1.643  12.146  18.722  0.00  0.00    +0.000 A 
ATOM     27  C   UNL     1       1.385  13.419  19.218  0.00  0.00    +0.000 A 
ATOM     28  C   UNL     1       0.114  13.691  19.707  0.00  0.00    +0.000 A 
ATOM     29  N   UNL     1      -0.897  12.793  19.714  0.00  0.00    +0.000 NA
ATOM     30  C   UNL     1      -0.623  11.560  19.230  0.00  0.00    +0.000 A 
ENDBRANCH  24  25
ENDBRANCH  21  23
ENDBRANCH   3  19
TORSDOF 5
ENDMDL
MODEL 3
REMARK VINA RESULT:      -8.7      4.904      7.964
REMARK  Name = 
REMARK  6 active torsions:
REMARK  status: ('A' for Active; 'I' for Inactive)
REMARK    1  A    between atoms: C_1  and  O_2
REMARK    2  A    between atoms: O_2  and  C_3
REMARK    3  A    between atoms: C_6  and  C_7
REMARK    4  A    between atoms: C_9  and  C_10
REMARK    5  A    between atoms: N_12  and  N_13
REMARK    6  A    between atoms: C_14  and  C_15
REMARK                            x       y       z     vdW  Elec       q    Type
REMARK                         _______ _______ _______ _____ _____    ______ ____
ROOT
ATOM      1  C   UNL     1       4.926   3.938  16.977  0.00  0.00    +0.000 A 
ATOM      2  C   UNL     1       5.934   4.781  17.400  0.00  0.00    +0.000 A 
ATOM      3  C   UNL     1       6.607   5.524  16.450  0.00  0.00    +0.000 A 
ATOM      4  C   UNL     1       6.677   5.039  15.151  0.00  0.00    +0.000 A 
ATOM      5  C   UNL     1       7.707   5.427  14.266  0.00  0.00    +0.000 A 
ATOM      6  C   UNL     1       7.732   4.942  12.977  0.00  0.00    +0.000 A 
ATOM      7  C   UNL     1       6.698   4.116  12.549  0.00  0.00    +0.000 A 
ATOM      8  C   UNL     1       5.686   3.722  13.440  0.00  0.00    +0.000 A 
ATOM      9  C   UNL     1       5.684   4.121  14.774  0.00  0.00    +0.000 A 
ATOM     10  N   UNL     1       4.763   3.653  15.658  0.00  0.00    +0.000 NA
ENDROOT
BRANCH   1  14
ATOM     11  C   UNL     1       2.126   2.508  19.925  0.00  0.00    +0.000 A 
ATOM     12  C   UNL     1       1.737   2.642  18.601  0.00  0.00    +0.000 A 
ATOM     13  C   UNL     1       2.670   3.015  17.634  0.00  0.00    +0.000 A 
ATOM     14  C   UNL     1       4.008   3.326  17.967  0.00  0.00    +0.000 A 
ATOM     15  C   UNL     1       4.398   3.095  19.289  0.00  0.00    +0.000 A 
ATOM     16  C   UNL     1       3.466   2.703  20.262  0.00  0.00    +0.000 A 
BRANCH  11  18
ATOM     17  C   UNL     1       1.254   2.682  22.117  0.00  0.00    +0.000 C 
ATOM     18  O   UNL     1       1.107   2.214  20.785  0.00  0.00    +0.000 OA
ENDBRANCH  11  18
ENDBRANCH   1  14
BRANCH   3  19
ATOM     19  C   UNL     1       6.731   7.005  16.659  0.00  0.00    +0.000 C 
ATOM     20  O   UNL     1       5.847   7.758  16.263  0.00  0.00    +0.000 OA
ATOM     21  N   UNL     1       7.804   7.431  17.434  0.00  0.00    +0.000 N 
ATOM     22  H   UNL     1       8.506   6.802  17.793  0.00  0.00    +0.000 HD
BRANCH  21  23
ATOM     23  N   UNL     1       7.842   8.730  17.824  0.00  0.00    +0.000 NA
ATOM     24  C   UNL     1       8.896   9.102  18.468  0.00  0.00    +0.000 C 
BRANCH  24  25
ATOM     25  C   UNL     1       9.057  10.501  18.880  0.00  0.00    +0.000 A 
ATOM     26  C   UNL     1       9.029  11.544  17.951  0.00  0.00    +0.000 A 
ATOM     27  C   UNL     1       9.262  12.842  18.391  0.00  0.00    +0.000 A 
ATOM     28  C   UNL     1       9.513  13.044  19.742  0.00  0.00    +0.000 A 
ATOM     29  N   UNL     1       9.525  12.053  20.662  0.00  0.00    +0.000 NA
ATOM     30  C   UNL     1       9.300  10.798  20.211  0.00  0.00    +0.000 A 
ENDBRANCH  24  25
ENDBRANCH  21  23
ENDBRANCH   3  19
TORSDOF 5
ENDMDL
MODEL 4
REMARK VINA RESULT:      -8.6      0.695      1.330
REMARK  Name = 
REMARK  6 active torsions:
REMARK  status: ('A' for Active; 'I' for Inactive)
REMARK    1  A    between atoms: C_1  and  O_2
REMARK    2  A    between atoms: O_2  and  C_3
REMARK    3  A    between atoms: C_6  and  C_7
REMARK    4  A    between atoms: C_9  and  C_10
REMARK    5  A    between atoms: N_12  and  N_13
REMARK    6  A    between atoms: C_14  and  C_15
REMARK                            x       y       z     vdW  Elec       q    Type
REMARK                         _______ _______ _______ _____ _____    ______ ____
ROOT
ATOM      1  C   UNL     1       4.174   4.821  17.574  0.00  0.00    +0.000 A 
ATOM      2  C   UNL     1       3.097   5.677  17.690  0.00  0.00    +0.000 A 
ATOM      3  C   UNL     1       2.441   5.743  18.904  0.00  0.00    +0.000 A 
ATOM      4  C   UNL     1       2.474   4.634  19.740  0.00  0.00    +0.000 A 
ATOM      5  C   UNL     1       1.477   4.407  20.714  0.00  0.00    +0.000 A 
ATOM      6  C   UNL     1       1.555   3.308  21.541  0.00  0.00    +0.000 A 
ATOM      7  C   UNL     1       2.656   2.464  21.437  0.00  0.00    +0.000 A 
ATOM      8  C   UNL     1       3.635   2.689  20.455  0.00  0.00    +0.000 A 
ATOM      9  C   UNL     1       3.536   3.738  19.544  0.00  0.00    +0.000 A 
ATOM     10  N   UNL     1       4.428   3.889  18.530  0.00  0.00    +0.000 NA
ENDROOT
BRANCH   1  14
ATOM     11  C   UNL     1       6.844   4.702  14.193  0.00  0.00    +0.000 A 
ATOM     12  C   UNL     1       5.507   4.371  14.038  0.00  0.00    +0.000 A 
ATOM     13  C   UNL     1       4.626   4.501  15.111  0.00  0.00    +0.000 A 
ATOM     14  C   UNL     1       5.064   4.907  16.393  0.00  0.00    +0.000 A 
ATOM     15  C   UNL     1       6.395   5.321  16.501  0.00  0.00    +0.000 A 
ATOM     16  C   UNL     1       7.281   5.208  15.418  0.00  0.00    +0.000 A 
BRANCH  11  18
ATOM     17  C   UNL     1       6.969   3.838  11.995  0.00  0.00    +0.000 C 
ATOM     18  O   UNL     1       7.617   4.459  13.094  0.00  0.00    +0.000 OA
ENDBRANCH  11  18
ENDBRANCH   1  14
BRANCH   3  19
ATOM     19  C   UNL     1       2.223   7.090  19.526  0.00  0.00    +0.000 C 
ATOM     20  O   UNL     1       2.356   8.108  18.853  0.00  0.00    +0.000 OA
ATOM     21  N   UNL     1       1.732   7.097  20.827  0.00  0.00    +0.000 N 
ATOM     22  H   UNL     1       1.585   6.256  21.363  0.00  0.00    +0.000 HD
BRANCH  21  23
ATOM     23  N   UNL     1       1.323   8.279  21.356  0.00  0.00    +0.000 NA
ATOM     24  C   UNL     1       0.245   8.783  20.857  0.00  0.00    +0.000 C 
BRANCH  24  25
ATOM     25  C   UNL     1      -0.310  10.027  21.402  0.00  0.00    +0.000 A 
ATOM     26  C   UNL     1      -0.773  11.047  20.568  0.00  0.00    +0.000 A 
ATOM     27  C   UNL     1      -1.218  12.233  21.141  0.00  0.00    +0.000 A 
ATOM     28  C   UNL     1      -1.184  12.350  22.524  0.00  0.00    +0.000 A 
ATOM     29  N   UNL     1      -0.758  11.369  23.352  0.00  0.00    +0.000 NA
ATOM     30  C   UNL     1      -0.326  10.226  22.773  0.00  0.00    +0.000 A 
ENDBRANCH  24  25
ENDBRANCH  21  23
ENDBRANCH   3  19
TORSDOF 5
ENDMDL
MODEL 5
REMARK VINA RESULT:      -8.5      3.785      6.035
REMARK  Name = 
REMARK  6 active torsions:
REMARK  status: ('A' for Active; 'I' for Inactive)
REMARK    1  A    between atoms: C_1  and  O_2
REMARK    2  A    between atoms: O_2  and  C_3
REMARK    3  A    between atoms: C_6  and  C_7
REMARK    4  A    between atoms: C_9  and  C_10
REMARK    5  A    between atoms: N_12  and  N_13
REMARK    6  A    between atoms: C_14  and  C_15
REMARK                            x       y       z     vdW  Elec       q    Type
REMARK                         _______ _______ _______ _____ _____    ______ ____
ROOT
ATOM      1  C   UNL     1       1.901   8.137  19.117  0.00  0.00    +0.000 A 
ATOM      2  C   UNL     1       1.272   9.165  18.444  0.00  0.00    +0.000 A 
ATOM      3  C   UNL     1       0.796  10.233  19.177  0.00  0.00    +0.000 A 
ATOM      4  C   UNL     1       0.445  10.026  20.505  0.00  0.00    +0.000 A 
ATOM      5  C   UNL     1      -0.478  10.862  21.171  0.00  0.00    +0.000 A 
ATOM      6  C   UNL     1      -0.784  10.641  22.495  0.00  0.00    +0.000 A 
ATOM      7  C   UNL     1      -0.127   9.621  23.176  0.00  0.00    +0.000 A 
ATOM      8  C   UNL     1       0.779   8.784  22.503  0.00  0.00    +0.000 A 
ATOM      9  C   UNL     1       1.039   8.925  21.142  0.00  0.00    +0.000 A 
ATOM     10  N   UNL     1       1.833   8.048  20.472  0.00  0.00    +0.000 NA
ENDROOT
BRANCH   1  14
ATOM     11  C   UNL     1       4.326   5.119  17.223  0.00  0.00    +0.000 A 
ATOM     12  C   UNL     1       3.263   4.752  18.035  0.00  0.00    +0.000 A 
ATOM     13  C   UNL     1       2.423   5.729  18.570  0.00  0.00    +0.000 A 
ATOM     14  C   UNL     1       2.654   7.108  18.363  0.00  0.00    +0.000 A 
ATOM     15  C   UNL     1       3.674   7.448  17.470  0.00  0.00    +0.000 A 
ATOM     16  C   UNL     1       4.511   6.467  16.915  0.00  0.00    +0.000 A 
BRANCH  11  18
ATOM     17  C   UNL     1       6.493   4.371  16.642  0.00  0.00    +0.000 C 
ATOM     18  O   UNL     1       5.117   4.079  16.826  0.00  0.00    +0.000 OA
ENDBRANCH  11  18
ENDBRANCH   1  14
BRANCH   3  19
ATOM     19  C   UNL     1       1.187  11.619  18.757  0.00  0.00    +0.000 C 
ATOM     20  O   UNL     1       2.283  11.819  18.242  0.00  0.00    +0.000 OA
ATOM     21  N   UNL     1       0.201  12.595  18.852  0.00  0.00    +0.000 N 
ATOM     22  H   UNL     1      -0.713  12.416  19.237  0.00  0.00    +0.000 HD
BRANCH  21  23
ATOM     23  N   UNL     1       0.439  13.808  18.292  0.00  0.00    +0.000 NA
ATOM     24  C   UNL     1       0.077  14.836  18.983  0.00  0.00    +0.000 C 
BRANCH  24  25
ATOM     25  C   UNL     1       0.345  16.191  18.490  0.00  0.00    +0.000 A 
ATOM     26  C   UNL     1      -0.688  17.040  18.085  0.00  0.00    +0.000 A 
ATOM     27  C   UNL     1      -0.367  18.284  17.556  0.00  0.00    +0.000 A 
ATOM     28  C   UNL     1       0.974  18.631  17.455  0.00  0.00    +0.000 A 
ATOM     29  N   UNL     1       1.989  17.835  17.858  0.00  0.00    +0.000 NA
ATOM     30  C   UNL     1       1.654  16.627  18.366  0.00  0.00    +0.000 A 
ENDBRANCH  24  25
ENDBRANCH  21  23
ENDBRANCH   3  19
TORSDOF 5
ENDMDL
MODEL 6
REMARK VINA RESULT:      -8.5      2.335      8.779
REMARK  Name = 
REMARK  6 active torsions:
REMARK  status: ('A' for Active; 'I' for Inactive)
REMARK    1  A    between atoms: C_1  and  O_2
REMARK    2  A    between atoms: O_2  and  C_3
REMARK    3  A    between atoms: C_6  and  C_7
REMARK    4  A    between atoms: C_9  and  C_10
REMARK    5  A    between atoms: N_12  and  N_13
REMARK    6  A    between atoms: C_14  and  C_15
REMARK                            x       y       z     vdW  Elec       q    Type
REMARK                         _______ _______ _______ _____ _____    ______ ____
ROOT
ATOM      1  C   UNL     1       2.003   6.875  20.130  0.00  0.00    +0.000 A 
ATOM      2  C   UNL     1       3.184   6.688  19.439  0.00  0.00    +0.000 A 
ATOM      3  C   UNL     1       3.590   5.395  19.175  0.00  0.00    +0.000 A 
ATOM      4  C   UNL     1       3.178   4.380  20.029  0.00  0.00    +0.000 A 
ATOM      5  C   UNL     1       3.900   3.173  20.154  0.00  0.00    +0.000 A 
ATOM      6  C   UNL     1       3.448   2.179  20.993  0.00  0.00    +0.000 A 
ATOM      7  C   UNL     1       2.245   2.362  21.666  0.00  0.00    +0.000 A 
ATOM      8  C   UNL     1       1.540   3.571  21.548  0.00  0.00    +0.000 A 
ATOM      9  C   UNL     1       2.018   4.630  20.780  0.00  0.00    +0.000 A 
ATOM     10  N   UNL     1       1.389   5.834  20.753  0.00  0.00    +0.000 NA
ENDROOT
BRANCH   1  14
ATOM     11  C   UNL     1      -0.099  10.635  20.263  0.00  0.00    +0.000 A 
ATOM     12  C   UNL     1      -0.029   9.835  21.393  0.00  0.00    +0.000 A 
ATOM     13  C   UNL     1       0.731   8.665  21.374  0.00  0.00    +0.000 A 
ATOM     14  C   UNL     1       1.395   8.224  20.207  0.00  0.00    +0.000 A 
ATOM     15  C   UNL     1       1.384   9.091  19.110  0.00  0.00    +0.000 A 
ATOM     16  C   UNL     1       0.635  10.278  19.131  0.00  0.00    +0.000 A 
BRANCH  11  18
ATOM     17  C   UNL     1      -1.286  12.370  19.178  0.00  0.00    +0.000 C 
ATOM     18  O   UNL     1      -0.934  11.709  20.383  0.00  0.00    +0.000 OA
ENDBRANCH  11  18
ENDBRANCH   1  14
BRANCH   3  19
ATOM     19  C   UNL     1       3.943   5.031  17.764  0.00  0.00    +0.000 C 
ATOM     20  O   UNL     1       3.239   4.247  17.135  0.00  0.00    +0.000 OA
ATOM     21  N   UNL     1       4.998   5.734  17.191  0.00  0.00    +0.000 N 
ATOM     22  H   UNL     1       5.548   6.409  17.698  0.00  0.00    +0.000 HD
BRANCH  21  23
ATOM     23  N   UNL     1       5.219   5.592  15.859  0.00  0.00    +0.000 NA
ATOM     24  C   UNL     1       6.153   4.768  15.521  0.00  0.00    +0.000 C 
BRANCH  24  25
ATOM     25  C   UNL     1       6.428   4.502  14.104  0.00  0.00    +0.000 A 
ATOM     26  C   UNL     1       5.691   3.561  13.381  0.00  0.00    +0.000 A 
ATOM     27  C   UNL     1       6.047   3.298  12.064  0.00  0.00    +0.000 A 
ATOM     28  C   UNL     1       7.125   3.986  11.522  0.00  0.00    +0.000 A 
ATOM     29  N   UNL     1       7.840   4.914  12.196  0.00  0.00    +0.000 NA
ATOM     30  C   UNL     1       7.479   5.152  13.478  0.00  0.00    +0.000 A 
ENDBRANCH  24  25
ENDBRANCH  21  23
ENDBRANCH   3  19
TORSDOF 5
ENDMDL
MODEL 7
REMARK VINA RESULT:      -8.5      2.350      8.718
REMARK  Name = 
REMARK  6 active torsions:
REMARK  status: ('A' for Active; 'I' for Inactive)
REMARK    1  A    between atoms: C_1  and  O_2
REMARK    2  A    between atoms: O_2  and  C_3
REMARK    3  A    between atoms: C_6  and  C_7
REMARK    4  A    between atoms: C_9  and  C_10
REMARK    5  A    between atoms: N_12  and  N_13
REMARK    6  A    between atoms: C_14  and  C_15
REMARK                            x       y       z     vdW  Elec       q    Type
REMARK                         _______ _______ _______ _____ _____    ______ ____
ROOT
ATOM      1  C   UNL     1       1.998   6.977  20.112  0.00  0.00    +0.000 A 
ATOM      2  C   UNL     1       3.204   6.798  19.464  0.00  0.00    +0.000 A 
ATOM      3  C   UNL     1       3.612   5.509  19.184  0.00  0.00    +0.000 A 
ATOM      4  C   UNL     1       3.159   4.476  19.995  0.00  0.00    +0.000 A 
ATOM      5  C   UNL     1       3.868   3.261  20.119  0.00  0.00    +0.000 A 
ATOM      6  C   UNL     1       3.376   2.250  20.915  0.00  0.00    +0.000 A 
ATOM      7  C   UNL     1       2.148   2.425  21.543  0.00  0.00    +0.000 A 
ATOM      8  C   UNL     1       1.456   3.643  21.427  0.00  0.00    +0.000 A 
ATOM      9  C   UNL     1       1.973   4.716  20.705  0.00  0.00    +0.000 A 
ATOM     10  N   UNL     1       1.352   5.926  20.683  0.00  0.00    +0.000 NA
ENDROOT
BRANCH   1  14
ATOM     11  C   UNL     1       0.598  11.041  20.422  0.00  0.00    +0.000 A 
ATOM     12  C   UNL     1       1.014  10.538  19.199  0.00  0.00    +0.000 A 
ATOM     13  C   UNL     1       1.377   9.196  19.083  0.00  0.00    +0.000 A 
ATOM     14  C   UNL     1       1.396   8.328  20.198  0.00  0.00    +0.000 A 
ATOM     15  C   UNL     1       0.887   8.833  21.398  0.00  0.00    +0.000 A 
ATOM     16  C   UNL     1       0.504  10.178  21.515  0.00  0.00    +0.000 A 
BRANCH  11  18
ATOM     17  C   UNL     1       1.477  13.236  20.402  0.00  0.00    +0.000 C 
ATOM     18  O   UNL     1       0.345  12.382  20.423  0.00  0.00    +0.000 OA
ENDBRANCH  11  18
ENDBRANCH   1  14
BRANCH   3  19
ATOM     19  C   UNL     1       4.019   5.177  17.779  0.00  0.00    +0.000 C 
ATOM     20  O   UNL     1       3.326   4.427  17.098  0.00  0.00    +0.000 OA
ATOM     21  N   UNL     1       5.113   5.871  17.274  0.00  0.00    +0.000 N 
ATOM     22  H   UNL     1       5.655   6.518  17.824  0.00  0.00    +0.000 HD
BRANCH  21  23
ATOM     23  N   UNL     1       5.390   5.762  15.949  0.00  0.00    +0.000 NA
ATOM     24  C   UNL     1       6.116   4.754  15.600  0.00  0.00    +0.000 C 
BRANCH  24  25
ATOM     25  C   UNL     1       6.420   4.517  14.184  0.00  0.00    +0.000 A 
ATOM     26  C   UNL     1       5.699   3.591  13.427  0.00  0.00    +0.000 A 
ATOM     27  C   UNL     1       6.082   3.355  12.112  0.00  0.00    +0.000 A 
ATOM     28  C   UNL     1       7.170   4.054  11.607  0.00  0.00    +0.000 A 
ATOM     29  N   UNL     1       7.871   4.968  12.314  0.00  0.00    +0.000 NA
ATOM     30  C   UNL     1       7.483   5.180  13.593  0.00  0.00    +0.000 A 
ENDBRANCH  24  25
ENDBRANCH  21  23
ENDBRANCH   3  19
TORSDOF 5
ENDMDL
MODEL 8
REMARK VINA RESULT:      -8.4      4.531      6.783
REMARK  Name = 
REMARK  6 active torsions:
REMARK  status: ('A' for Active; 'I' for Inactive)
REMARK    1  A    between atoms: C_1  and  O_2
REMARK    2  A    between atoms: O_2  and  C_3
REMARK    3  A    between atoms: C_6  and  C_7
REMARK    4  A    between atoms: C_9  and  C_10
REMARK    5  A    between atoms: N_12  and  N_13
REMARK    6  A    between atoms: C_14  and  C_15
REMARK                            x       y       z     vdW  Elec       q    Type
REMARK                         _______ _______ _______ _____ _____    ______ ____
ROOT
ATOM      1  C   UNL     1       5.298   4.928  15.288  0.00  0.00    +0.000 A 
ATOM      2  C   UNL     1       5.719   6.198  15.627  0.00  0.00    +0.000 A 
ATOM      3  C   UNL     1       5.515   6.632  16.922  0.00  0.00    +0.000 A 
ATOM      4  C   UNL     1       4.463   6.088  17.648  0.00  0.00    +0.000 A 
ATOM      5  C   UNL     1       3.873   6.776  18.731  0.00  0.00    +0.000 A 
ATOM      6  C   UNL     1       2.846   6.195  19.443  0.00  0.00    +0.000 A 
ATOM      7  C   UNL     1       2.445   4.905  19.115  0.00  0.00    +0.000 A 
ATOM      8  C   UNL     1       3.027   4.234  18.026  0.00  0.00    +0.000 A 
ATOM      9  C   UNL     1       4.002   4.830  17.230  0.00  0.00    +0.000 A 
ATOM     10  N   UNL     1       4.485   4.219  16.116  0.00  0.00    +0.000 NA
ENDROOT
BRANCH   1  14
ATOM     11  C   UNL     1       6.602   2.847  11.746  0.00  0.00    +0.000 A 
ATOM     12  C   UNL     1       5.270   2.803  12.131  0.00  0.00    +0.000 A 
ATOM     13  C   UNL     1       4.834   3.553  13.222  0.00  0.00    +0.000 A 
ATOM     14  C   UNL     1       5.725   4.323  14.004  0.00  0.00    +0.000 A 
ATOM     15  C   UNL     1       7.041   4.424  13.543  0.00  0.00    +0.000 A 
ATOM     16  C   UNL     1       7.480   3.684  12.435  0.00  0.00    +0.000 A 
BRANCH  11  18
ATOM     17  C   UNL     1       6.475   0.669  10.833  0.00  0.00    +0.000 C 
ATOM     18  O   UNL     1       6.918   2.011  10.714  0.00  0.00    +0.000 OA
ENDBRANCH  11  18
ENDBRANCH   1  14
BRANCH   3  19
ATOM     19  C   UNL     1       6.681   7.193  17.679  0.00  0.00    +0.000 C 
ATOM     20  O   UNL     1       7.327   6.474  18.435  0.00  0.00    +0.000 OA
ATOM     21  N   UNL     1       7.055   8.494  17.362  0.00  0.00    +0.000 N 
ATOM     22  H   UNL     1       6.545   9.068  16.709  0.00  0.00    +0.000 HD
BRANCH  21  23
ATOM     23  N   UNL     1       8.223   8.970  17.864  0.00  0.00    +0.000 NA
ATOM     24  C   UNL     1       8.310  10.251  17.989  0.00  0.00    +0.000 C 
BRANCH  24  25
ATOM     25  C   UNL     1       9.510  10.857  18.578  0.00  0.00    +0.000 A 
ATOM     26  C   UNL     1      10.579  11.281  17.784  0.00  0.00    +0.000 A 
ATOM     27  C   UNL     1      11.720  11.778  18.404  0.00  0.00    +0.000 A 
ATOM     28  C   UNL     1      11.745  11.832  19.791  0.00  0.00    +0.000 A 
ATOM     29  N   UNL     1      10.716  11.446  20.579  0.00  0.00    +0.000 NA
ATOM     30  C   UNL     1       9.618  10.962  19.955  0.00  0.00    +0.000 A 
ENDBRANCH  24  25
ENDBRANCH  21  23
ENDBRANCH   3  19
TORSDOF 5
ENDMDL
MODEL 9
REMARK VINA RESULT:      -8.2      2.098      9.094
REMARK  Name = 
REMARK  6 active torsions:
REMARK  status: ('A' for Active; 'I' for Inactive)
REMARK    1  A    between atoms: C_1  and  O_2
REMARK    2  A    between atoms: O_2  and  C_3
REMARK    3  A    between atoms: C_6  and  C_7
REMARK    4  A    between atoms: C_9  and  C_10
REMARK    5  A    between atoms: N_12  and  N_13
REMARK    6  A    between atoms: C_14  and  C_15
REMARK                            x       y       z     vdW  Elec       q    Type
REMARK                         _______ _______ _______ _____ _____    ______ ____
ROOT
ATOM      1  C   UNL     1       1.578   7.295  20.474  0.00  0.00    +0.000 A 
ATOM      2  C   UNL     1       2.823   7.326  19.879  0.00  0.00    +0.000 A 
ATOM      3  C   UNL     1       3.310   6.162  19.318  0.00  0.00    +0.000 A 
ATOM      4  C   UNL     1       2.869   4.945  19.822  0.00  0.00    +0.000 A 
ATOM      5  C   UNL     1       3.631   3.764  19.689  0.00  0.00    +0.000 A 
ATOM      6  C   UNL     1       3.151   2.570  20.182  0.00  0.00    +0.000 A 
ATOM      7  C   UNL     1       1.884   2.540  20.756  0.00  0.00    +0.000 A 
ATOM      8  C   UNL     1       1.139   3.723  20.899  0.00  0.00    +0.000 A 
ATOM      9  C   UNL     1       1.637   4.959  20.495  0.00  0.00    +0.000 A 
ATOM     10  N   UNL     1       0.958   6.113  20.731  0.00  0.00    +0.000 NA
ENDROOT
BRANCH   1  14
ATOM     11  C   UNL     1      -0.711  10.801  21.497  0.00  0.00    +0.000 A 
ATOM     12  C   UNL     1      -0.430   9.846  22.462  0.00  0.00    +0.000 A 
ATOM     13  C   UNL     1       0.390   8.760  22.152  0.00  0.00    +0.000 A 
ATOM     14  C   UNL     1       0.905   8.561  20.850  0.00  0.00    +0.000 A 
ATOM     15  C   UNL     1       0.683   9.582  19.922  0.00  0.00    +0.000 A 
ATOM     16  C   UNL     1      -0.127  10.685  20.236  0.00  0.00    +0.000 A 
BRANCH  11  18
ATOM     17  C   UNL     1      -1.212  12.513  23.051  0.00  0.00    +0.000 C 
ATOM     18  O   UNL     1      -1.585  11.769  21.901  0.00  0.00    +0.000 OA
ENDBRANCH  11  18
ENDBRANCH   1  14
BRANCH   3  19
ATOM     19  C   UNL     1       3.804   6.202  17.903  0.00  0.00    +0.000 C 
ATOM     20  O   UNL     1       3.457   7.112  17.155  0.00  0.00    +0.000 OA
ATOM     21  N   UNL     1       4.764   5.258  17.557  0.00  0.00    +0.000 N 
ATOM     22  H   UNL     1       5.078   4.537  18.188  0.00  0.00    +0.000 HD
BRANCH  21  23
ATOM     23  N   UNL     1       5.392   5.385  16.360  0.00  0.00    +0.000 NA
ATOM     24  C   UNL     1       5.521   4.304  15.667  0.00  0.00    +0.000 C 
BRANCH  24  25
ATOM     25  C   UNL     1       6.133   4.349  14.333  0.00  0.00    +0.000 A 
ATOM     26  C   UNL     1       5.702   3.511  13.303  0.00  0.00    +0.000 A 
ATOM     27  C   UNL     1       6.369   3.546  12.084  0.00  0.00    +0.000 A 
ATOM     28  C   UNL     1       7.441   4.419  11.945  0.00  0.00    +0.000 A 
ATOM     29  N   UNL     1       7.863   5.254  12.922  0.00  0.00    +0.000 NA
ATOM     30  C   UNL     1       7.201   5.200  14.100  0.00  0.00    +0.000 A 
ENDBRANCH  24  25
ENDBRANCH  21  23
ENDBRANCH   3  19
TORSDOF 5
ENDMDL
