MODEL 1
REMARK VINA RESULT:      -7.3      0.000      0.000
REMARK  Name = 
REMARK  11 active torsions:
REMARK  status: ('A' for Active; 'I' for Inactive)
REMARK    1  A    between atoms: C_1  and  C_2
REMARK    2  A    between atoms: C_2  and  O_3
REMARK    3  A    between atoms: O_3  and  C_4
REMARK    4  A    between atoms: C_4  and  C_6
REMARK    5  A    between atoms: C_11  and  C_13
REMARK    6  A    between atoms: C_14  and  C_15
REMARK    7  A    between atoms: C_15  and  C_16
REMARK    8  A    between atoms: C_21  and  C_22
REMARK    9  A    between atoms: N_23  and  C_24
REMARK   10  A    between atoms: C_24  and  C_25
REMARK   11  A    between atoms: C_31  and  C_32
REMARK                            x       y       z     vdW  Elec       q    Type
REMARK                         _______ _______ _______ _____ _____    ______ ____
ROOT
ATOM      1  C   UNL     1      -1.337  12.830  19.972  0.00  0.00    +0.000 A 
ATOM      2  C   UNL     1      -0.929  11.686  19.331  0.00  0.00    +0.000 A 
ATOM      3  N   UNL     1       0.427  11.481  18.885  0.00  0.00    +0.000 N 
ATOM      4  C   UNL     1       1.331  12.560  18.962  0.00  0.00    +0.000 A 
ATOM      5  C   UNL     1       2.637  12.530  18.187  0.00  0.00    +0.000 C 
ATOM      6  C   UNL     1       1.054  13.681  19.629  0.00  0.00    +0.000 A 
ATOM      7  C   UNL     1      -0.270  13.864  20.240  0.00  0.00    +0.000 A 
ATOM      8  O   UNL     1      -0.456  14.899  20.876  0.00  0.00    +0.000 OA
ENDROOT
BRANCH   1  14
ATOM      9  C   UNL     1      -4.778  13.624  23.347  0.00  0.00    +0.000 C 
ATOM     10  C   UNL     1      -3.868  13.204  24.510  0.00  0.00    +0.000 C 
ATOM     11  C   UNL     1      -2.440  13.019  24.017  0.00  0.00    +0.000 C 
ATOM     12  C   UNL     1      -2.436  12.019  22.851  0.00  0.00    +0.000 C 
ATOM     13  N   UNL     1      -3.187  12.578  21.750  0.00  0.00    +0.000 N 
ATOM     14  C   UNL     1      -2.701  13.185  20.590  0.00  0.00    +0.000 C 
ATOM     15  O   UNL     1      -3.428  13.973  19.971  0.00  0.00    +0.000 OA
ATOM     16  C   UNL     1      -4.594  12.730  22.108  0.00  0.00    +0.000 C 
BRANCH   9  17
ATOM     17  C   UNL     1      -6.229  13.502  23.729  0.00  0.00    +0.000 C 
ATOM     18  O   UNL     1      -6.943  14.431  24.080  0.00  0.00    +0.000 OA
BRANCH  17  19
ATOM     19  O   UNL     1      -6.554  12.183  23.799  0.00  0.00    +0.000 OA
BRANCH  19  21
ATOM     20  C   UNL     1      -7.914  11.675  21.905  0.00  0.00    +0.000 C 
ATOM     21  C   UNL     1      -7.896  11.879  23.411  0.00  0.00    +0.000 C 
ENDBRANCH  19  21
ENDBRANCH  17  19
ENDBRANCH   9  17
ENDBRANCH   1  14
BRANCH   2  22
ATOM     22  C   UNL     1      -1.875  10.535  19.083  0.00  0.00    +0.000 C 
BRANCH  22  23
ATOM     23  C   UNL     1      -2.717  10.552  17.782  0.00  0.00    +0.000 A 
ATOM     24  C   UNL     1      -2.077   9.991  16.655  0.00  0.00    +0.000 A 
ATOM     25  C   UNL     1      -2.638  10.064  15.380  0.00  0.00    +0.000 A 
ATOM     26  C   UNL     1      -3.814  10.770  15.185  0.00  0.00    +0.000 A 
ATOM     27  C   UNL     1      -4.498  11.279  16.281  0.00  0.00    +0.000 A 
ATOM     28  C   UNL     1      -4.022  11.098  17.594  0.00  0.00    +0.000 A 
ATOM     29  C   UNL     1      -5.018  11.450  18.679  0.00  0.00    +0.000 C 
ENDBRANCH  22  23
ENDBRANCH   2  22
BRANCH   3  30
ATOM     30  C   UNL     1       0.804  10.247  18.095  0.00  0.00    +0.000 C 
BRANCH  30  31
ATOM     31  C   UNL     1       1.288   9.096  18.933  0.00  0.00    +0.000 A 
ATOM     32  C   UNL     1       2.081   8.104  18.367  0.00  0.00    +0.000 A 
ATOM     33  C   UNL     1       2.491   7.052  19.172  0.00  0.00    +0.000 A 
ATOM     34  C   UNL     1       2.122   7.038  20.512  0.00  0.00    +0.000 A 
ATOM     35  C   UNL     1       1.379   8.094  21.007  0.00  0.00    +0.000 A 
ATOM     36  N   UNL     1       0.957   9.121  20.249  0.00  0.00    +0.000 NA
ENDBRANCH  30  31
ENDBRANCH   3  30
TORSDOF 8
ENDMDL
MODEL 2
REMARK VINA RESULT:      -7.0      3.315      7.276
REMARK  Name = 
REMARK  11 active torsions:
REMARK  status: ('A' for Active; 'I' for Inactive)
REMARK    1  A    between atoms: C_1  and  C_2
REMARK    2  A    between atoms: C_2  and  O_3
REMARK    3  A    between atoms: O_3  and  C_4
REMARK    4  A    between atoms: C_4  and  C_6
REMARK    5  A    between atoms: C_11  and  C_13
REMARK    6  A    between atoms: C_14  and  C_15
REMARK    7  A    between atoms: C_15  and  C_16
REMARK    8  A    between atoms: C_21  and  C_22
REMARK    9  A    between atoms: N_23  and  C_24
REMARK   10  A    between atoms: C_24  and  C_25
REMARK   11  A    between atoms: C_31  and  C_32
REMARK                            x       y       z     vdW  Elec       q    Type
REMARK                         _______ _______ _______ _____ _____    ______ ____
ROOT
ATOM      1  C   UNL     1       0.706  10.906  18.710  0.00  0.00    +0.000 A 
ATOM      2  C   UNL     1      -0.574  11.318  18.987  0.00  0.00    +0.000 A 
ATOM      3  N   UNL     1      -0.909  12.691  19.272  0.00  0.00    +0.000 N 
ATOM      4  C   UNL     1       0.138  13.620  19.434  0.00  0.00    +0.000 A 
ATOM      5  C   UNL     1      -0.118  14.967  20.086  0.00  0.00    +0.000 C 
ATOM      6  C   UNL     1       1.402  13.337  19.117  0.00  0.00    +0.000 A 
ATOM      7  C   UNL     1       1.761  11.985  18.666  0.00  0.00    +0.000 A 
ATOM      8  O   UNL     1       2.933  11.792  18.350  0.00  0.00    +0.000 OA
ENDROOT
BRANCH   1  14
ATOM      9  C   UNL     1       1.961   6.196  19.029  0.00  0.00    +0.000 C 
ATOM     10  C   UNL     1       1.614   6.107  20.522  0.00  0.00    +0.000 C 
ATOM     11  C   UNL     1       0.903   7.375  20.971  0.00  0.00    +0.000 C 
ATOM     12  C   UNL     1       1.775   8.591  20.621  0.00  0.00    +0.000 C 
ATOM     13  N   UNL     1       1.909   8.675  19.184  0.00  0.00    +0.000 N 
ATOM     14  C   UNL     1       1.234   9.519  18.300  0.00  0.00    +0.000 C 
ATOM     15  O   UNL     1       1.135   9.192  17.110  0.00  0.00    +0.000 OA
ATOM     16  C   UNL     1       2.644   7.526  18.665  0.00  0.00    +0.000 C 
BRANCH   9  17
ATOM     17  C   UNL     1       2.934   5.115  18.638  0.00  0.00    +0.000 C 
ATOM     18  O   UNL     1       4.135   5.135  18.865  0.00  0.00    +0.000 OA
BRANCH  17  19
ATOM     19  O   UNL     1       2.293   4.219  17.840  0.00  0.00    +0.000 OA
BRANCH  19  21
ATOM     20  C   UNL     1       0.862   2.571  18.806  0.00  0.00    +0.000 C 
ATOM     21  C   UNL     1       2.276   2.880  18.342  0.00  0.00    +0.000 C 
ENDBRANCH  19  21
ENDBRANCH  17  19
ENDBRANCH   9  17
ENDBRANCH   1  14
BRANCH   2  22
ATOM     22  C   UNL     1      -1.737  10.355  18.972  0.00  0.00    +0.000 C 
BRANCH  22  23
ATOM     23  C   UNL     1      -2.630  10.312  17.706  0.00  0.00    +0.000 A 
ATOM     24  C   UNL     1      -2.003   9.782  16.557  0.00  0.00    +0.000 A 
ATOM     25  C   UNL     1      -2.617   9.811  15.305  0.00  0.00    +0.000 A 
ATOM     26  C   UNL     1      -3.840  10.444  15.153  0.00  0.00    +0.000 A 
ATOM     27  C   UNL     1      -4.509  10.919  16.274  0.00  0.00    +0.000 A 
ATOM     28  C   UNL     1      -3.972  10.776  17.567  0.00  0.00    +0.000 A 
ATOM     29  C   UNL     1      -4.943  11.076  18.689  0.00  0.00    +0.000 C 
ENDBRANCH  22  23
ENDBRANCH   2  22
BRANCH   3  30
ATOM     30  C   UNL     1      -2.317  13.078  19.669  0.00  0.00    +0.000 C 
BRANCH  30  31
ATOM     31  C   UNL     1      -2.658  12.794  21.105  0.00  0.00    +0.000 A 
ATOM     32  C   UNL     1      -3.933  13.064  21.588  0.00  0.00    +0.000 A 
ATOM     33  C   UNL     1      -4.200  12.801  22.923  0.00  0.00    +0.000 A 
ATOM     34  C   UNL     1      -3.201  12.256  23.722  0.00  0.00    +0.000 A 
ATOM     35  C   UNL     1      -1.977  11.965  23.147  0.00  0.00    +0.000 A 
ATOM     36  N   UNL     1      -1.685  12.220  21.858  0.00  0.00    +0.000 NA
ENDBRANCH  30  31
ENDBRANCH   3  30
TORSDOF 8
ENDMDL
MODEL 3
REMARK VINA RESULT:      -6.9      2.919      7.684
REMARK  Name = 
REMARK  11 active torsions:
REMARK  status: ('A' for Active; 'I' for Inactive)
REMARK    1  A    between atoms: C_1  and  C_2
REMARK    2  A    between atoms: C_2  and  O_3
REMARK    3  A    between atoms: O_3  and  C_4
REMARK    4  A    between atoms: C_4  and  C_6
REMARK    5  A    between atoms: C_11  and  C_13
REMARK    6  A    between atoms: C_14  and  C_15
REMARK    7  A    between atoms: C_15  and  C_16
REMARK    8  A    between atoms: C_21  and  C_22
REMARK    9  A    between atoms: N_23  and  C_24
REMARK   10  A    between atoms: C_24  and  C_25
REMARK   11  A    between atoms: C_31  and  C_32
REMARK                            x       y       z     vdW  Elec       q    Type
REMARK                         _______ _______ _______ _____ _____    ______ ____
ROOT
ATOM      1  C   UNL     1      -0.755  11.862  19.641  0.00  0.00    +0.000 A 
ATOM      2  C   UNL     1      -2.032  12.325  19.438  0.00  0.00    +0.000 A 
ATOM      3  N   UNL     1      -2.988  11.642  18.604  0.00  0.00    +0.000 N 
ATOM      4  C   UNL     1      -2.548  10.546  17.835  0.00  0.00    +0.000 A 
ATOM      5  C   UNL     1      -3.389  10.025  16.681  0.00  0.00    +0.000 C 
ATOM      6  C   UNL     1      -1.355   9.978  18.014  0.00  0.00    +0.000 A 
ATOM      7  C   UNL     1      -0.406  10.552  18.977  0.00  0.00    +0.000 A 
ATOM      8  O   UNL     1       0.663   9.964  19.130  0.00  0.00    +0.000 OA
ENDROOT
BRANCH   1  14
ATOM      9  C   UNL     1       2.634  14.872  21.461  0.00  0.00    +0.000 C 
ATOM     10  C   UNL     1       2.435  15.919  20.355  0.00  0.00    +0.000 C 
ATOM     11  C   UNL     1       1.217  15.565  19.513  0.00  0.00    +0.000 C 
ATOM     12  C   UNL     1       1.377  14.135  18.975  0.00  0.00    +0.000 C 
ATOM     13  N   UNL     1       1.395  13.213  20.088  0.00  0.00    +0.000 N 
ATOM     14  C   UNL     1       0.360  12.400  20.555  0.00  0.00    +0.000 C 
ATOM     15  O   UNL     1       0.385  12.008  21.729  0.00  0.00    +0.000 OA
ATOM     16  C   UNL     1       2.573  13.433  20.922  0.00  0.00    +0.000 C 
BRANCH   9  17
ATOM     17  C   UNL     1       3.992  15.015  22.097  0.00  0.00    +0.000 C 
ATOM     18  O   UNL     1       4.648  16.046  22.127  0.00  0.00    +0.000 OA
BRANCH  17  19
ATOM     19  O   UNL     1       4.437  13.782  22.458  0.00  0.00    +0.000 OA
BRANCH  19  21
ATOM     20  C   UNL     1       6.150  12.407  23.391  0.00  0.00    +0.000 C 
ATOM     21  C   UNL     1       5.520  13.790  23.392  0.00  0.00    +0.000 C 
ENDBRANCH  19  21
ENDBRANCH  17  19
ENDBRANCH   9  17
ENDBRANCH   1  14
BRANCH   2  22
ATOM     22  C   UNL     1      -2.538  13.576  20.118  0.00  0.00    +0.000 C 
BRANCH  22  23
ATOM     23  C   UNL     1      -2.636  13.575  21.664  0.00  0.00    +0.000 A 
ATOM     24  C   UNL     1      -3.394  12.515  22.209  0.00  0.00    +0.000 A 
ATOM     25  C   UNL     1      -3.702  12.455  23.568  0.00  0.00    +0.000 A 
ATOM     26  C   UNL     1      -3.331  13.496  24.404  0.00  0.00    +0.000 A 
ATOM     27  C   UNL     1      -2.533  14.520  23.911  0.00  0.00    +0.000 A 
ATOM     28  C   UNL     1      -2.092  14.531  22.574  0.00  0.00    +0.000 A 
ATOM     29  C   UNL     1      -1.007  15.543  22.277  0.00  0.00    +0.000 C 
ENDBRANCH  22  23
ENDBRANCH   2  22
BRANCH   3  30
ATOM     30  C   UNL     1      -4.349  12.245  18.332  0.00  0.00    +0.000 C 
BRANCH  30  31
ATOM     31  C   UNL     1      -5.470  11.634  19.126  0.00  0.00    +0.000 A 
ATOM     32  C   UNL     1      -5.998  12.306  20.223  0.00  0.00    +0.000 A 
ATOM     33  C   UNL     1      -7.020  11.698  20.936  0.00  0.00    +0.000 A 
ATOM     34  C   UNL     1      -7.497  10.461  20.520  0.00  0.00    +0.000 A 
ATOM     35  C   UNL     1      -6.954   9.888  19.384  0.00  0.00    +0.000 A 
ATOM     36  N   UNL     1      -5.955  10.448  18.679  0.00  0.00    +0.000 NA
ENDBRANCH  30  31
ENDBRANCH   3  30
TORSDOF 8
ENDMDL
MODEL 4
REMARK VINA RESULT:      -6.9      3.354      8.349
REMARK  Name = 
REMARK  11 active torsions:
REMARK  status: ('A' for Active; 'I' for Inactive)
REMARK    1  A    between atoms: C_1  and  C_2
REMARK    2  A    between atoms: C_2  and  O_3
REMARK    3  A    between atoms: O_3  and  C_4
REMARK    4  A    between atoms: C_4  and  C_6
REMARK    5  A    between atoms: C_11  and  C_13
REMARK    6  A    between atoms: C_14  and  C_15
REMARK    7  A    between atoms: C_15  and  C_16
REMARK    8  A    between atoms: C_21  and  C_22
REMARK    9  A    between atoms: N_23  and  C_24
REMARK   10  A    between atoms: C_24  and  C_25
REMARK   11  A    between atoms: C_31  and  C_32
REMARK                            x       y       z     vdW  Elec       q    Type
REMARK                         _______ _______ _______ _____ _____    ______ ____
ROOT
ATOM      1  C   UNL     1      -0.291  14.213  22.228  0.00  0.00    +0.000 A 
ATOM      2  C   UNL     1      -1.388  13.392  22.127  0.00  0.00    +0.000 A 
ATOM      3  N   UNL     1      -2.529  13.502  23.001  0.00  0.00    +0.000 N 
ATOM      4  C   UNL     1      -2.451  14.373  24.105  0.00  0.00    +0.000 A 
ATOM      5  C   UNL     1      -3.446  14.264  25.248  0.00  0.00    +0.000 C 
ATOM      6  C   UNL     1      -1.465  15.260  24.250  0.00  0.00    +0.000 A 
ATOM      7  C   UNL     1      -0.357  15.289  23.285  0.00  0.00    +0.000 A 
ATOM      8  O   UNL     1       0.503  16.153  23.445  0.00  0.00    +0.000 OA
ENDROOT
BRANCH   1  14
ATOM      9  C   UNL     1       3.019  16.034  19.133  0.00  0.00    +0.000 C 
ATOM     10  C   UNL     1       2.239  17.339  18.917  0.00  0.00    +0.000 C 
ATOM     11  C   UNL     1       1.079  17.424  19.899  0.00  0.00    +0.000 C 
ATOM     12  C   UNL     1       0.210  16.165  19.761  0.00  0.00    +0.000 C 
ATOM     13  N   UNL     1       0.991  15.010  20.139  0.00  0.00    +0.000 N 
ATOM     14  C   UNL     1       0.964  14.303  21.342  0.00  0.00    +0.000 C 
ATOM     15  O   UNL     1       1.954  13.636  21.673  0.00  0.00    +0.000 OA
ATOM     16  C   UNL     1       2.096  14.806  19.207  0.00  0.00    +0.000 C 
BRANCH   9  17
ATOM     17  C   UNL     1       3.958  15.774  17.985  0.00  0.00    +0.000 C 
ATOM     18  O   UNL     1       3.615  15.572  16.828  0.00  0.00    +0.000 OA
BRANCH  17  19
ATOM     19  O   UNL     1       5.216  15.617  18.476  0.00  0.00    +0.000 OA
BRANCH  19  21
ATOM     20  C   UNL     1       7.437  15.089  17.780  0.00  0.00    +0.000 C 
ATOM     21  C   UNL     1       5.993  14.616  17.814  0.00  0.00    +0.000 C 
ENDBRANCH  19  21
ENDBRANCH  17  19
ENDBRANCH   9  17
ENDBRANCH   1  14
BRANCH   2  22
ATOM     22  C   UNL     1      -1.489  12.334  21.055  0.00  0.00    +0.000 C 
BRANCH  22  23
ATOM     23  C   UNL     1      -0.697  11.017  21.253  0.00  0.00    +0.000 A 
ATOM     24  C   UNL     1      -0.596  10.583  22.594  0.00  0.00    +0.000 A 
ATOM     25  C   UNL     1       0.207   9.503  22.957  0.00  0.00    +0.000 A 
ATOM     26  C   UNL     1       0.993   8.878  22.003  0.00  0.00    +0.000 A 
ATOM     27  C   UNL     1       0.869   9.240  20.668  0.00  0.00    +0.000 A 
ATOM     28  C   UNL     1      -0.038  10.236  20.257  0.00  0.00    +0.000 A 
ATOM     29  C   UNL     1      -0.263  10.306  18.762  0.00  0.00    +0.000 C 
ENDBRANCH  22  23
ENDBRANCH   2  22
BRANCH   3  30
ATOM     30  C   UNL     1      -3.669  12.510  22.914  0.00  0.00    +0.000 C 
BRANCH  30  31
ATOM     31  C   UNL     1      -4.840  12.979  22.096  0.00  0.00    +0.000 A 
ATOM     32  C   UNL     1      -4.761  14.168  21.379  0.00  0.00    +0.000 A 
ATOM     33  C   UNL     1      -5.871  14.570  20.651  0.00  0.00    +0.000 A 
ATOM     34  C   UNL     1      -7.006  13.767  20.641  0.00  0.00    +0.000 A 
ATOM     35  C   UNL     1      -6.979  12.572  21.337  0.00  0.00    +0.000 A 
ATOM     36  N   UNL     1      -5.922  12.161  22.060  0.00  0.00    +0.000 NA
ENDBRANCH  30  31
ENDBRANCH   3  30
TORSDOF 8
ENDMDL
MODEL 5
REMARK VINA RESULT:      -6.9      0.835      1.491
REMARK  Name = 
REMARK  11 active torsions:
REMARK  status: ('A' for Active; 'I' for Inactive)
REMARK    1  A    between atoms: C_1  and  C_2
REMARK    2  A    between atoms: C_2  and  O_3
REMARK    3  A    between atoms: O_3  and  C_4
REMARK    4  A    between atoms: C_4  and  C_6
REMARK    5  A    between atoms: C_11  and  C_13
REMARK    6  A    between atoms: C_14  and  C_15
REMARK    7  A    between atoms: C_15  and  C_16
REMARK    8  A    between atoms: C_21  and  C_22
REMARK    9  A    between atoms: N_23  and  C_24
REMARK   10  A    between atoms: C_24  and  C_25
REMARK   11  A    between atoms: C_31  and  C_32
REMARK                            x       y       z     vdW  Elec       q    Type
REMARK                         _______ _______ _______ _____ _____    ______ ____
ROOT
ATOM      1  C   UNL     1      -1.448  12.841  20.021  0.00  0.00    +0.000 A 
ATOM      2  C   UNL     1      -0.994  11.726  19.361  0.00  0.00    +0.000 A 
ATOM      3  N   UNL     1       0.369  11.582  18.914  0.00  0.00    +0.000 N 
ATOM      4  C   UNL     1       1.229  12.694  19.009  0.00  0.00    +0.000 A 
ATOM      5  C   UNL     1       2.536  12.729  18.235  0.00  0.00    +0.000 C 
ATOM      6  C   UNL     1       0.908  13.792  19.695  0.00  0.00    +0.000 A 
ATOM      7  C   UNL     1      -0.423  13.912  20.307  0.00  0.00    +0.000 A 
ATOM      8  O   UNL     1      -0.650  14.928  20.960  0.00  0.00    +0.000 OA
ENDROOT
BRANCH   1  14
ATOM      9  C   UNL     1      -4.909  13.482  23.408  0.00  0.00    +0.000 C 
ATOM     10  C   UNL     1      -3.974  13.115  24.569  0.00  0.00    +0.000 C 
ATOM     11  C   UNL     1      -2.540  12.999  24.070  0.00  0.00    +0.000 C 
ATOM     12  C   UNL     1      -2.492  11.993  22.909  0.00  0.00    +0.000 C 
ATOM     13  N   UNL     1      -3.275  12.508  21.809  0.00  0.00    +0.000 N 
ATOM     14  C   UNL     1      -2.824  13.132  20.644  0.00  0.00    +0.000 C 
ATOM     15  O   UNL     1      -3.593  13.878  20.024  0.00  0.00    +0.000 OA
ATOM     16  C   UNL     1      -4.686  12.592  22.173  0.00  0.00    +0.000 C 
BRANCH   9  17
ATOM     17  C   UNL     1      -6.351  13.291  23.798  0.00  0.00    +0.000 C 
ATOM     18  O   UNL     1      -6.857  12.223  24.114  0.00  0.00    +0.000 OA
BRANCH  17  19
ATOM     19  O   UNL     1      -7.025  14.447  23.560  0.00  0.00    +0.000 OA
BRANCH  19  21
ATOM     20  C   UNL     1      -7.090  16.822  23.332  0.00  0.00    +0.000 C 
ATOM     21  C   UNL     1      -6.279  15.637  23.829  0.00  0.00    +0.000 C 
ENDBRANCH  19  21
ENDBRANCH  17  19
ENDBRANCH   9  17
ENDBRANCH   1  14
BRANCH   2  22
ATOM     22  C   UNL     1      -1.894  10.542  19.093  0.00  0.00    +0.000 C 
BRANCH  22  23
ATOM     23  C   UNL     1      -2.725  10.541  17.786  0.00  0.00    +0.000 A 
ATOM     24  C   UNL     1      -2.058  10.008  16.660  0.00  0.00    +0.000 A 
ATOM     25  C   UNL     1      -2.610  10.071  15.381  0.00  0.00    +0.000 A 
ATOM     26  C   UNL     1      -3.806  10.741  15.180  0.00  0.00    +0.000 A 
ATOM     27  C   UNL     1      -4.515  11.220  16.274  0.00  0.00    +0.000 A 
ATOM     28  C   UNL     1      -4.045  11.046  17.590  0.00  0.00    +0.000 A 
ATOM     29  C   UNL     1      -5.060  11.358  18.668  0.00  0.00    +0.000 C 
ENDBRANCH  22  23
ENDBRANCH   2  22
BRANCH   3  30
ATOM     30  C   UNL     1       0.796  10.377  18.104  0.00  0.00    +0.000 C 
BRANCH  30  31
ATOM     31  C   UNL     1       1.279   9.215  18.926  0.00  0.00    +0.000 A 
ATOM     32  C   UNL     1       0.943   9.122  20.272  0.00  0.00    +0.000 A 
ATOM     33  C   UNL     1       1.423   8.041  20.996  0.00  0.00    +0.000 A 
ATOM     34  C   UNL     1       2.196   7.081  20.353  0.00  0.00    +0.000 A 
ATOM     35  C   UNL     1       2.436   7.222  18.997  0.00  0.00    +0.000 A 
ATOM     36  N   UNL     1       1.993   8.264  18.272  0.00  0.00    +0.000 NA
ENDBRANCH  30  31
ENDBRANCH   3  30
TORSDOF 8
ENDMDL
MODEL 6
REMARK VINA RESULT:      -6.9      3.341      7.474
REMARK  Name = 
REMARK  11 active torsions:
REMARK  status: ('A' for Active; 'I' for Inactive)
REMARK    1  A    between atoms: C_1  and  C_2
REMARK    2  A    between atoms: C_2  and  O_3
REMARK    3  A    between atoms: O_3  and  C_4
REMARK    4  A    between atoms: C_4  and  C_6
REMARK    5  A    between atoms: C_11  and  C_13
REMARK    6  A    between atoms: C_14  and  C_15
REMARK    7  A    between atoms: C_15  and  C_16
REMARK    8  A    between atoms: C_21  and  C_22
REMARK    9  A    between atoms: N_23  and  C_24
REMARK   10  A    between atoms: C_24  and  C_25
REMARK   11  A    between atoms: C_31  and  C_32
REMARK                            x       y       z     vdW  Elec       q    Type
REMARK                         _______ _______ _______ _____ _____    ______ ____
ROOT
ATOM      1  C   UNL     1       0.728  10.868  18.695  0.00  0.00    +0.000 A 
ATOM      2  C   UNL     1      -0.550  11.276  18.984  0.00  0.00    +0.000 A 
ATOM      3  N   UNL     1      -0.883  12.645  19.293  0.00  0.00    +0.000 N 
ATOM      4  C   UNL     1       0.166  13.570  19.465  0.00  0.00    +0.000 A 
ATOM      5  C   UNL     1      -0.087  14.907  20.140  0.00  0.00    +0.000 C 
ATOM      6  C   UNL     1       1.428  13.291  19.138  0.00  0.00    +0.000 A 
ATOM      7  C   UNL     1       1.784  11.946  18.664  0.00  0.00    +0.000 A 
ATOM      8  O   UNL     1       2.954  11.757  18.339  0.00  0.00    +0.000 OA
ENDROOT
BRANCH   1  14
ATOM      9  C   UNL     1       2.015   6.162  18.943  0.00  0.00    +0.000 C 
ATOM     10  C   UNL     1       1.705   6.058  20.443  0.00  0.00    +0.000 C 
ATOM     11  C   UNL     1       0.998   7.319  20.920  0.00  0.00    +0.000 C 
ATOM     12  C   UNL     1       1.855   8.542  20.559  0.00  0.00    +0.000 C 
ATOM     13  N   UNL     1       1.953   8.640  19.120  0.00  0.00    +0.000 N 
ATOM     14  C   UNL     1       1.252   9.488  18.261  0.00  0.00    +0.000 C 
ATOM     15  O   UNL     1       1.126   9.169  17.071  0.00  0.00    +0.000 OA
ATOM     16  C   UNL     1       2.681   7.499  18.574  0.00  0.00    +0.000 C 
BRANCH   9  17
ATOM     17  C   UNL     1       2.983   5.089  18.519  0.00  0.00    +0.000 C 
ATOM     18  O   UNL     1       3.161   4.719  17.367  0.00  0.00    +0.000 OA
BRANCH  17  19
ATOM     19  O   UNL     1       3.478   4.484  19.630  0.00  0.00    +0.000 OA
BRANCH  19  21
ATOM     20  C   UNL     1       4.230   2.319  20.299  0.00  0.00    +0.000 C 
ATOM     21  C   UNL     1       4.482   3.498  19.374  0.00  0.00    +0.000 C 
ENDBRANCH  19  21
ENDBRANCH  17  19
ENDBRANCH   9  17
ENDBRANCH   1  14
BRANCH   2  22
ATOM     22  C   UNL     1      -1.715  10.314  18.959  0.00  0.00    +0.000 C 
BRANCH  22  23
ATOM     23  C   UNL     1      -2.618  10.297  17.699  0.00  0.00    +0.000 A 
ATOM     24  C   UNL     1      -2.015   9.746  16.547  0.00  0.00    +0.000 A 
ATOM     25  C   UNL     1      -2.637   9.792  15.300  0.00  0.00    +0.000 A 
ATOM     26  C   UNL     1      -3.841  10.463  15.155  0.00  0.00    +0.000 A 
ATOM     27  C   UNL     1      -4.487  10.961  16.279  0.00  0.00    +0.000 A 
ATOM     28  C   UNL     1      -3.945  10.804  17.569  0.00  0.00    +0.000 A 
ATOM     29  C   UNL     1      -4.898  11.136  18.697  0.00  0.00    +0.000 C 
ENDBRANCH  22  23
ENDBRANCH   2  22
BRANCH   3  30
ATOM     30  C   UNL     1      -2.289  13.026  19.703  0.00  0.00    +0.000 C 
BRANCH  30  31
ATOM     31  C   UNL     1      -2.619  12.732  21.139  0.00  0.00    +0.000 A 
ATOM     32  C   UNL     1      -1.665  12.159  21.973  0.00  0.00    +0.000 A 
ATOM     33  C   UNL     1      -2.017  11.890  23.287  0.00  0.00    +0.000 A 
ATOM     34  C   UNL     1      -3.292  12.222  23.731  0.00  0.00    +0.000 A 
ATOM     35  C   UNL     1      -4.160  12.842  22.851  0.00  0.00    +0.000 A 
ATOM     36  N   UNL     1      -3.851  13.105  21.568  0.00  0.00    +0.000 NA
ENDBRANCH  30  31
ENDBRANCH   3  30
TORSDOF 8
ENDMDL
MODEL 7
REMARK VINA RESULT:      -6.8      2.920      7.718
REMARK  Name = 
REMARK  11 active torsions:
REMARK  status: ('A' for Active; 'I' for Inactive)
REMARK    1  A    between atoms: C_1  and  C_2
REMARK    2  A    between atoms: C_2  and  O_3
REMARK    3  A    between atoms: O_3  and  C_4
REMARK    4  A    between atoms: C_4  and  C_6
REMARK    5  A    between atoms: C_11  and  C_13
REMARK    6  A    between atoms: C_14  and  C_15
REMARK    7  A    between atoms: C_15  and  C_16
REMARK    8  A    between atoms: C_21  and  C_22
REMARK    9  A    between atoms: N_23  and  C_24
REMARK   10  A    between atoms: C_24  and  C_25
REMARK   11  A    between atoms: C_31  and  C_32
REMARK                            x       y       z     vdW  Elec       q    Type
REMARK                         _______ _______ _______ _____ _____    ______ ____
ROOT
ATOM      1  C   UNL     1      -0.973  12.065  19.888  0.00  0.00    +0.000 A 
ATOM      2  C   UNL     1      -2.268  12.459  19.655  0.00  0.00    +0.000 A 
ATOM      3  N   UNL     1      -3.168  11.722  18.804  0.00  0.00    +0.000 N 
ATOM      4  C   UNL     1      -2.653  10.648  18.050  0.00  0.00    +0.000 A 
ATOM      5  C   UNL     1      -3.439  10.079  16.881  0.00  0.00    +0.000 C 
ATOM      6  C   UNL     1      -1.436  10.146  18.257  0.00  0.00    +0.000 A 
ATOM      7  C   UNL     1      -0.540  10.773  19.238  0.00  0.00    +0.000 A 
ATOM      8  O   UNL     1       0.555  10.244  19.416  0.00  0.00    +0.000 OA
ENDROOT
BRANCH   1  14
ATOM      9  C   UNL     1       2.199  15.265  21.774  0.00  0.00    +0.000 C 
ATOM     10  C   UNL     1       1.959  16.301  20.667  0.00  0.00    +0.000 C 
ATOM     11  C   UNL     1       0.780  15.878  19.802  0.00  0.00    +0.000 C 
ATOM     12  C   UNL     1       1.033  14.461  19.265  0.00  0.00    +0.000 C 
ATOM     13  N   UNL     1       1.085  13.539  20.377  0.00  0.00    +0.000 N 
ATOM     14  C   UNL     1       0.092  12.665  20.823  0.00  0.00    +0.000 C 
ATOM     15  O   UNL     1       0.117  12.273  21.997  0.00  0.00    +0.000 OA
ATOM     16  C   UNL     1       2.232  13.826  21.233  0.00  0.00    +0.000 C 
BRANCH   9  17
ATOM     17  C   UNL     1       3.534  15.486  22.436  0.00  0.00    +0.000 C 
ATOM     18  O   UNL     1       4.129  14.657  23.110  0.00  0.00    +0.000 OA
BRANCH  17  19
ATOM     19  O   UNL     1       3.869  16.798  22.316  0.00  0.00    +0.000 OA
BRANCH  19  21
ATOM     20  C   UNL     1       5.451  18.197  21.203  0.00  0.00    +0.000 C 
ATOM     21  C   UNL     1       5.271  17.044  22.177  0.00  0.00    +0.000 C 
ENDBRANCH  19  21
ENDBRANCH  17  19
ENDBRANCH   9  17
ENDBRANCH   1  14
BRANCH   2  22
ATOM     22  C   UNL     1      -2.855  13.683  20.317  0.00  0.00    +0.000 C 
BRANCH  22  23
ATOM     23  C   UNL     1      -2.938  13.704  21.865  0.00  0.00    +0.000 A 
ATOM     24  C   UNL     1      -3.491  12.541  22.445  0.00  0.00    +0.000 A 
ATOM     25  C   UNL     1      -3.772  12.463  23.808  0.00  0.00    +0.000 A 
ATOM     26  C   UNL     1      -3.583  13.574  24.615  0.00  0.00    +0.000 A 
ATOM     27  C   UNL     1      -2.983  14.710  24.087  0.00  0.00    +0.000 A 
ATOM     28  C   UNL     1      -2.563  14.764  22.744  0.00  0.00    +0.000 A 
ATOM     29  C   UNL     1      -1.675  15.943  22.409  0.00  0.00    +0.000 C 
ENDBRANCH  22  23
ENDBRANCH   2  22
BRANCH   3  30
ATOM     30  C   UNL     1      -4.553  12.250  18.500  0.00  0.00    +0.000 C 
BRANCH  30  31
ATOM     31  C   UNL     1      -5.654  11.601  19.291  0.00  0.00    +0.000 A 
ATOM     32  C   UNL     1      -6.188  12.242  20.404  0.00  0.00    +0.000 A 
ATOM     33  C   UNL     1      -7.191  11.600  21.113  0.00  0.00    +0.000 A 
ATOM     34  C   UNL     1      -7.644  10.359  20.679  0.00  0.00    +0.000 A 
ATOM     35  C   UNL     1      -7.097   9.818  19.529  0.00  0.00    +0.000 A 
ATOM     36  N   UNL     1      -6.115  10.412  18.827  0.00  0.00    +0.000 NA
ENDBRANCH  30  31
ENDBRANCH   3  30
TORSDOF 8
ENDMDL
MODEL 8
REMARK VINA RESULT:      -6.8      2.622      4.612
REMARK  Name = 
REMARK  11 active torsions:
REMARK  status: ('A' for Active; 'I' for Inactive)
REMARK    1  A    between atoms: C_1  and  C_2
REMARK    2  A    between atoms: C_2  and  O_3
REMARK    3  A    between atoms: O_3  and  C_4
REMARK    4  A    between atoms: C_4  and  C_6
REMARK    5  A    between atoms: C_11  and  C_13
REMARK    6  A    between atoms: C_14  and  C_15
REMARK    7  A    between atoms: C_15  and  C_16
REMARK    8  A    between atoms: C_21  and  C_22
REMARK    9  A    between atoms: N_23  and  C_24
REMARK   10  A    between atoms: C_24  and  C_25
REMARK   11  A    between atoms: C_31  and  C_32
REMARK                            x       y       z     vdW  Elec       q    Type
REMARK                         _______ _______ _______ _____ _____    ______ ____
ROOT
ATOM      1  C   UNL     1       0.008  15.132  21.061  0.00  0.00    +0.000 A 
ATOM      2  C   UNL     1       0.962  14.509  20.295  0.00  0.00    +0.000 A 
ATOM      3  N   UNL     1       1.839  15.227  19.404  0.00  0.00    +0.000 N 
ATOM      4  C   UNL     1       1.601  16.598  19.184  0.00  0.00    +0.000 A 
ATOM      5  C   UNL     1       2.236  17.313  18.004  0.00  0.00    +0.000 C 
ATOM      6  C   UNL     1       0.750  17.305  19.929  0.00  0.00    +0.000 A 
ATOM      7  C   UNL     1      -0.051  16.637  20.964  0.00  0.00    +0.000 A 
ATOM      8  O   UNL     1      -0.789  17.345  21.646  0.00  0.00    +0.000 OA
ENDROOT
BRANCH   1  14
ATOM      9  C   UNL     1      -3.831  12.822  23.008  0.00  0.00    +0.000 C 
ATOM     10  C   UNL     1      -4.482  12.554  21.644  0.00  0.00    +0.000 C 
ATOM     11  C   UNL     1      -3.520  12.921  20.523  0.00  0.00    +0.000 C 
ATOM     12  C   UNL     1      -3.068  14.378  20.706  0.00  0.00    +0.000 C 
ATOM     13  N   UNL     1      -2.328  14.490  21.943  0.00  0.00    +0.000 N 
ATOM     14  C   UNL     1      -0.945  14.552  22.121  0.00  0.00    +0.000 C 
ATOM     15  O   UNL     1      -0.463  14.219  23.212  0.00  0.00    +0.000 OA
ATOM     16  C   UNL     1      -3.193  14.220  23.088  0.00  0.00    +0.000 C 
BRANCH   9  17
ATOM     17  C   UNL     1      -4.856  12.776  24.111  0.00  0.00    +0.000 C 
ATOM     18  O   UNL     1      -4.784  12.070  25.107  0.00  0.00    +0.000 OA
BRANCH  17  19
ATOM     19  O   UNL     1      -5.944  13.495  23.727  0.00  0.00    +0.000 OA
BRANCH  19  21
ATOM     20  C   UNL     1      -7.913  12.273  23.155  0.00  0.00    +0.000 C 
ATOM     21  C   UNL     1      -7.186  13.025  24.257  0.00  0.00    +0.000 C 
ENDBRANCH  19  21
ENDBRANCH  17  19
ENDBRANCH   9  17
ENDBRANCH   1  14
BRANCH   2  22
ATOM     22  C   UNL     1       1.187  13.018  20.368  0.00  0.00    +0.000 C 
BRANCH  22  23
ATOM     23  C   UNL     1       0.258  12.100  19.534  0.00  0.00    +0.000 A 
ATOM     24  C   UNL     1      -0.417  12.745  18.474  0.00  0.00    +0.000 A 
ATOM     25  C   UNL     1      -1.399  12.098  17.726  0.00  0.00    +0.000 A 
ATOM     26  C   UNL     1      -1.791  10.814  18.070  0.00  0.00    +0.000 A 
ATOM     27  C   UNL     1      -1.105  10.131  19.065  0.00  0.00    +0.000 A 
ATOM     28  C   UNL     1      -0.017  10.715  19.742  0.00  0.00    +0.000 A 
ATOM     29  C   UNL     1       0.797   9.750  20.577  0.00  0.00    +0.000 C 
ENDBRANCH  22  23
ENDBRANCH   2  22
BRANCH   3  30
ATOM     30  C   UNL     1       2.807  14.485  18.507  0.00  0.00    +0.000 C 
BRANCH  30  31
ATOM     31  C   UNL     1       4.256  14.701  18.843  0.00  0.00    +0.000 A 
ATOM     32  C   UNL     1       4.648  14.884  20.164  0.00  0.00    +0.000 A 
ATOM     33  C   UNL     1       5.993  15.096  20.427  0.00  0.00    +0.000 A 
ATOM     34  C   UNL     1       6.901  15.092  19.373  0.00  0.00    +0.000 A 
ATOM     35  C   UNL     1       6.432  14.845  18.095  0.00  0.00    +0.000 A 
ATOM     36  N   UNL     1       5.133  14.648  17.808  0.00  0.00    +0.000 NA
ENDBRANCH  30  31
ENDBRANCH   3  30
TORSDOF 8
ENDMDL
MODEL 9
REMARK VINA RESULT:      -6.7      3.743      8.656
REMARK  Name = 
REMARK  11 active torsions:
REMARK  status: ('A' for Active; 'I' for Inactive)
REMARK    1  A    between atoms: C_1  and  C_2
REMARK    2  A    between atoms: C_2  and  O_3
REMARK    3  A    between atoms: O_3  and  C_4
REMARK    4  A    between atoms: C_4  and  C_6
REMARK    5  A    between atoms: C_11  and  C_13
REMARK    6  A    between atoms: C_14  and  C_15
REMARK    7  A    between atoms: C_15  and  C_16
REMARK    8  A    between atoms: C_21  and  C_22
REMARK    9  A    between atoms: N_23  and  C_24
REMARK   10  A    between atoms: C_24  and  C_25
REMARK   11  A    between atoms: C_31  and  C_32
REMARK                            x       y       z     vdW  Elec       q    Type
REMARK                         _______ _______ _______ _____ _____    ______ ____
ROOT
ATOM      1  C   UNL     1       0.128  11.786  21.414  0.00  0.00    +0.000 A 
ATOM      2  C   UNL     1       0.303  12.967  20.736  0.00  0.00    +0.000 A 
ATOM      3  N   UNL     1      -0.447  14.161  21.038  0.00  0.00    +0.000 N 
ATOM      4  C   UNL     1      -1.516  14.071  21.952  0.00  0.00    +0.000 A 
ATOM      5  C   UNL     1      -2.557  15.174  22.034  0.00  0.00    +0.000 C 
ATOM      6  C   UNL     1      -1.719  12.995  22.713  0.00  0.00    +0.000 A 
ATOM      7  C   UNL     1      -0.869  11.807  22.547  0.00  0.00    +0.000 A 
ATOM      8  O   UNL     1      -1.077  10.860  23.302  0.00  0.00    +0.000 OA
ENDROOT
BRANCH   1  14
ATOM      9  C   UNL     1       2.311   7.914  19.388  0.00  0.00    +0.000 C 
ATOM     10  C   UNL     1       1.946   8.338  17.958  0.00  0.00    +0.000 C 
ATOM     11  C   UNL     1       1.361   9.743  17.961  0.00  0.00    +0.000 C 
ATOM     12  C   UNL     1       0.170   9.789  18.931  0.00  0.00    +0.000 C 
ATOM     13  N   UNL     1       0.646   9.534  20.272  0.00  0.00    +0.000 N 
ATOM     14  C   UNL     1       0.888  10.453  21.294  0.00  0.00    +0.000 C 
ATOM     15  O   UNL     1       1.673  10.152  22.203  0.00  0.00    +0.000 OA
ATOM     16  C   UNL     1       1.169   8.175  20.385  0.00  0.00    +0.000 C 
BRANCH   9  17
ATOM     17  C   UNL     1       2.586   6.435  19.457  0.00  0.00    +0.000 C 
ATOM     18  O   UNL     1       1.980   5.640  20.161  0.00  0.00    +0.000 OA
BRANCH  17  19
ATOM     19  O   UNL     1       3.722   6.169  18.759  0.00  0.00    +0.000 OA
BRANCH  19  21
ATOM     20  C   UNL     1       3.475   4.270  17.335  0.00  0.00    +0.000 C 
ATOM     21  C   UNL     1       4.042   4.780  18.649  0.00  0.00    +0.000 C 
ENDBRANCH  19  21
ENDBRANCH  17  19
ENDBRANCH   9  17
ENDBRANCH   1  14
BRANCH   2  22
ATOM     22  C   UNL     1       1.334  13.107  19.641  0.00  0.00    +0.000 C 
BRANCH  22  23
ATOM     23  C   UNL     1       2.664  13.825  19.982  0.00  0.00    +0.000 A 
ATOM     24  C   UNL     1       3.151  13.582  21.285  0.00  0.00    +0.000 A 
ATOM     25  C   UNL     1       4.252  14.268  21.797  0.00  0.00    +0.000 A 
ATOM     26  C   UNL     1       4.846  15.273  21.051  0.00  0.00    +0.000 A 
ATOM     27  C   UNL     1       4.429  15.492  19.744  0.00  0.00    +0.000 A 
ATOM     28  C   UNL     1       3.411  14.718  19.156  0.00  0.00    +0.000 A 
ATOM     29  C   UNL     1       3.281  14.882  17.657  0.00  0.00    +0.000 C 
ENDBRANCH  22  23
ENDBRANCH   2  22
BRANCH   3  30
ATOM     30  C   UNL     1      -0.289  15.408  20.196  0.00  0.00    +0.000 C 
BRANCH  30  31
ATOM     31  C   UNL     1       0.660  16.426  20.764  0.00  0.00    +0.000 A 
ATOM     32  C   UNL     1       1.030  16.366  22.103  0.00  0.00    +0.000 A 
ATOM     33  C   UNL     1       1.895  17.335  22.589  0.00  0.00    +0.000 A 
ATOM     34  C   UNL     1       2.381  18.309  21.725  0.00  0.00    +0.000 A 
ATOM     35  C   UNL     1       2.005  18.261  20.394  0.00  0.00    +0.000 A 
ATOM     36  N   UNL     1       1.159  17.342  19.896  0.00  0.00    +0.000 NA
ENDBRANCH  30  31
ENDBRANCH   3  30
TORSDOF 8
ENDMDL
