MODEL 1
REMARK VINA RESULT:      -6.9      0.000      0.000
REMARK  Name = 
REMARK  6 active torsions:
REMARK  status: ('A' for Active; 'I' for Inactive)
REMARK    1  A    between atoms: C_1  and  N_2
REMARK    2  A    between atoms: C_3  and  C_5
REMARK    3  A    between atoms: C_5  and  N_6
REMARK    4  A    between atoms: N_12  and  C_13
REMARK    5  A    between atoms: C_13  and  C_14
REMARK    6  A    between atoms: C_22  and  C_23
REMARK                            x       y       z     vdW  Elec       q    Type
REMARK                         _______ _______ _______ _____ _____    ______ ____
ROOT
ATOM      1  N   UNL     1       1.349   9.248  19.023  0.00  0.00    +0.000 N 
ATOM      2  C   UNL     1       1.498   8.474  20.142  0.00  0.00    +0.000 C 
ATOM      3  O   UNL     1       1.348   8.932  21.273  0.00  0.00    +0.000 OA
ATOM      4  N   UNL     1       1.839   7.165  19.885  0.00  0.00    +0.000 N 
ATOM      5  C   UNL     1       1.902   6.198  20.982  0.00  0.00    +0.000 C 
ATOM      6  C   UNL     1       1.519   4.769  20.515  0.00  0.00    +0.000 C 
ATOM      7  N   UNL     1       2.145   4.302  19.247  0.00  0.00    +0.000 NA
ATOM      8  C   UNL     1       1.991   5.361  18.227  0.00  0.00    +0.000 C 
ATOM      9  C   UNL     1       2.525   6.728  18.664  0.00  0.00    +0.000 C 
ATOM     10  H   UNL     1       1.001   8.753  18.218  0.00  0.00    +0.000 HD
ENDROOT
BRANCH   1  11
ATOM     11  C   UNL     1       0.960  10.650  19.090  0.00  0.00    +0.000 C 
BRANCH  11  14
ATOM     12  C   UNL     1      -2.285  10.930  17.128  0.00  0.00    +0.000 C 
ATOM     13  N   UNL     1      -0.916  10.767  17.530  0.00  0.00    +0.000 N 
ATOM     14  C   UNL     1      -0.540  10.834  18.852  0.00  0.00    +0.000 C 
ATOM     15  O   UNL     1      -1.319  11.088  19.765  0.00  0.00    +0.000 OA
ATOM     16  H   UNL     1      -0.194  10.595  16.830  0.00  0.00    +0.000 HD
ENDBRANCH  11  14
ENDBRANCH   1  11
BRANCH   7  17
ATOM     17  C   UNL     1       3.550   3.907  19.470  0.00  0.00    +0.000 C 
BRANCH  17  18
ATOM     18  C   UNL     1       4.442   4.060  18.254  0.00  0.00    +0.000 A 
ATOM     19  S   UNL     1       3.946   3.334  16.783  0.00  0.00    +0.000 S 
ATOM     20  C   UNL     1       5.294   3.940  15.917  0.00  0.00    +0.000 A 
ATOM     21  C   UNL     1       5.582   3.735  14.553  0.00  0.00    +0.000 A 
ATOM     22  C   UNL     1       6.708   4.342  13.995  0.00  0.00    +0.000 A 
ATOM     23  C   UNL     1       7.531   5.140  14.774  0.00  0.00    +0.000 A 
ATOM     24  C   UNL     1       7.251   5.323  16.133  0.00  0.00    +0.000 A 
ATOM     25  C   UNL     1       6.122   4.710  16.737  0.00  0.00    +0.000 A 
ATOM     26  C   UNL     1       5.653   4.727  18.112  0.00  0.00    +0.000 A 
ATOM     27  C   UNL     1       6.388   5.400  19.230  0.00  0.00    +0.000 C 
ENDBRANCH  17  18
ENDBRANCH   7  17
TORSDOF 4
ENDMDL
MODEL 2
REMARK VINA RESULT:      -6.8      1.433      1.949
REMARK  Name = 
REMARK  6 active torsions:
REMARK  status: ('A' for Active; 'I' for Inactive)
REMARK    1  A    between atoms: C_1  and  N_2
REMARK    2  A    between atoms: C_3  and  C_5
REMARK    3  A    between atoms: C_5  and  N_6
REMARK    4  A    between atoms: N_12  and  C_13
REMARK    5  A    between atoms: C_13  and  C_14
REMARK    6  A    between atoms: C_22  and  C_23
REMARK                            x       y       z     vdW  Elec       q    Type
REMARK                         _______ _______ _______ _____ _____    ______ ____
ROOT
ATOM      1  N   UNL     1       0.437  10.394  18.726  0.00  0.00    +0.000 N 
ATOM      2  C   UNL     1       0.870   9.796  19.878  0.00  0.00    +0.000 C 
ATOM      3  O   UNL     1       0.744  10.333  20.976  0.00  0.00    +0.000 OA
ATOM      4  N   UNL     1       1.458   8.565  19.691  0.00  0.00    +0.000 N 
ATOM      5  C   UNL     1       1.848   7.758  20.848  0.00  0.00    +0.000 C 
ATOM      6  C   UNL     1       1.739   6.238  20.555  0.00  0.00    +0.000 C 
ATOM      7  N   UNL     1       2.313   5.776  19.262  0.00  0.00    +0.000 NA
ATOM      8  C   UNL     1       1.823   6.661  18.184  0.00  0.00    +0.000 C 
ATOM      9  C   UNL     1       2.089   8.149  18.433  0.00  0.00    +0.000 C 
ATOM     10  H   UNL     1       0.121   9.753  18.017  0.00  0.00    +0.000 HD
ENDROOT
BRANCH   1  11
ATOM     11  C   UNL     1      -0.240  11.685  18.725  0.00  0.00    +0.000 C 
BRANCH  11  14
ATOM     12  C   UNL     1      -2.886  10.918  16.104  0.00  0.00    +0.000 C 
ATOM     13  N   UNL     1      -1.659  11.066  16.835  0.00  0.00    +0.000 N 
ATOM     14  C   UNL     1      -1.636  11.591  18.107  0.00  0.00    +0.000 C 
ATOM     15  O   UNL     1      -2.633  12.017  18.681  0.00  0.00    +0.000 OA
ATOM     16  H   UNL     1      -0.775  10.777  16.415  0.00  0.00    +0.000 HD
ENDBRANCH  11  14
ENDBRANCH   1  11
BRANCH   7  17
ATOM     17  C   UNL     1       3.786   5.707  19.336  0.00  0.00    +0.000 C 
BRANCH  17  18
ATOM     18  C   UNL     1       4.464   5.400  18.015  0.00  0.00    +0.000 A 
ATOM     19  S   UNL     1       5.719   6.439  17.483  0.00  0.00    +0.000 S 
ATOM     20  C   UNL     1       6.031   5.504  16.082  0.00  0.00    +0.000 A 
ATOM     21  C   UNL     1       6.999   5.765  15.092  0.00  0.00    +0.000 A 
ATOM     22  C   UNL     1       7.149   4.870  14.031  0.00  0.00    +0.000 A 
ATOM     23  C   UNL     1       6.356   3.735  13.957  0.00  0.00    +0.000 A 
ATOM     24  C   UNL     1       5.382   3.493  14.932  0.00  0.00    +0.000 A 
ATOM     25  C   UNL     1       5.193   4.388  16.017  0.00  0.00    +0.000 A 
ATOM     26  C   UNL     1       4.241   4.365  17.115  0.00  0.00    +0.000 A 
ATOM     27  C   UNL     1       3.164   3.334  17.256  0.00  0.00    +0.000 C 
ENDBRANCH  17  18
ENDBRANCH   7  17
TORSDOF 4
ENDMDL
MODEL 3
REMARK VINA RESULT:      -6.7      4.241      9.574
REMARK  Name = 
REMARK  6 active torsions:
REMARK  status: ('A' for Active; 'I' for Inactive)
REMARK    1  A    between atoms: C_1  and  N_2
REMARK    2  A    between atoms: C_3  and  C_5
REMARK    3  A    between atoms: C_5  and  N_6
REMARK    4  A    between atoms: N_12  and  C_13
REMARK    5  A    between atoms: C_13  and  C_14
REMARK    6  A    between atoms: C_22  and  C_23
REMARK                            x       y       z     vdW  Elec       q    Type
REMARK                         _______ _______ _______ _____ _____    ______ ____
ROOT
ATOM      1  N   UNL     1       2.008   6.017  20.854  0.00  0.00    +0.000 N 
ATOM      2  C   UNL     1       2.214   6.937  19.861  0.00  0.00    +0.000 C 
ATOM      3  O   UNL     1       2.937   6.700  18.896  0.00  0.00    +0.000 OA
ATOM      4  N   UNL     1       1.557   8.132  20.051  0.00  0.00    +0.000 N 
ATOM      5  C   UNL     1       1.585   9.155  19.004  0.00  0.00    +0.000 C 
ATOM      6  C   UNL     1       0.283   9.999  18.988  0.00  0.00    +0.000 C 
ATOM      7  N   UNL     1      -0.201  10.485  20.309  0.00  0.00    +0.000 NA
ATOM      8  C   UNL     1      -0.198   9.352  21.259  0.00  0.00    +0.000 C 
ATOM      9  C   UNL     1       1.152   8.637  21.368  0.00  0.00    +0.000 C 
ATOM     10  H   UNL     1       1.099   6.065  21.284  0.00  0.00    +0.000 HD
ENDROOT
BRANCH   1  11
ATOM     11  C   UNL     1       2.593   4.683  20.814  0.00  0.00    +0.000 C 
BRANCH  11  14
ATOM     12  C   UNL     1       2.352   2.764  17.540  0.00  0.00    +0.000 C 
ATOM     13  N   UNL     1       2.791   3.552  18.658  0.00  0.00    +0.000 N 
ATOM     14  C   UNL     1       1.960   3.819  19.722  0.00  0.00    +0.000 C 
ATOM     15  O   UNL     1       0.787   3.461  19.771  0.00  0.00    +0.000 OA
ATOM     16  H   UNL     1       3.739   3.927  18.679  0.00  0.00    +0.000 HD
ENDBRANCH  11  14
ENDBRANCH   1  11
BRANCH   7  17
ATOM     17  C   UNL     1       0.599  11.635  20.771  0.00  0.00    +0.000 C 
BRANCH  17  18
ATOM     18  C   UNL     1       0.053  12.985  20.349  0.00  0.00    +0.000 A 
ATOM     19  S   UNL     1      -1.245  13.655  21.245  0.00  0.00    +0.000 S 
ATOM     20  C   UNL     1      -1.270  15.095  20.316  0.00  0.00    +0.000 A 
ATOM     21  C   UNL     1      -2.141  16.191  20.483  0.00  0.00    +0.000 A 
ATOM     22  C   UNL     1      -1.994  17.309  19.660  0.00  0.00    +0.000 A 
ATOM     23  C   UNL     1      -1.001  17.340  18.694  0.00  0.00    +0.000 A 
ATOM     24  C   UNL     1      -0.155  16.240  18.519  0.00  0.00    +0.000 A 
ATOM     25  C   UNL     1      -0.283  15.081  19.329  0.00  0.00    +0.000 A 
ATOM     26  C   UNL     1       0.446  13.825  19.314  0.00  0.00    +0.000 A 
ATOM     27  C   UNL     1       1.503  13.493  18.306  0.00  0.00    +0.000 C 
ENDBRANCH  17  18
ENDBRANCH   7  17
TORSDOF 4
ENDMDL
MODEL 4
REMARK VINA RESULT:      -6.7      4.239      9.806
REMARK  Name = 
REMARK  6 active torsions:
REMARK  status: ('A' for Active; 'I' for Inactive)
REMARK    1  A    between atoms: C_1  and  N_2
REMARK    2  A    between atoms: C_3  and  C_5
REMARK    3  A    between atoms: C_5  and  N_6
REMARK    4  A    between atoms: N_12  and  C_13
REMARK    5  A    between atoms: C_13  and  C_14
REMARK    6  A    between atoms: C_22  and  C_23
REMARK                            x       y       z     vdW  Elec       q    Type
REMARK                         _______ _______ _______ _____ _____    ______ ____
ROOT
ATOM      1  N   UNL     1       3.118   5.579  19.240  0.00  0.00    +0.000 N 
ATOM      2  C   UNL     1       3.126   6.718  18.482  0.00  0.00    +0.000 C 
ATOM      3  O   UNL     1       3.810   6.816  17.465  0.00  0.00    +0.000 OA
ATOM      4  N   UNL     1       2.322   7.726  18.965  0.00  0.00    +0.000 N 
ATOM      5  C   UNL     1       2.137   8.950  18.184  0.00  0.00    +0.000 C 
ATOM      6  C   UNL     1       0.732   9.569  18.405  0.00  0.00    +0.000 C 
ATOM      7  N   UNL     1       0.272   9.666  19.818  0.00  0.00    +0.000 NA
ATOM      8  C   UNL     1       0.497   8.363  20.478  0.00  0.00    +0.000 C 
ATOM      9  C   UNL     1       1.938   7.855  20.375  0.00  0.00    +0.000 C 
ATOM     10  H   UNL     1       2.241   5.390  19.699  0.00  0.00    +0.000 HD
ENDROOT
BRANCH   1  11
ATOM     11  C   UNL     1       3.879   4.392  18.874  0.00  0.00    +0.000 C 
BRANCH  11  14
ATOM     12  C   UNL     1       7.395   4.590  17.438  0.00  0.00    +0.000 C 
ATOM     13  N   UNL     1       5.986   4.396  17.637  0.00  0.00    +0.000 N 
ATOM     14  C   UNL     1       5.383   4.671  18.843  0.00  0.00    +0.000 C 
ATOM     15  O   UNL     1       5.998   5.042  19.837  0.00  0.00    +0.000 OA
ATOM     16  H   UNL     1       5.404   4.048  16.874  0.00  0.00    +0.000 HD
ENDBRANCH  11  14
ENDBRANCH   1  11
BRANCH   7  17
ATOM     17  C   UNL     1       0.932  10.791  20.508  0.00  0.00    +0.000 C 
BRANCH  17  18
ATOM     18  C   UNL     1      -0.020  11.732  21.221  0.00  0.00    +0.000 A 
ATOM     19  S   UNL     1      -0.237  13.308  20.585  0.00  0.00    +0.000 S 
ATOM     20  C   UNL     1      -1.407  13.728  21.764  0.00  0.00    +0.000 A 
ATOM     21  C   UNL     1      -2.080  14.960  21.882  0.00  0.00    +0.000 A 
ATOM     22  C   UNL     1      -3.041  15.119  22.882  0.00  0.00    +0.000 A 
ATOM     23  C   UNL     1      -3.331  14.073  23.745  0.00  0.00    +0.000 A 
ATOM     24  C   UNL     1      -2.643  12.860  23.635  0.00  0.00    +0.000 A 
ATOM     25  C   UNL     1      -1.651  12.668  22.639  0.00  0.00    +0.000 A 
ATOM     26  C   UNL     1      -0.797  11.527  22.355  0.00  0.00    +0.000 A 
ATOM     27  C   UNL     1      -0.777  10.280  23.184  0.00  0.00    +0.000 C 
ENDBRANCH  17  18
ENDBRANCH   7  17
TORSDOF 4
ENDMDL
MODEL 5
REMARK VINA RESULT:      -6.6      4.424     10.111
REMARK  Name = 
REMARK  6 active torsions:
REMARK  status: ('A' for Active; 'I' for Inactive)
REMARK    1  A    between atoms: C_1  and  N_2
REMARK    2  A    between atoms: C_3  and  C_5
REMARK    3  A    between atoms: C_5  and  N_6
REMARK    4  A    between atoms: N_12  and  C_13
REMARK    5  A    between atoms: C_13  and  C_14
REMARK    6  A    between atoms: C_22  and  C_23
REMARK                            x       y       z     vdW  Elec       q    Type
REMARK                         _______ _______ _______ _____ _____    ______ ____
ROOT
ATOM      1  N   UNL     1       2.932   6.464  19.572  0.00  0.00    +0.000 N 
ATOM      2  C   UNL     1       2.801   7.514  18.705  0.00  0.00    +0.000 C 
ATOM      3  O   UNL     1       3.501   7.616  17.699  0.00  0.00    +0.000 OA
ATOM      4  N   UNL     1       1.839   8.431  19.065  0.00  0.00    +0.000 N 
ATOM      5  C   UNL     1       1.505   9.533  18.161  0.00  0.00    +0.000 C 
ATOM      6  C   UNL     1       0.016   9.951  18.287  0.00  0.00    +0.000 C 
ATOM      7  N   UNL     1      -0.506  10.112  19.672  0.00  0.00    +0.000 NA
ATOM      8  C   UNL     1      -0.116   8.927  20.465  0.00  0.00    +0.000 C 
ATOM      9  C   UNL     1       1.387   8.634  20.446  0.00  0.00    +0.000 C 
ATOM     10  H   UNL     1       2.076   6.190  20.027  0.00  0.00    +0.000 HD
ENDROOT
BRANCH   1  11
ATOM     11  C   UNL     1       3.874   5.376  19.344  0.00  0.00    +0.000 C 
BRANCH  11  14
ATOM     12  C   UNL     1       3.358   1.781  18.218  0.00  0.00    +0.000 C 
ATOM     13  N   UNL     1       3.884   3.091  18.479  0.00  0.00    +0.000 N 
ATOM     14  C   UNL     1       3.160   4.034  19.173  0.00  0.00    +0.000 C 
ATOM     15  O   UNL     1       2.012   3.852  19.565  0.00  0.00    +0.000 OA
ATOM     16  H   UNL     1       4.817   3.343  18.150  0.00  0.00    +0.000 HD
ENDBRANCH  11  14
ENDBRANCH   1  11
BRANCH   7  17
ATOM     17  C   UNL     1      -0.046  11.384  20.262  0.00  0.00    +0.000 C 
BRANCH  17  18
ATOM     18  C   UNL     1      -1.095  12.106  21.085  0.00  0.00    +0.000 A 
ATOM     19  S   UNL     1      -1.830  13.505  20.424  0.00  0.00    +0.000 S 
ATOM     20  C   UNL     1      -2.870  13.713  21.769  0.00  0.00    +0.000 A 
ATOM     21  C   UNL     1      -3.827  14.733  21.945  0.00  0.00    +0.000 A 
ATOM     22  C   UNL     1      -4.626  14.727  23.090  0.00  0.00    +0.000 A 
ATOM     23  C   UNL     1      -4.481  13.727  24.039  0.00  0.00    +0.000 A 
ATOM     24  C   UNL     1      -3.514  12.730  23.868  0.00  0.00    +0.000 A 
ATOM     25  C   UNL     1      -2.676  12.712  22.722  0.00  0.00    +0.000 A 
ATOM     26  C   UNL     1      -1.598  11.812  22.347  0.00  0.00    +0.000 A 
ATOM     27  C   UNL     1      -1.110  10.696  23.218  0.00  0.00    +0.000 C 
ENDBRANCH  17  18
ENDBRANCH   7  17
TORSDOF 4
ENDMDL
MODEL 6
REMARK VINA RESULT:      -6.6      3.356      5.187
REMARK  Name = 
REMARK  6 active torsions:
REMARK  status: ('A' for Active; 'I' for Inactive)
REMARK    1  A    between atoms: C_1  and  N_2
REMARK    2  A    between atoms: C_3  and  C_5
REMARK    3  A    between atoms: C_5  and  N_6
REMARK    4  A    between atoms: N_12  and  C_13
REMARK    5  A    between atoms: C_13  and  C_14
REMARK    6  A    between atoms: C_22  and  C_23
REMARK                            x       y       z     vdW  Elec       q    Type
REMARK                         _______ _______ _______ _____ _____    ______ ____
ROOT
ATOM      1  N   UNL     1       0.879  13.863  19.811  0.00  0.00    +0.000 N 
ATOM      2  C   UNL     1       0.651  13.066  20.899  0.00  0.00    +0.000 C 
ATOM      3  O   UNL     1       0.378  13.535  22.002  0.00  0.00    +0.000 OA
ATOM      4  N   UNL     1       0.768  11.717  20.648  0.00  0.00    +0.000 N 
ATOM      5  C   UNL     1       0.424  10.748  21.690  0.00  0.00    +0.000 C 
ATOM      6  C   UNL     1      -0.137   9.431  21.090  0.00  0.00    +0.000 C 
ATOM      7  N   UNL     1       0.618   8.858  19.943  0.00  0.00    +0.000 NA
ATOM      8  C   UNL     1       0.879   9.934  18.964  0.00  0.00    +0.000 C 
ATOM      9  C   UNL     1       1.578  11.160  19.559  0.00  0.00    +0.000 C 
ATOM     10  H   UNL     1       0.602  13.457  18.931  0.00  0.00    +0.000 HD
ENDROOT
BRANCH   1  11
ATOM     11  C   UNL     1       0.771  15.315  19.871  0.00  0.00    +0.000 C 
BRANCH  11  14
ATOM     12  C   UNL     1       3.603  15.629  17.353  0.00  0.00    +0.000 C 
ATOM     13  N   UNL     1       2.637  15.153  18.302  0.00  0.00    +0.000 N 
ATOM     14  C   UNL     1       1.710  15.995  18.874  0.00  0.00    +0.000 C 
ATOM     15  O   UNL     1       1.675  17.203  18.664  0.00  0.00    +0.000 OA
ATOM     16  H   UNL     1       2.622  14.167  18.568  0.00  0.00    +0.000 HD
ENDBRANCH  11  14
ENDBRANCH   1  11
BRANCH   7  17
ATOM     17  C   UNL     1       1.846   8.183  20.407  0.00  0.00    +0.000 C 
BRANCH  17  18
ATOM     18  C   UNL     1       2.046   6.791  19.839  0.00  0.00    +0.000 A 
ATOM     19  S   UNL     1       1.487   5.452  20.750  0.00  0.00    +0.000 S 
ATOM     20  C   UNL     1       1.950   4.320  19.549  0.00  0.00    +0.000 A 
ATOM     21  C   UNL     1       1.794   2.920  19.605  0.00  0.00    +0.000 A 
ATOM     22  C   UNL     1       2.189   2.146  18.513  0.00  0.00    +0.000 A 
ATOM     23  C   UNL     1       2.725   2.749  17.386  0.00  0.00    +0.000 A 
ATOM     24  C   UNL     1       2.897   4.137  17.346  0.00  0.00    +0.000 A 
ATOM     25  C   UNL     1       2.518   4.955  18.443  0.00  0.00    +0.000 A 
ATOM     26  C   UNL     1       2.627   6.390  18.642  0.00  0.00    +0.000 A 
ATOM     27  C   UNL     1       3.275   7.316  17.660  0.00  0.00    +0.000 C 
ENDBRANCH  17  18
ENDBRANCH   7  17
TORSDOF 4
ENDMDL
MODEL 7
REMARK VINA RESULT:      -6.6      4.459     10.064
REMARK  Name = 
REMARK  6 active torsions:
REMARK  status: ('A' for Active; 'I' for Inactive)
REMARK    1  A    between atoms: C_1  and  N_2
REMARK    2  A    between atoms: C_3  and  C_5
REMARK    3  A    between atoms: C_5  and  N_6
REMARK    4  A    between atoms: N_12  and  C_13
REMARK    5  A    between atoms: C_13  and  C_14
REMARK    6  A    between atoms: C_22  and  C_23
REMARK                            x       y       z     vdW  Elec       q    Type
REMARK                         _______ _______ _______ _____ _____    ______ ____
ROOT
ATOM      1  N   UNL     1       2.848   6.242  19.515  0.00  0.00    +0.000 N 
ATOM      2  C   UNL     1       2.786   7.326  18.683  0.00  0.00    +0.000 C 
ATOM      3  O   UNL     1       3.486   7.414  17.677  0.00  0.00    +0.000 OA
ATOM      4  N   UNL     1       1.891   8.295  19.081  0.00  0.00    +0.000 N 
ATOM      5  C   UNL     1       1.630   9.447  18.216  0.00  0.00    +0.000 C 
ATOM      6  C   UNL     1       0.174   9.962  18.366  0.00  0.00    +0.000 C 
ATOM      7  N   UNL     1      -0.329  10.113  19.759  0.00  0.00    +0.000 NA
ATOM      8  C   UNL     1      -0.018   8.878  20.509  0.00  0.00    +0.000 C 
ATOM      9  C   UNL     1       1.461   8.483  20.470  0.00  0.00    +0.000 C 
ATOM     10  H   UNL     1       1.977   6.013  19.967  0.00  0.00    +0.000 HD
ENDROOT
BRANCH   1  11
ATOM     11  C   UNL     1       3.712   5.100  19.245  0.00  0.00    +0.000 C 
BRANCH  11  14
ATOM     12  C   UNL     1       1.723   2.939  21.661  0.00  0.00    +0.000 C 
ATOM     13  N   UNL     1       2.310   4.032  20.937  0.00  0.00    +0.000 N 
ATOM     14  C   UNL     1       3.177   3.820  19.888  0.00  0.00    +0.000 C 
ATOM     15  O   UNL     1       3.551   2.706  19.535  0.00  0.00    +0.000 OA
ATOM     16  H   UNL     1       2.087   4.994  21.192  0.00  0.00    +0.000 HD
ENDBRANCH  11  14
ENDBRANCH   1  11
BRANCH   7  17
ATOM     17  C   UNL     1       0.220  11.330  20.386  0.00  0.00    +0.000 C 
BRANCH  17  18
ATOM     18  C   UNL     1      -0.790  12.134  21.181  0.00  0.00    +0.000 A 
ATOM     19  S   UNL     1      -1.304  13.644  20.555  0.00  0.00    +0.000 S 
ATOM     20  C   UNL     1      -2.405  13.911  21.841  0.00  0.00    +0.000 A 
ATOM     21  C   UNL     1      -3.244  15.031  22.014  0.00  0.00    +0.000 A 
ATOM     22  C   UNL     1      -4.117  15.067  23.103  0.00  0.00    +0.000 A 
ATOM     23  C   UNL     1      -4.159  14.011  24.000  0.00  0.00    +0.000 A 
ATOM     24  C   UNL     1      -3.309  12.912  23.833  0.00  0.00    +0.000 A 
ATOM     25  C   UNL     1      -2.400  12.847  22.745  0.00  0.00    +0.000 A 
ATOM     26  C   UNL     1      -1.413  11.842  22.389  0.00  0.00    +0.000 A 
ATOM     27  C   UNL     1      -1.124  10.632  23.223  0.00  0.00    +0.000 C 
ENDBRANCH  17  18
ENDBRANCH   7  17
TORSDOF 4
ENDMDL
MODEL 8
REMARK VINA RESULT:      -6.6      4.163      9.261
REMARK  Name = 
REMARK  6 active torsions:
REMARK  status: ('A' for Active; 'I' for Inactive)
REMARK    1  A    between atoms: C_1  and  N_2
REMARK    2  A    between atoms: C_3  and  C_5
REMARK    3  A    between atoms: C_5  and  N_6
REMARK    4  A    between atoms: N_12  and  C_13
REMARK    5  A    between atoms: C_13  and  C_14
REMARK    6  A    between atoms: C_22  and  C_23
REMARK                            x       y       z     vdW  Elec       q    Type
REMARK                         _______ _______ _______ _____ _____    ______ ____
ROOT
ATOM      1  N   UNL     1       2.319   6.328  19.179  0.00  0.00    +0.000 N 
ATOM      2  C   UNL     1       2.514   7.492  18.487  0.00  0.00    +0.000 C 
ATOM      3  O   UNL     1       3.246   7.547  17.501  0.00  0.00    +0.000 OA
ATOM      4  N   UNL     1       1.837   8.576  19.000  0.00  0.00    +0.000 N 
ATOM      5  C   UNL     1       1.853   9.853  18.283  0.00  0.00    +0.000 C 
ATOM      6  C   UNL     1       0.538  10.649  18.493  0.00  0.00    +0.000 C 
ATOM      7  N   UNL     1       0.039  10.735  19.893  0.00  0.00    +0.000 NA
ATOM      8  C   UNL     1       0.056   9.381  20.486  0.00  0.00    +0.000 C 
ATOM      9  C   UNL     1       1.417   8.684  20.401  0.00  0.00    +0.000 C 
ATOM     10  H   UNL     1       1.407   6.239  19.597  0.00  0.00    +0.000 HD
ENDROOT
BRANCH   1  11
ATOM     11  C   UNL     1       2.926   5.067  18.771  0.00  0.00    +0.000 C 
BRANCH  11  14
ATOM     12  C   UNL     1       1.489   2.747  21.419  0.00  0.00    +0.000 C 
ATOM     13  N   UNL     1       2.144   3.815  20.718  0.00  0.00    +0.000 N 
ATOM     14  C   UNL     1       2.172   3.865  19.342  0.00  0.00    +0.000 C 
ATOM     15  O   UNL     1       1.698   2.990  18.624  0.00  0.00    +0.000 OA
ATOM     16  H   UNL     1       2.603   4.563  21.238  0.00  0.00    +0.000 HD
ENDBRANCH  11  14
ENDBRANCH   1  11
BRANCH   7  17
ATOM     17  C   UNL     1       0.818  11.721  20.668  0.00  0.00    +0.000 C 
BRANCH  17  18
ATOM     18  C   UNL     1       0.853  13.108  20.058  0.00  0.00    +0.000 A 
ATOM     19  S   UNL     1       2.358  13.721  19.514  0.00  0.00    +0.000 S 
ATOM     20  C   UNL     1       1.664  15.175  18.929  0.00  0.00    +0.000 A 
ATOM     21  C   UNL     1       2.342  16.242  18.306  0.00  0.00    +0.000 A 
ATOM     22  C   UNL     1       1.611  17.340  17.849  0.00  0.00    +0.000 A 
ATOM     23  C   UNL     1       0.234  17.376  18.002  0.00  0.00    +0.000 A 
ATOM     24  C   UNL     1      -0.430  16.322  18.640  0.00  0.00    +0.000 A 
ATOM     25  C   UNL     1       0.282  15.196  19.130  0.00  0.00    +0.000 A 
ATOM     26  C   UNL     1      -0.177  14.016  19.842  0.00  0.00    +0.000 A 
ATOM     27  C   UNL     1      -1.596  13.808  20.272  0.00  0.00    +0.000 C 
ENDBRANCH  17  18
ENDBRANCH   7  17
TORSDOF 4
ENDMDL
MODEL 9
REMARK VINA RESULT:      -6.6      4.465      9.433
REMARK  Name = 
REMARK  6 active torsions:
REMARK  status: ('A' for Active; 'I' for Inactive)
REMARK    1  A    between atoms: C_1  and  N_2
REMARK    2  A    between atoms: C_3  and  C_5
REMARK    3  A    between atoms: C_5  and  N_6
REMARK    4  A    between atoms: N_12  and  C_13
REMARK    5  A    between atoms: C_13  and  C_14
REMARK    6  A    between atoms: C_22  and  C_23
REMARK                            x       y       z     vdW  Elec       q    Type
REMARK                         _______ _______ _______ _____ _____    ______ ____
ROOT
ATOM      1  N   UNL     1       2.140   6.929  19.854  0.00  0.00    +0.000 N 
ATOM      2  C   UNL     1       2.177   8.038  19.053  0.00  0.00    +0.000 C 
ATOM      3  O   UNL     1       2.802   8.055  17.995  0.00  0.00    +0.000 OA
ATOM      4  N   UNL     1       1.470   9.114  19.542  0.00  0.00    +0.000 N 
ATOM      5  C   UNL     1       1.318  10.319  18.726  0.00  0.00    +0.000 C 
ATOM      6  C   UNL     1      -0.029  11.039  19.004  0.00  0.00    +0.000 C 
ATOM      7  N   UNL     1      -0.394  11.216  20.436  0.00  0.00    +0.000 NA
ATOM      8  C   UNL     1      -0.215   9.925  21.133  0.00  0.00    +0.000 C 
ATOM      9  C   UNL     1       1.181   9.317  20.966  0.00  0.00    +0.000 C 
ATOM     10  H   UNL     1       1.282   6.816  20.370  0.00  0.00    +0.000 HD
ENDROOT
BRANCH   1  11
ATOM     11  C   UNL     1       2.800   5.682  19.490  0.00  0.00    +0.000 C 
BRANCH  11  14
ATOM     12  C   UNL     1       1.473   2.848  21.650  0.00  0.00    +0.000 C 
ATOM     13  N   UNL     1       2.174   3.992  21.140  0.00  0.00    +0.000 N 
ATOM     14  C   UNL     1       1.955   4.464  19.865  0.00  0.00    +0.000 C 
ATOM     15  O   UNL     1       1.201   3.921  19.064  0.00  0.00    +0.000 OA
ATOM     16  H   UNL     1       2.853   4.479  21.725  0.00  0.00    +0.000 HD
ENDBRANCH  11  14
ENDBRANCH   1  11
BRANCH   7  17
ATOM     17  C   UNL     1       0.377  12.318  21.043  0.00  0.00    +0.000 C 
BRANCH  17  18
ATOM     18  C   UNL     1       0.373  13.602  20.236  0.00  0.00    +0.000 A 
ATOM     19  S   UNL     1      -1.092  14.482  20.115  0.00  0.00    +0.000 S 
ATOM     20  C   UNL     1      -0.373  15.739  19.200  0.00  0.00    +0.000 A 
ATOM     21  C   UNL     1      -1.014  16.892  18.700  0.00  0.00    +0.000 A 
ATOM     22  C   UNL     1      -0.263  17.842  18.007  0.00  0.00    +0.000 A 
ATOM     23  C   UNL     1       1.097  17.655  17.815  0.00  0.00    +0.000 A 
ATOM     24  C   UNL     1       1.722  16.499  18.295  0.00  0.00    +0.000 A 
ATOM     25  C   UNL     1       0.988  15.505  18.994  0.00  0.00    +0.000 A 
ATOM     26  C   UNL     1       1.405  14.228  19.548  0.00  0.00    +0.000 A 
ATOM     27  C   UNL     1       2.788  13.674  19.402  0.00  0.00    +0.000 C 
ENDBRANCH  17  18
ENDBRANCH   7  17
TORSDOF 4
ENDMDL
